@<TRIPOS>MOLECULE
tmp/4wtwA00.pdb
 75 70 0 0 0
SMALL
GASTEIGER

@<TRIPOS>ATOM
      1  N         15.9630    8.1260   28.2610 N.3    42  GLN42      -0.1231
      2  CA        14.8110    7.4590   28.8410 C.3    42  GLN42       0.1698
      3  C         14.9910    5.9590   28.7440 C.2    42  GLN42       0.2592
      4  O         15.5100    5.4520   27.7520 O.2    42  GLN42      -0.2718
      5  CB        13.5360    7.8950   28.0860 C.3    42  GLN42       0.0381
      6  CG        12.2730    7.5090   28.7010 C.3    42  GLN42       0.0905
      7  CD        11.1670    8.4390   28.2460 C.2    42  GLN42       0.2608
      8  OE1       11.0170    8.7130   27.0450 O.2    42  GLN42      -0.2717
      9  NE2       10.4310    8.9620   29.1890 N.am   42  GLN42      -0.0878
     10  N         14.5880    5.2460   29.7870 N.am   43  LEU43      -0.1966
     11  CA        14.4780    3.7970   29.7110 C.3    43  LEU43       0.1728
     12  C         13.6140    3.3720   28.5410 C.2    43  LEU43       0.2616
     13  O         12.5100    3.8760   28.3670 O.2    43  LEU43      -0.2715
     14  CB        13.8840    3.2530   31.0060 C.3    43  LEU43       0.0311
     15  CG        14.8280    3.3380   32.2170 C.3    43  LEU43       0.0022
     16  CD1       14.0600    3.1650   33.4970 C.3    43  LEU43       0.0001
     17  CD2       15.9250    2.2670   32.1140 C.3    43  LEU43       0.0001
     18  N         14.1330    2.4220   27.7580 N.am   44  LEU44      -0.1963
     19  CA        13.4500    1.8420   26.6190 C.3    44  LEU44       0.1728
     20  C         12.0430    1.3310   26.9490 C.2    44  LEU44       0.2616
     21  O         11.0980    1.5240   26.1800 O.2    44  LEU44      -0.2715
     22  CB        14.3090    0.6990   26.0850 C.3    44  LEU44       0.0311
     23  CG        13.7500   -0.1290   24.9450 C.3    44  LEU44       0.0022
     24  CD1       13.5170    0.7610   23.7730 C.3    44  LEU44       0.0001
     25  CD2       14.7320   -1.2320   24.5990 C.3    44  LEU44       0.0001
     26  N         11.9250    0.6980   28.1080 N.am   45  ASN45      -0.1958
     27  CA        10.6680    0.0770   28.5300 C.3    45  ASN45       0.1819
     28  C          9.7810    1.0340   29.3350 C.2    45  ASN45       0.2622
     29  O          8.7490    0.6170   29.8940 O.2    45  ASN45      -0.2715
     30  CB        10.9310   -1.1780   29.3800 C.3    45  ASN45       0.1195
     31  CG        11.7120   -2.2630   28.6450 C.2    45  ASN45       0.2630
     32  OD1       11.6730   -2.3700   27.4300 O.2    45  ASN45      -0.2716
     33  ND2       12.4000   -3.1060   29.4160 N.am   45  ASN45      -0.0877
     34  N         10.1930    2.2940   29.4450 N.am   46  GLY46      -0.1940
     35  CA         9.3960    3.3050   30.1230 C.3    46  GLY46       0.2014
     36  C         10.0420    3.8120   31.3940 C.2    46  GLY46       0.2639
     37  O         10.7420    3.0640   32.0950 O.2    46  GLY46      -0.2714
     38  N          9.7680    5.0710   31.7170 N.am   47  GLY47      -0.1954
     39  CA        10.3360    5.7110   32.8880 C.3    47  GLY47       0.1869
     40  C         10.3530    7.2100   32.7190 C.2    47  GLY47       0.2309
     41  O          9.8030    7.7220   31.7500 O.2    47  GLY47      -0.2863
     42  N         17.2300    4.8000   25.5630 N.3    74  VAL74      -0.1245
     43  CA        17.1880    5.5130   24.2990 C.3    74  VAL74       0.1561
     44  C         17.7000    6.9120   24.5480 C.2    74  VAL74       0.2260
     45  O         17.1960    7.5990   25.4290 O.2    74  VAL74      -0.2867
     46  CB        15.7590    5.5610   23.7150 C.3    74  VAL74       0.0252
     47  CG1       15.7740    6.2100   22.3520 C.3    74  VAL74       0.0019
     48  CG2       15.1610    4.1480   23.6610 C.3    74  VAL74       0.0019
     49  N         18.5060   10.6650   22.7020 N.3    76  ARG76      -0.1245
     50  CA        18.1540   11.5010   21.5540 C.3    76  ARG76       0.1563
     51  C         18.8650   12.8360   21.7040 C.2    76  ARG76       0.2260
     52  O         18.6780   13.5240   22.7020 O.2    76  ARG76      -0.2867
     53  CB        16.6410   11.6870   21.4530 C.3    76  ARG76       0.0307
     54  CG        15.9400   10.3750   21.1310 C.3    76  ARG76       0.0489
     55  CD        14.4150   10.4550   21.3010 C.3    76  ARG76       0.2205
     56  NE        13.8250    9.2220   20.7870 N.pl3  76  ARG76      -0.0865
     57  CZ        12.5610    8.8420   20.9440 C.cat  76  ARG76       0.5346
     58  NH1       11.7050    9.5820   21.6410 N.pl3  76  ARG76       0.1354
     59  NH2       12.1790    7.6910   20.4190 N.pl3  76  ARG76       0.1354
     60  N         19.0820    9.5580   17.1900 N.3    90  GLU90      -0.1245
     61  CA        18.7610    8.5410   18.1800 C.3    90  GLU90       0.1567
     62  C         19.8600    7.4920   18.2380 C.2    90  GLU90       0.2260
     63  O         20.3970    7.0770   17.1920 O.2    90  GLU90      -0.2867
     64  CB        17.4280    7.8850   17.8310 C.3    90  GLU90       0.0388
     65  CG        16.9140    6.8900   18.8530 C.3    90  GLU90       0.1160
     66  CD        15.4820    6.5100   18.5520 C.2    90  GLU90       0.3649
     67  OE1       15.2810    5.4910   17.8590 O.co2  90  GLU90      -0.2457
     68  OE2       14.5820    7.2630   18.9650 O.co2  90  GLU90      -0.2457
     69  N         20.7080    3.8770   20.8930 N.3    92  VAL92      -0.1245
     70  CA        20.2800    3.0890   22.0480 C.3    92  VAL92       0.1561
     71  C         21.4650    2.2870   22.5880 C.2    92  VAL92       0.2260
     72  O         22.4250    2.0000   21.8680 O.2    92  VAL92      -0.2867
     73  CB        19.0770    2.1780   21.6810 C.3    92  VAL92       0.0252
     74  CG1       17.9280    3.0170   21.1320 C.3    92  VAL92       0.0019
     75  CG2       19.4720    1.1000   20.6740 C.3    92  VAL92       0.0019
@<TRIPOS>BOND
     1    60    61    1
     2    63    62    2
     3    64    61    1
     4    64    65    1
     5    67    66   ar
     6    61    62    1
     7    66    65    1
     8    66    68   ar
     9    59    57    1
    10    75    73    1
    11    56    57    2
    12    56    55    1
    13    69    70    1
    14    57    58    1
    15    54    55    1
    16    54    53    1
    17    74    73    1
    18    53    50    1
    19    50    51    1
    20    50    49    1
    21    73    70    1
    22    51    52    2
    23    72    71    2
    24    70    71    1
    25    47    46    1
    26    48    46    1
    27    46    43    1
    28    24    23    1
    29    43    44    1
    30    43    42    1
    31    44    45    2
    32    25    23    1
    33    23    22    1
    34    22    19    1
    35    21    20    2
    36    19    20    1
    37    19    18    1
    38    20    26   am
    39     8     7    2
    40    32    31    2
    41     4     3    2
    42    18    12   am
    43     5     6    1
    44     5     2    1
    45    26    27    1
    46     7     6    1
    47     7     9   am
    48     1     2    1
    49    13    12    2
    50    27    28    1
    51    27    30    1
    52    12    11    1
    53    31    30    1
    54    31    33   am
    55     3     2    1
    56     3    10   am
    57    28    34   am
    58    28    29    2
    59    34    35    1
    60    11    10    1
    61    11    14    1
    62    35    36    1
    63    14    15    1
    64    36    38   am
    65    36    37    2
    66    38    39    1
    67    41    40    2
    68    17    15    1
    69    15    16    1
    70    40    39    1
