@<TRIPOS>MOLECULE
tmp/4wu2A00.pdb
 141 134 0 0 0
SMALL
GASTEIGER

@<TRIPOS>ATOM
      1  N         -2.8560  120.0760   23.3210 N.3    24  ARG24      -0.1245
      2  CA        -2.6460  120.4500   21.9540 C.3    24  ARG24       0.1563
      3  C         -1.1640  120.5650   21.6630 C.2    24  ARG24       0.2260
      4  O         -0.3970  121.0130   22.5160 O.2    24  ARG24      -0.2867
      5  CB        -3.3040  121.7830   21.7160 C.3    24  ARG24       0.0307
      6  CG        -3.0900  122.3530   20.3450 C.3    24  ARG24       0.0489
      7  CD        -3.5080  123.8090   20.3500 C.3    24  ARG24       0.2205
      8  NE        -3.4880  124.3900   19.0140 N.pl3  24  ARG24      -0.0865
      9  CZ        -3.8060  125.6500   18.7480 C.cat  24  ARG24       0.5346
     10  NH1       -4.1730  126.4660   19.7260 N.pl3  24  ARG24       0.1354
     11  NH2       -3.7640  126.0920   17.4960 N.pl3  24  ARG24       0.1354
     12  N         -9.4640  128.1850   22.0180 N.3   120  ASP120     -0.1239
     13  CA        -8.3020  128.3370   22.8890 C.3   120  ASP120      0.1674
     14  C         -8.6350  129.1530   24.1420 C.2   120  ASP120      0.2266
     15  O         -7.8220  129.9730   24.5870 O.2   120  ASP120     -0.2867
     16  CB        -7.1480  129.0060   22.1360 C.3   120  ASP120      0.1410
     17  CG        -5.8140  128.8160   22.8200 C.2   120  ASP120      0.3668
     18  OD1       -5.6780  127.8950   23.6710 O.co2 120  ASP120     -0.2456
     19  OD2       -4.8960  129.6060   22.5050 O.co2 120  ASP120     -0.2456
     20  N        -10.8510  122.5510   14.3160 N.3   156  LYS156     -0.1245
     21  CA       -10.2030  122.7910   15.5960 C.3   156  LYS156      0.1561
     22  C        -10.4320  121.6510   16.5760 C.2   156  LYS156      0.2260
     23  O        -10.6190  121.8640   17.7830 O.2   156  LYS156     -0.2867
     24  CB       -10.6550  124.1290   16.1880 C.3   156  LYS156      0.0271
     25  CG        -9.9720  125.3370   15.5500 C.3   156  LYS156      0.0035
     26  CD        -8.4610  125.2940   15.7690 C.3   156  LYS156      0.0206
     27  CE        -7.7190  126.4370   15.0880 C.3   156  LYS156      0.1093
     28  NZ        -8.0150  127.7520   15.7110 N.3   156  LYS156     -0.1314
     29  N         -6.3460  134.3940   24.0540 N.3   190  ASP190     -0.1225
     30  CA        -6.2800  134.2550   22.5910 C.3   190  ASP190      0.1805
     31  C         -7.4610  134.9530   21.9050 C.2   190  ASP190      0.2597
     32  O         -8.5910  134.9100   22.3920 O.2   190  ASP190     -0.2718
     33  CB        -6.2800  132.7640   22.2330 C.3   190  ASP190      0.1424
     34  CG        -5.7630  132.4640   20.8180 C.2   190  ASP190      0.3668
     35  OD1       -5.3630  133.3830   20.0700 O.co2 190  ASP190     -0.2456
     36  OD2       -5.7400  131.2630   20.4690 O.co2 190  ASP190     -0.2456
     37  N         -7.1830  135.6060   20.7760 N.am  191  HIS191     -0.1975
     38  CA        -8.2150  136.1560   19.8720 C.3   191  HIS191      0.1656
     39  C         -8.6830  137.5470   20.2550 C.2   191  HIS191      0.2291
     40  O         -9.2490  138.2440   19.4220 O.2   191  HIS191     -0.2864
     41  CB        -9.4500  135.2550   19.7800 C.3   191  HIS191      0.0771
     42  CG        -9.1490  133.8500   19.3760 C.ar  191  HIS191      0.0820
     43  ND1       -8.7080  133.5140   18.1150 N.ar  191  HIS191     -0.2267
     44  CD2       -9.2350  132.6910   20.0700 C.ar  191  HIS191      0.1154
     45  CE1       -8.5270  132.2070   18.0500 C.ar  191  HIS191      0.1986
     46  NE2       -8.8440  131.6840   19.2220 N.ar  191  HIS191     -0.2212
     47  N          3.4020  134.0800   21.3890 N.3   219  SER219     -0.1202
     48  CA         2.0700  133.5950   21.7370 C.3   219  SER219      0.2020
     49  C          1.9370  132.2390   21.0460 C.2   219  SER219      0.2619
     50  O          2.9480  131.5760   20.8560 O.2   219  SER219     -0.2717
     51  CB         0.9740  134.6120   21.3360 C.3   219  SER219      0.2103
     52  OG         1.2040  135.2060   20.0710 O.3   219  SER219     -0.2182
     53  N          0.7370  131.7950   20.6710 N.am  220  GLU220     -0.1965
     54  CA         0.6320  130.4640   20.0600 C.3   220  GLU220      0.1733
     55  C          1.1600  130.5140   18.6290 C.2   220  GLU220      0.2616
     56  O          2.0830  129.7890   18.2690 O.2   220  GLU220     -0.2715
     57  CB        -0.7960  129.9100   20.1180 C.3   220  GLU220      0.0429
     58  CG        -1.0110  128.5720   19.4050 C.3   220  GLU220      0.1163
     59  CD        -0.2740  127.3780   20.0110 C.2   220  GLU220      0.3649
     60  OE1        0.7840  127.5440   20.6490 O.co2 220  GLU220     -0.2457
     61  OE2       -0.7440  126.2380   19.8190 O.co2 220  GLU220     -0.2457
     62  N          0.5990  131.4010   17.8200 N.am  221  ALA221     -0.1963
     63  CA         0.9970  131.4840   16.4360 C.3   221  ALA221      0.1728
     64  C          1.9390  132.6470   16.1940 C.2   221  ALA221      0.2617
     65  O          2.6100  132.7060   15.1680 O.2   221  ALA221     -0.2715
     66  CB        -0.2250  131.6090   15.5560 C.3   221  ALA221      0.0334
     67  N          2.0070  133.5690   17.1380 N.am  222  GLY222     -0.1940
     68  CA         2.8640  134.7320   16.9710 C.3   222  GLY222      0.2014
     69  C          2.2680  135.7330   16.0160 C.2   222  GLY222      0.2639
     70  O          2.9780  136.4630   15.3440 O.2   222  GLY222     -0.2714
     71  N          0.9500  135.7850   15.9700 N.am  223  VAL223     -0.1963
     72  CA         0.2690  136.7530   15.1250 C.3   223  VAL223      0.1727
     73  C         -0.5000  137.7620   15.9520 C.2   223  VAL223      0.2617
     74  O         -0.0900  138.9120   16.0500 O.2   223  VAL223     -0.2715
     75  CB        -0.6860  136.0570   14.1370 C.3   223  VAL223      0.0290
     76  CG1       -1.5340  137.0740   13.3900 C.3   223  VAL223      0.0023
     77  CG2        0.1070  135.1970   13.1720 C.3   223  VAL223      0.0023
     78  N         -1.6070  137.3340   16.5510 N.am  224  GLY224     -0.1940
     79  CA        -2.5370  138.2530   17.2070 C.3   224  GLY224      0.2014
     80  C         -1.9890  138.9470   18.4370 C.2   224  GLY224      0.2638
     81  O         -1.8290  140.1620   18.4610 O.2   224  GLY224     -0.2714
     82  N         -1.7190  138.1860   19.4810 N.am  225  ARG225     -0.1977
     83  CA        -1.2840  138.7880   20.7220 C.3   225  ARG225      0.1597
     84  C          0.1380  139.3470   20.5710 C.2   225  ARG225      0.2287
     85  O          0.4480  140.4560   21.0360 O.2   225  ARG225     -0.2864
     86  CB        -1.3580  137.7640   21.8520 C.3   225  ARG225      0.0334
     87  CG        -2.7760  137.4560   22.3100 C.3   225  ARG225      0.0492
     88  CD        -2.8430  136.1820   23.1490 C.3   225  ARG225      0.2205
     89  NE        -2.6400  134.9740   22.3490 N.pl3 225  ARG225     -0.0865
     90  CZ        -2.6730  133.7310   22.8380 C.cat 225  ARG225      0.5346
     91  NH1       -2.8910  133.5270   24.1290 N.pl3 225  ARG225      0.1354
     92  NH2       -2.4900  132.6880   22.0420 N.pl3 225  ARG225      0.1354
     93  N          0.8850  141.2330   12.2880 N.3   256  PHE256     -0.1241
     94  CA        -0.4880  141.4870   11.8810 C.3   256  PHE256      0.1605
     95  C         -0.6100  142.9840   11.6200 C.2   256  PHE256      0.2264
     96  O          0.1280  143.7690   12.2100 O.2   256  PHE256     -0.2867
     97  CB        -1.4320  141.0540   13.0160 C.3   256  PHE256      0.0534
     98  CG        -2.8920  141.0230   12.6310 C.ar  256  PHE256     -0.0203
     99  CD1       -3.4230  139.9460   11.9370 C.ar  256  PHE256     -0.0042
    100  CD2       -3.7360  142.0550   12.9890 C.ar  256  PHE256     -0.0042
    101  CE1       -4.7550  139.9100   11.6030 C.ar  256  PHE256     -0.0003
    102  CE2       -5.0760  142.0230   12.6470 C.ar  256  PHE256     -0.0003
    103  CZ        -5.5770  140.9520   11.9480 C.ar  256  PHE256     -0.0000
    104  N        -16.4400  131.4720   11.5500 N.3   269  ASP269     -0.1239
    105  CA       -15.5040  132.4040   12.1840 C.3   269  ASP269      0.1674
    106  C        -16.0780  133.8210   12.3210 C.2   269  ASP269      0.2266
    107  O        -15.3310  134.7910   12.4740 O.2   269  ASP269     -0.2867
    108  CB       -14.1960  132.4600   11.3820 C.3   269  ASP269      0.1410
    109  CG       -13.3120  131.2410   11.6070 C.2   269  ASP269      0.3668
    110  OD1      -13.3290  130.6810   12.7290 O.co2 269  ASP269     -0.2456
    111  OD2      -12.5910  130.8550   10.6590 O.co2 269  ASP269     -0.2456
    112  N        -15.3700  135.9950   15.4940 N.3   272  LYS272     -0.1245
    113  CA       -14.1460  136.8300   15.4060 C.3   272  LYS272      0.1561
    114  C        -14.4000  138.2880   15.1810 C.2   272  LYS272      0.2260
    115  O        -13.6560  139.1250   15.6730 O.2   272  LYS272     -0.2867
    116  CB       -13.3340  136.4460   14.1700 C.3   272  LYS272      0.0271
    117  CG       -12.8420  135.0220   14.1330 C.3   272  LYS272      0.0035
    118  CD       -11.7600  134.8120   15.1550 C.3   272  LYS272      0.0206
    119  CE       -11.2760  133.3730   15.0950 C.3   272  LYS272      0.1093
    120  NZ       -10.6040  133.0150   13.8080 N.3   272  LYS272     -0.1314
    121  N        -12.0040  141.6600   16.1740 N.3   276  TYR276     -0.1241
    122  CA       -11.1250  142.3900   15.2780 C.3   276  TYR276      0.1605
    123  C        -11.4080  143.8630   15.3860 C.2   276  TYR276      0.2264
    124  O        -10.4900  144.6530   15.4650 O.2   276  TYR276     -0.2867
    125  CB       -11.3260  141.9750   13.8240 C.3   276  TYR276      0.0534
    126  CG       -10.7070  140.6540   13.4870 C.ar  276  TYR276     -0.0201
    127  CD1       -9.4130  140.3640   13.8670 C.ar  276  TYR276     -0.0009
    128  CD2      -11.4120  139.7020   12.7900 C.ar  276  TYR276     -0.0009
    129  CE1       -8.8380  139.1550   13.5610 C.ar  276  TYR276      0.0417
    130  CE2      -10.8490  138.4920   12.4840 C.ar  276  TYR276      0.0417
    131  CZ        -9.5590  138.2340   12.8660 C.ar  276  TYR276      0.1957
    132  OH        -8.9910  137.0410   12.5670 O.3   276  TYR276     -0.2866
    133  N        -10.2290  145.4870   18.5510 N.3   279  LYS279     -0.1245
    134  CA        -8.7750  145.6780   18.6340 C.3   279  LYS279      0.1561
    135  C         -8.3160  146.9400   17.9110 C.2   279  LYS279      0.2260
    136  O         -7.5170  147.6980   18.4280 O.2   279  LYS279     -0.2867
    137  CB        -8.0230  144.4380   18.1260 C.3   279  LYS279      0.0271
    138  CG        -8.1060  143.3010   19.1240 C.3   279  LYS279      0.0035
    139  CD        -7.1270  142.1840   18.8580 C.3   279  LYS279      0.0206
    140  CE        -7.6270  141.2540   17.7810 C.3   279  LYS279      0.1093
    141  NZ        -6.7860  140.0330   17.7480 N.3   279  LYS279     -0.1314
@<TRIPOS>BOND
     1   111   109   ar
     2   108   109    1
     3   108   105    1
     4   104   105    1
     5   101    99   ar
     6   101   103   ar
     7   109   110   ar
     8    95    94    1
     9    95    96    2
    10    94    93    1
    11    94    97    1
    12    99    98   ar
    13   103   102   ar
    14   105   106    1
    15   106   107    2
    16   130   128   ar
    17   130   131   ar
    18   132   131    1
    19    98   100   ar
    20    98    97    1
    21   102   100   ar
    22   128   126   ar
    23   131   129   ar
    24    77    75    1
    25    76    75    1
    26   126   125    1
    27   126   127   ar
    28   129   127   ar
    29   120   119    1
    30   125   122    1
    31   117   116    1
    32   117   118    1
    33    75    72    1
    34   116   113    1
    35    20    21    1
    36    27    28    1
    37    27    26    1
    38   119   118    1
    39    72    73    1
    40    72    71    1
    41    65    64    2
    42   114   113    1
    43   114   115    2
    44   122   123    1
    45   122   121    1
    46    70    69    2
    47   123   124    2
    48   113   112    1
    49    25    26    1
    50    25    24    1
    51    66    63    1
    52    21    24    1
    53    21    22    1
    54    73    74    2
    55    73    78   am
    56    71    69   am
    57    69    68    1
    58    64    63    1
    59    64    67   am
    60    63    62    1
    61    78    79    1
    62    22    23    2
    63    68    67    1
    64    79    80    1
    65    11     9    1
    66   141   140    1
    67   140   139    1
    68    62    55   am
    69   135   136    2
    70   135   134    1
    71    45    43   ar
    72    45    46   ar
    73    43    42   ar
    74   137   134    1
    75   137   138    1
    76    56    55    2
    77    80    81    2
    78    80    82   am
    79   133   134    1
    80    55    54    1
    81     9     8    2
    82     9    10    1
    83   139   138    1
    84     8     7    1
    85    46    44   ar
    86    42    41    1
    87    42    44   ar
    88    58    59    1
    89    58    57    1
    90    40    39    2
    91    82    83    1
    92    41    38    1
    93    61    59   ar
    94    38    39    1
    95    38    37    1
    96    59    60   ar
    97    54    57    1
    98    54    53    1
    99    35    34   ar
   100    52    51    1
   101     6     7    1
   102     6     5    1
   103    36    34   ar
   104    84    83    1
   105    84    85    2
   106    53    49   am
   107    83    86    1
   108    37    31   am
   109    34    33    1
   110    50    49    2
   111    49    48    1
   112    51    48    1
   113    47    48    1
   114     3     2    1
   115     3     4    2
   116     5     2    1
   117    86    87    1
   118    31    32    2
   119    31    30    1
   120     2     1    1
   121    12    13    1
   122    92    90    1
   123    16    17    1
   124    16    13    1
   125    33    30    1
   126    87    88    1
   127    89    90    2
   128    89    88    1
   129    19    17   ar
   130    30    29    1
   131    17    18   ar
   132    90    91    1
   133    13    14    1
   134    14    15    2
