@<TRIPOS>MOLECULE
tmp/4wu3D00.pdb
 97 93 0 0 0
SMALL
GASTEIGER

@<TRIPOS>ATOM
      1  N         80.3320   13.5200   85.3370 N.3   102  HIS102     -0.1241
      2  CA        80.6850   13.8540   83.9510 C.3   102  HIS102      0.1621
      3  C         81.1760   15.2970   83.7890 C.2   102  HIS102      0.2264
      4  O         81.2730   15.7800   82.6690 O.2   102  HIS102     -0.2867
      5  CB        79.4920   13.6810   83.0170 C.3   102  HIS102      0.0745
      6  CG        78.9910   12.2780   82.9070 C.ar  102  HIS102      0.0817
      7  ND1       79.6000   11.3290   82.1120 N.ar  102  HIS102     -0.2268
      8  CD2       77.9070   11.6750   83.4530 C.ar  102  HIS102      0.1154
      9  CE1       78.9250   10.1940   82.1930 C.ar  102  HIS102      0.1986
     10  NE2       77.8940   10.3780   83.0000 N.ar  102  HIS102     -0.2212
     11  N         92.5800   10.2710   85.9940 N.3   139  LYS139     -0.1231
     12  CA        92.4900    9.0960   85.1450 C.3   139  LYS139      0.1693
     13  C         91.0360    8.6310   85.0300 C.2   139  LYS139      0.2592
     14  O         90.5450    8.3270   83.9420 O.2   139  LYS139     -0.2718
     15  CB        93.3760    7.9750   85.6940 C.3   139  LYS139      0.0285
     16  CG        93.3900    6.7150   84.8390 C.3   139  LYS139      0.0035
     17  CD        94.2540    5.6290   85.4650 C.3   139  LYS139      0.0206
     18  CE        94.3030    4.3820   84.5940 C.3   139  LYS139      0.1093
     19  NZ        95.2370    3.3550   85.1360 N.3   139  LYS139     -0.1314
     20  N         90.3460    8.5950   86.1590 N.am  140  LYS140     -0.1966
     21  CA        88.9780    8.1030   86.1950 C.3   140  LYS140      0.1728
     22  C         87.9660    9.2500   86.2760 C.2   140  LYS140      0.2616
     23  O         86.7660    9.0450   86.1040 O.2   140  LYS140     -0.2715
     24  CB        88.8200    7.1430   87.3780 C.3   140  LYS140      0.0311
     25  CG        89.7820    5.9640   87.3130 C.3   140  LYS140      0.0038
     26  CD        89.7700    5.1190   88.5790 C.3   140  LYS140      0.0206
     27  CE        90.8760    4.0740   88.5390 C.3   140  LYS140      0.1093
     28  NZ        90.8390    3.1550   89.7120 N.3   140  LYS140     -0.1314
     29  N         88.4590   10.4620   86.5140 N.am  141  ASN141     -0.1972
     30  CA        87.5920   11.6230   86.7240 C.3   141  ASN141      0.1688
     31  C         86.5700   11.3570   87.8300 C.2   141  ASN141      0.2292
     32  O         85.3600   11.4430   87.6190 O.2   141  ASN141     -0.2864
     33  CB        86.8790   12.0360   85.4280 C.3   141  ASN141      0.1181
     34  CG        87.7880   12.7710   84.4450 C.2   141  ASN141      0.2629
     35  OD1       87.4880   12.8330   83.2550 O.2   141  ASN141     -0.2716
     36  ND2       88.8820   13.3430   84.9330 N.am  141  ASN141     -0.0877
     37  N         83.0220   17.5430   77.2290 N.3   176  HIS176     -0.1241
     38  CA        82.6320   16.3870   76.4000 C.3   176  HIS176      0.1621
     39  C         81.9390   16.7100   75.0790 C.2   176  HIS176      0.2264
     40  O         81.6810   15.8100   74.3010 O.2   176  HIS176     -0.2867
     41  CB        81.7450   15.4180   77.1850 C.3   176  HIS176      0.0745
     42  CG        82.3330   14.9880   78.4910 C.ar  176  HIS176      0.0817
     43  ND1       83.4760   14.2190   78.5830 N.ar  176  HIS176     -0.2268
     44  CD2       81.9240   15.2110   79.7620 C.ar  176  HIS176      0.1154
     45  CE1       83.7520   14.0000   79.8550 C.ar  176  HIS176      0.1986
     46  NE2       82.8200   14.5810   80.5910 N.ar  176  HIS176     -0.2212
     47  N         92.4360   18.1910   76.5890 N.3   208  MET208     -0.1245
     48  CA        92.2080   17.1270   75.6160 C.3   208  MET208      0.1570
     49  C         91.1240   17.5250   74.6150 C.2   208  MET208      0.2261
     50  O         91.4300   18.1410   73.6010 O.2   208  MET208     -0.2867
     51  CB        91.8870   15.8200   76.3510 C.3   208  MET208      0.0387
     52  CG        93.0690   15.3560   77.1980 C.3   208  MET208      0.0595
     53  SD        92.8810   13.8340   78.1380 S.3   208  MET208     -0.1393
     54  CE        92.6750   12.6710   76.7840 C.3   208  MET208      0.0692
     55  N         85.9620    1.7630   72.7040 N.3   250  LYS250     -0.1231
     56  CA        85.4690    1.9460   74.0680 C.3   250  LYS250      0.1693
     57  C         84.3880    3.0210   74.1870 C.2   250  LYS250      0.2592
     58  O         83.6760    3.0640   75.1870 O.2   250  LYS250     -0.2718
     59  CB        86.6230    2.2610   75.0320 C.3   250  LYS250      0.0285
     60  CG        87.2750    3.6090   74.8090 C.3   250  LYS250      0.0035
     61  CD        88.4970    3.7820   75.6950 C.3   250  LYS250      0.0206
     62  CE        89.2930    5.0110   75.2770 C.3   250  LYS250      0.1093
     63  NZ        90.5620    5.1690   76.0400 N.3   250  LYS250     -0.1314
     64  N         84.2640    3.8890   73.1920 N.am  251  LYS251     -0.1966
     65  CA        83.1840    4.8680   73.1950 C.3   251  LYS251      0.1728
     66  C         81.9290    4.2640   72.5780 C.2   251  LYS251      0.2616
     67  O         81.9420    3.8120   71.4420 O.2   251  LYS251     -0.2715
     68  CB        83.5950    6.1410   72.4510 C.3   251  LYS251      0.0311
     69  CG        84.8030    6.8450   73.0570 C.3   251  LYS251      0.0038
     70  CD        84.5880    7.2290   74.5230 C.3   251  LYS251      0.0206
     71  CE        83.4430    8.2220   74.7050 C.3   251  LYS251      0.1093
     72  NZ        83.4680    8.9250   76.0290 N.3   251  LYS251     -0.1314
     73  N         80.8420    4.2510   73.3400 N.am  252  LYS252     -0.1977
     74  CA        79.6100    3.6120   72.8990 C.3   252  LYS252      0.1596
     75  C         78.3950    4.4990   73.1340 C.2   252  LYS252      0.2287
     76  O         78.4250    5.3850   73.9750 O.2   252  LYS252     -0.2864
     77  CB        79.3960    2.3030   73.6620 C.3   252  LYS252      0.0298
     78  CG        80.4430    1.2300   73.4080 C.3   252  LYS252      0.0038
     79  CD        80.1680    0.0050   74.2770 C.3   252  LYS252      0.0206
     80  CE        81.2390   -1.0660   74.1390 C.3   252  LYS252      0.1093
     81  NZ        81.2440   -1.6640   72.7770 N.3   252  LYS252     -0.1314
     82  N         78.3510    8.5890   74.3670 N.3   255  GLY255     -0.1225
     83  CA        79.7320    9.1020   74.2690 C.3   255  GLY255      0.1811
     84  C         80.2350    9.0510   72.8380 C.2   255  GLY255      0.2280
     85  O         80.9140    9.9600   72.3600 O.2   255  GLY255     -0.2866
     86  N         81.6460   12.0970   70.2330 N.3   259  TYR259     -0.1241
     87  CA        82.9120   12.0840   69.4890 C.3   259  TYR259      0.1605
     88  C         82.6210   12.3390   68.0130 C.2   259  TYR259      0.2264
     89  O         83.3200   13.0960   67.3190 O.2   259  TYR259     -0.2867
     90  CB        83.6570   10.7540   69.6570 C.3   259  TYR259      0.0534
     91  CG        84.5860   10.6760   70.8550 C.ar  259  TYR259     -0.0201
     92  CD1       84.1700   11.0840   72.1060 C.ar  259  TYR259     -0.0009
     93  CD2       85.8580   10.1490   70.7370 C.ar  259  TYR259     -0.0009
     94  CE1       85.0070   11.0000   73.2130 C.ar  259  TYR259      0.0417
     95  CE2       86.7020   10.0470   71.8370 C.ar  259  TYR259      0.0417
     96  CZ        86.2750   10.4870   73.0720 C.ar  259  TYR259      0.1957
     97  OH        87.1000   10.4110   74.1700 O.3   259  TYR259     -0.2866
@<TRIPOS>BOND
     1    89    88    2
     2    88    87    1
     3    87    90    1
     4    87    86    1
     5    90    91    1
     6    93    91   ar
     7    93    95   ar
     8    91    92   ar
     9    67    66    2
    10    95    96   ar
    11    92    94   ar
    12    85    84    2
    13    68    69    1
    14    68    65    1
    15    66    65    1
    16    66    73   am
    17    55    56    1
    18    81    80    1
    19    84    83    1
    20    74    75    1
    21    74    73    1
    22    74    77    1
    23    69    70    1
    24    96    94   ar
    25    96    97    1
    26    75    76    2
    27    64    65    1
    28    64    57   am
    29    78    77    1
    30    78    79    1
    31    50    49    2
    32    56    57    1
    33    56    59    1
    34    80    79    1
    35    57    58    2
    36    83    82    1
    37    40    39    2
    38    70    71    1
    39    49    48    1
    40    71    72    1
    41    60    59    1
    42    60    61    1
    43    39    38    1
    44    62    61    1
    45    62    63    1
    46    48    51    1
    47    48    47    1
    48    51    52    1
    49    38    41    1
    50    38    37    1
    51    54    53    1
    52    41    42    1
    53    52    53    1
    54    42    43   ar
    55    42    44   ar
    56    43    45   ar
    57    44    46   ar
    58    45    46   ar
    59     7     9   ar
    60     7     6   ar
    61     9    10   ar
    62     4     3    2
    63     6     5    1
    64     6     8   ar
    65    10     8   ar
    66     5     2    1
    67    35    34    2
    68     3     2    1
    69    14    13    2
    70     2     1    1
    71    34    36   am
    72    34    33    1
    73    18    19    1
    74    18    17    1
    75    16    17    1
    76    16    15    1
    77    13    12    1
    78    13    20   am
    79    12    15    1
    80    12    11    1
    81    33    30    1
    82    23    22    2
    83    20    21    1
    84    21    22    1
    85    21    24    1
    86    22    29   am
    87    29    30    1
    88    30    31    1
    89    25    24    1
    90    25    26    1
    91    32    31    2
    92    27    26    1
    93    27    28    1
