@<TRIPOS>MOLECULE
tmp/4wu3A01.pdb
 160 152 0 0 0
SMALL
GASTEIGER

@<TRIPOS>ATOM
      1  N         64.4400   52.0290   31.4040 N.3   305  ARG305     -0.1245
      2  CA        64.9300   52.6630   30.2110 C.3   305  ARG305      0.1563
      3  C         65.9580   53.7080   30.5950 C.2   305  ARG305      0.2260
      4  O         65.7660   54.4570   31.5490 O.2   305  ARG305     -0.2867
      5  CB        63.7620   53.3430   29.5150 C.3   305  ARG305      0.0307
      6  CG        64.1440   54.2410   28.3550 C.3   305  ARG305      0.0489
      7  CD        62.9060   54.9270   27.7970 C.3   305  ARG305      0.2205
      8  NE        63.1100   55.4190   26.4380 N.pl3 305  ARG305     -0.0865
      9  CZ        62.1760   56.0390   25.7170 C.cat 305  ARG305      0.5346
     10  NH1       60.9670   56.2510   26.2190 N.pl3 305  ARG305      0.1354
     11  NH2       62.4520   56.4550   24.4890 N.pl3 305  ARG305      0.1354
     12  N         59.6910   51.8810   31.9520 N.3   399  TYR399     -0.1241
     13  CA        59.0740   51.9300   30.6420 C.3   399  TYR399      0.1605
     14  C         58.1110   50.7920   30.4290 C.2   399  TYR399      0.2264
     15  O         58.4940   49.6270   30.5050 O.2   399  TYR399     -0.2867
     16  CB        60.1400   51.8700   29.5440 C.3   399  TYR399      0.0534
     17  CG        59.5740   52.0210   28.1470 C.ar  399  TYR399     -0.0201
     18  CD1       59.3140   53.2780   27.6140 C.ar  399  TYR399     -0.0009
     19  CD2       59.2850   50.9100   27.3720 C.ar  399  TYR399     -0.0009
     20  CE1       58.7920   53.4210   26.3340 C.ar  399  TYR399      0.0417
     21  CE2       58.7480   51.0410   26.1010 C.ar  399  TYR399      0.0417
     22  CZ        58.5050   52.2960   25.5880 C.ar  399  TYR399      0.1957
     23  OH        57.9810   52.4170   24.3270 O.3   399  TYR399     -0.2866
     24  N         54.1050   51.7220   24.8890 N.3   402  ARG402     -0.1231
     25  CA        53.7470   53.1180   24.5670 C.3   402  ARG402      0.1694
     26  C         54.1760   54.1570   25.6150 C.2   402  ARG402      0.2592
     27  O         53.6860   55.2880   25.6170 O.2   402  ARG402     -0.2718
     28  CB        52.2440   53.2470   24.3280 C.3   402  ARG402      0.0321
     29  CG        51.7880   52.7270   22.9780 C.3   402  ARG402      0.0489
     30  CD        50.2850   52.8710   22.8380 C.3   402  ARG402      0.2205
     31  NE        49.7780   52.1440   21.6820 N.pl3 402  ARG402     -0.0865
     32  CZ        48.5130   52.1720   21.2780 C.cat 402  ARG402      0.5346
     33  NH1       47.6170   52.9020   21.9340 N.pl3 402  ARG402      0.1354
     34  NH2       48.1540   51.4820   20.2050 N.pl3 402  ARG402      0.1354
     35  N         55.1020   53.7860   26.4880 N.am  403  ASP403     -0.1974
     36  CA        55.4820   54.6340   27.6240 C.3   403  ASP403      0.1709
     37  C         54.2850   55.0170   28.5210 C.2   403  ASP403      0.2293
     38  O         54.2300   56.1190   29.0740 O.2   403  ASP403     -0.2864
     39  CB        56.2160   55.8920   27.1350 C.3   403  ASP403      0.1436
     40  CG        56.9810   56.5940   28.2590 C.2   403  ASP403      0.3671
     41  OD1       57.3020   55.9220   29.2600 O.co2 403  ASP403     -0.2456
     42  OD2       57.2420   57.8150   28.1540 O.co2 403  ASP403     -0.2456
     43  N         64.5690   52.2790   17.8110 N.3   437  LYS437     -0.1245
     44  CA        63.3900   52.7510   17.0960 C.3   437  LYS437      0.1561
     45  C         62.1650   51.8540   17.3390 C.2   437  LYS437      0.2260
     46  O         61.0220   52.3200   17.2780 O.2   437  LYS437     -0.2867
     47  CB        63.7070   52.8520   15.5970 C.3   437  LYS437      0.0271
     48  CG        62.5270   53.2430   14.7140 C.3   437  LYS437      0.0035
     49  CD        61.9280   54.5850   15.1150 C.3   437  LYS437      0.0206
     50  CE        60.7560   54.9600   14.2170 C.3   437  LYS437      0.1093
     51  NZ        59.9990   56.1420   14.7220 N.3   437  LYS437     -0.1314
     52  N         61.6270   50.2720   20.1710 N.3   439  LYS439     -0.1245
     53  CA        61.4270   50.2100   21.6150 C.3   439  LYS439      0.1561
     54  C         61.9750   48.9150   22.1940 C.2   439  LYS439      0.2260
     55  O         61.4810   48.4130   23.2120 O.2   439  LYS439     -0.2867
     56  CB        59.9400   50.3250   21.9710 C.3   439  LYS439      0.0271
     57  CG        59.2370   51.5440   21.4080 C.3   439  LYS439      0.0035
     58  CD        59.8830   52.8470   21.8590 C.3   439  LYS439      0.0206
     59  CE        59.2320   54.0190   21.1350 C.3   439  LYS439      0.1093
     60  NZ        60.0250   55.2750   21.2010 N.3   439  LYS439     -0.1314
     61  N         52.2140   60.4220   28.1550 N.3   473  ASP473     -0.1225
     62  CA        53.0150   60.5470   26.9490 C.3   473  ASP473      0.1805
     63  C         52.1750   60.3140   25.6830 C.2   473  ASP473      0.2597
     64  O         51.2370   59.5130   25.6840 O.2   473  ASP473     -0.2718
     65  CB        54.1750   59.5510   27.0070 C.3   473  ASP473      0.1424
     66  CG        55.2120   59.7970   25.9430 C.2   473  ASP473      0.3668
     67  OD1       55.0860   60.7740   25.1750 O.co2 473  ASP473     -0.2456
     68  OD2       56.1620   58.9980   25.8810 O.co2 473  ASP473     -0.2456
     69  N         52.5240   61.0450   24.6240 N.am  474  HIS474     -0.1975
     70  CA        51.9010   60.9410   23.2980 C.3   474  HIS474      0.1656
     71  C         50.5550   61.6520   23.1440 C.2   474  HIS474      0.2291
     72  O         50.0720   61.7850   22.0270 O.2   474  HIS474     -0.2864
     73  CB        51.7390   59.4810   22.8560 C.3   474  HIS474      0.0771
     74  CG        52.9890   58.6730   22.9710 C.ar  474  HIS474      0.0820
     75  ND1       54.0740   58.8570   22.1420 N.ar  474  HIS474     -0.2267
     76  CD2       53.3330   57.6810   23.8260 C.ar  474  HIS474      0.1154
     77  CE1       55.0340   58.0140   22.4800 C.ar  474  HIS474      0.1986
     78  NE2       54.6100   57.2880   23.5010 N.ar  474  HIS474     -0.2212
     79  N         59.9720   66.9050   29.3220 N.3   502  SER502     -0.1202
     80  CA        59.2550   65.6520   29.3760 C.3   502  SER502      0.2020
     81  C         60.3100   64.5930   29.0980 C.2   502  SER502      0.2619
     82  O         61.3960   64.6640   29.6730 O.2   502  SER502     -0.2717
     83  CB        58.1060   65.6450   28.3700 C.3   502  SER502      0.2103
     84  OG        58.4790   66.3420   27.2000 O.3   502  SER502     -0.2182
     85  N         60.0250   63.6190   28.2420 N.am  503  GLN503     -0.1965
     86  CA        61.0080   62.5690   27.9600 C.3   503  GLN503      0.1733
     87  C         61.9610   63.0770   26.9010 C.2   503  GLN503      0.2616
     88  O         63.1690   63.0670   27.0960 O.2   503  GLN503     -0.2715
     89  CB        60.3310   61.2650   27.4920 C.3   503  GLN503      0.0408
     90  CG        61.2070   60.0180   27.5880 C.3   503  GLN503      0.0908
     91  CD        62.2150   59.8760   26.4550 C.2   503  GLN503      0.2608
     92  OE1       61.9950   60.3500   25.3470 O.2   503  GLN503     -0.2717
     93  NE2       63.3180   59.1960   26.7300 N.am  503  GLN503     -0.0878
     94  N         61.3980   63.5480   25.7930 N.am  504  ALA504     -0.1963
     95  CA        62.1880   63.9890   24.6430 C.3   504  ALA504      0.1728
     96  C         62.1890   65.5000   24.4270 C.2   504  ALA504      0.2617
     97  O         62.8560   65.9990   23.5280 O.2   504  ALA504     -0.2715
     98  CB        61.6770   63.3040   23.3890 C.3   504  ALA504      0.0334
     99  N         61.4370   66.2340   25.2320 N.am  505  GLY505     -0.1940
    100  CA        61.3330   67.6740   25.0290 C.3   505  GLY505      0.2014
    101  C         60.6080   67.9980   23.7370 C.2   505  GLY505      0.2639
    102  O         60.8630   69.0280   23.1230 O.2   505  GLY505     -0.2714
    103  N         59.7010   67.1190   23.3180 N.am  506  ALA506     -0.1963
    104  CA        58.9480   67.3230   22.0770 C.3   506  ALA506      0.1728
    105  C         57.4570   67.5280   22.3390 C.2   506  ALA506      0.2617
    106  O         57.0170   68.6620   22.5750 O.2   506  ALA506     -0.2715
    107  CB        59.1710   66.1580   21.1200 C.3   506  ALA506      0.0334
    108  N         56.6960   66.4310   22.3260 N.am  507  GLY507     -0.1940
    109  CA        55.2310   66.4620   22.4320 C.3   507  GLY507      0.2014
    110  C         54.6540   67.2340   23.6060 C.2   507  GLY507      0.2638
    111  O         54.0490   68.3030   23.4430 O.2   507  GLY507     -0.2714
    112  N         54.8210   66.6810   24.7990 N.am  508  ARG508     -0.1977
    113  CA        54.3120   67.3120   26.0040 C.3   508  ARG508      0.1597
    114  C         54.9660   68.6610   26.3010 C.2   508  ARG508      0.2287
    115  O         54.2800   69.6230   26.6310 O.2   508  ARG508     -0.2864
    116  CB        54.4800   66.3670   27.1810 C.3   508  ARG508      0.0334
    117  CG        53.5120   65.1960   27.1280 C.3   508  ARG508      0.0492
    118  CD        53.8720   64.1410   28.1560 C.3   508  ARG508      0.2205
    119  NE        55.1180   63.4760   27.7890 N.pl3 508  ARG508     -0.0865
    120  CZ        55.6840   62.5050   28.4950 C.cat 508  ARG508      0.5346
    121  NH1       55.1080   62.0770   29.6130 N.pl3 508  ARG508      0.1354
    122  NH2       56.8210   61.9470   28.0760 N.pl3 508  ARG508      0.1354
    123  N         58.4750   70.5460   18.6710 N.3   539  ASN539     -0.1240
    124  CA        57.8190   70.0330   17.4800 C.3   539  ASN539      0.1653
    125  C         56.7020   70.9970   17.1410 C.2   539  ASN539      0.2266
    126  O         56.6150   72.0680   17.7610 O.2   539  ASN539     -0.2867
    127  CB        57.3340   68.5870   17.6420 C.3   539  ASN539      0.1155
    128  CG        56.2490   68.4190   18.6900 C.2   539  ASN539      0.2627
    129  OD1       55.6270   69.3800   19.1340 O.2   539  ASN539     -0.2716
    130  ND2       56.0170   67.1720   19.0900 N.am  539  ASN539     -0.0877
    131  N         49.3270   56.6940   16.4070 N.3   554  LYS554     -0.1245
    132  CA        49.3430   58.0490   16.9420 C.3   554  LYS554      0.1561
    133  C         48.4450   58.9940   16.1740 C.2   554  LYS554      0.2260
    134  O         48.2300   60.1190   16.6090 O.2   554  LYS554     -0.2867
    135  CB        50.7600   58.6200   16.9400 C.3   554  LYS554      0.0271
    136  CG        51.7000   57.9470   17.9220 C.3   554  LYS554      0.0035
    137  CD        53.1110   58.4930   17.7890 C.3   554  LYS554      0.0206
    138  CE        54.0980   57.6650   18.5940 C.3   554  LYS554      0.1093
    139  NZ        55.4890   58.1990   18.5000 N.3   554  LYS554     -0.1314
    140  N         47.5190   62.7330   17.4580 N.3   558  TYR558     -0.1241
    141  CA        47.9640   63.9520   16.7820 C.3   558  TYR558      0.1605
    142  C         46.7680   64.8060   16.3780 C.2   558  TYR558      0.2264
    143  O         46.7840   66.0250   16.5200 O.2   558  TYR558     -0.2867
    144  CB        48.7370   63.6190   15.5130 C.3   558  TYR558      0.0534
    145  CG        50.1270   63.0680   15.7200 C.ar  558  TYR558     -0.0201
    146  CD1       50.9780   63.6020   16.6790 C.ar  558  TYR558     -0.0009
    147  CD2       50.6130   62.0460   14.9100 C.ar  558  TYR558     -0.0009
    148  CE1       52.2640   63.1090   16.8470 C.ar  558  TYR558      0.0417
    149  CE2       51.8990   61.5470   15.0730 C.ar  558  TYR558      0.0417
    150  CZ        52.7190   62.0770   16.0440 C.ar  558  TYR558      0.1957
    151  OH        54.0020   61.5860   16.2010 O.3   558  TYR558     -0.2866
    152  N         45.3910   66.5850   19.2250 N.3   561  LYS561     -0.1245
    153  CA        46.2250   67.7170   19.6140 C.3   561  LYS561      0.1561
    154  C         45.9870   68.9070   18.6990 C.2   561  LYS561      0.2260
    155  O         45.8650   70.0410   19.1510 O.2   561  LYS561     -0.2867
    156  CB        47.7070   67.3520   19.5930 C.3   561  LYS561      0.0271
    157  CG        48.1620   66.4760   20.7450 C.3   561  LYS561      0.0035
    158  CD        49.6370   66.1620   20.5710 C.3   561  LYS561      0.0206
    159  CE        50.1880   65.3080   21.6860 C.3   561  LYS561      0.1093
    160  NZ        51.5620   64.8740   21.3150 N.3   561  LYS561     -0.1314
@<TRIPOS>BOND
     1    50    51    1
     2    50    49    1
     3    48    49    1
     4    48    47    1
     5   147   149   ar
     6   147   145   ar
     7   149   150   ar
     8   144   145    1
     9   144   141    1
    10    47    44    1
    11   145   146   ar
    12   150   151    1
    13   150   148   ar
    14   133   134    2
    15   133   132    1
    16   142   143    2
    17   142   141    1
    18   131   132    1
    19   146   148   ar
    20   141   140    1
    21   135   132    1
    22   135   136    1
    23    44    45    1
    24    44    43    1
    25   125   124    1
    26   125   126    2
    27    46    45    2
    28   124   127    1
    29   124   123    1
    30   127   128    1
    31   137   136    1
    32   137   138    1
    33   139   138    1
    34   128   130   am
    35   128   129    2
    36   154   155    2
    37   154   153    1
    38   152   153    1
    39   156   153    1
    40   156   157    1
    41    52    53    1
    42    34    32    1
    43   158   157    1
    44   158   159    1
    45   107   104    1
    46    59    60    1
    47    59    58    1
    48    32    31    2
    49    32    33    1
    50   160   159    1
    51    57    58    1
    52    57    56    1
    53    53    56    1
    54    53    54    1
    55    31    30    1
    56    72    71    2
    57   104   105    1
    58   104   103    1
    59    75    77   ar
    60    75    74   ar
    61    54    55    2
    62   108   105   am
    63   108   109    1
    64   105   106    2
    65   109   110    1
    66    77    78   ar
    67    30    29    1
    68    73    74    1
    69    73    70    1
    70    74    76   ar
    71    29    28    1
    72   102   101    2
    73    71    70    1
    74    70    69    1
    75   103   101   am
    76    98    95    1
    77   111   110    2
    78    78    76   ar
    79    97    96    2
    80   110   112   am
    81   101   100    1
    82    23    22    1
    83    28    25    1
    84    96    95    1
    85    96    99   am
    86    11     9    1
    87    25    24    1
    88    25    26    1
    89    69    63   am
    90    95    94    1
    91   112   113    1
    92   100    99    1
    93    67    66   ar
    94    92    91    2
    95    22    21   ar
    96    22    20   ar
    97    26    27    2
    98    26    35   am
    99    63    64    2
   100    63    62    1
   101     9    10    1
   102     9     8    2
   103    94    87   am
   104    68    66   ar
   105    66    65    1
   106   113   114    1
   107   113   116    1
   108    21    19   ar
   109   114   115    2
   110    20    18   ar
   111     8     7    1
   112    91    93   am
   113    91    90    1
   114    35    36    1
   115    87    88    2
   116    87    86    1
   117    62    65    1
   118    62    61    1
   119   117   116    1
   120   117   118    1
   121    39    36    1
   122    39    40    1
   123    84    83    1
   124    19    17   ar
   125    89    90    1
   126    89    86    1
   127    18    17   ar
   128    36    37    1
   129   119   118    1
   130   119   120    2
   131     7     6    1
   132    86    85    1
   133   122   120    1
   134    17    16    1
   135    42    40   ar
   136    85    81   am
   137    40    41   ar
   138     6     5    1
   139    83    80    1
   140   120   121    1
   141    37    38    2
   142    81    80    1
   143    81    82    2
   144    79    80    1
   145     5     2    1
   146    16    13    1
   147     2     3    1
   148     2     1    1
   149    14    15    2
   150    14    13    1
   151     3     4    2
   152    13    12    1
