@<TRIPOS>MOLECULE
tmp/4wuiA00.pdb
 88 82 0 0 0
SMALL
GASTEIGER

@<TRIPOS>ATOM
      1  N         43.1340    9.3130   46.3640 N.3     7  CYS7       -0.1235
      2  CA        42.9250    7.8760   46.3260 C.3     7  CYS7        0.1677
      3  C         43.0750    7.2550   47.6980 C.2     7  CYS7        0.2270
      4  O         43.8340    7.7200   48.5230 O.2     7  CYS7       -0.2867
      5  CB        43.9060    7.2230   45.3500 C.3     7  CYS7        0.0956
      6  SG        43.3370    5.5770   44.8470 S.3     7  CYS7       -0.0801
      7  N         45.0380    0.5170   52.7410 N.3    36  ARG36      -0.1245
      8  CA        43.8370    1.2770   52.4200 C.3    36  ARG36       0.1563
      9  C         42.6510    0.3820   52.0660 C.2    36  ARG36       0.2260
     10  O         41.5950    0.8860   51.6970 O.2    36  ARG36      -0.2867
     11  CB        44.1460    2.2880   51.3000 C.3    36  ARG36       0.0307
     12  CG        45.2090    3.2830   51.6980 C.3    36  ARG36       0.0489
     13  CD        46.4680    3.1480   50.9180 C.3    36  ARG36       0.2205
     14  NE        47.5230    3.9910   51.4380 N.pl3  36  ARG36      -0.0865
     15  CZ        48.7950    3.6540   51.3980 C.cat  36  ARG36       0.5346
     16  NH1       49.1930    2.5490   50.7890 N.pl3  36  ARG36       0.1354
     17  NH2       49.6710    4.4320   51.9800 N.pl3  36  ARG36       0.1354
     18  N         46.5150    6.1490   34.2430 N.3   124  LEU124     -0.1245
     19  CA        47.1780    6.6880   35.4120 C.3   124  LEU124      0.1561
     20  C         48.6250    6.1950   35.3190 C.2   124  LEU124      0.2260
     21  O         48.8670    4.9780   35.2450 O.2   124  LEU124     -0.2867
     22  CB        46.4410    6.2510   36.6660 C.3   124  LEU124      0.0270
     23  CG        47.0240    6.7930   37.9580 C.3   124  LEU124      0.0019
     24  CD1       45.9360    6.8160   39.0010 C.3   124  LEU124      0.0001
     25  CD2       48.1450    5.9120   38.4270 C.3   124  LEU124      0.0001
     26  N         52.2900    6.1670   37.0450 N.3   126  ASP126     -0.1239
     27  CA        52.9770    6.3590   38.3280 C.3   126  ASP126      0.1674
     28  C         54.4720    6.3880   38.1030 C.2   126  ASP126      0.2266
     29  O         55.0750    5.4410   37.5410 O.2   126  ASP126     -0.2867
     30  CB        52.6070    5.2430   39.3040 C.3   126  ASP126      0.1410
     31  CG        53.0670    5.5000   40.7400 C.2   126  ASP126      0.3668
     32  OD1       52.9790    6.6460   41.2050 O.co2 126  ASP126     -0.2456
     33  OD2       53.4770    4.5390   41.4190 O.co2 126  ASP126     -0.2456
     34  N         57.0800    6.9710   40.6550 N.3   128  PRO128     -0.2116
     35  CA        57.4090    7.1010   42.0830 C.3   128  PRO128      0.1372
     36  C         58.7680    7.7050   42.4090 C.2   128  PRO128      0.2244
     37  O         58.8950    8.2500   43.5190 O.2   128  PRO128     -0.2868
     38  CB        57.3150    5.6560   42.5860 C.3   128  PRO128      0.0268
     39  CG        57.4760    4.8320   41.4140 C.3   128  PRO128      0.0207
     40  CD        56.7990    5.5650   40.3180 C.3   128  PRO128      0.0892
     41  N         50.8450   10.2630   38.8900 N.3   153  ALA153     -0.1231
     42  CA        51.0670    9.8770   40.2680 C.3   153  ALA153      0.1694
     43  C         52.5510    9.6800   40.4780 C.2   153  ALA153      0.2593
     44  O         53.3140    9.4780   39.5200 O.2   153  ALA153     -0.2718
     45  CB        50.3170    8.6130   40.6040 C.3   153  ALA153      0.0304
     46  N         52.9970    9.7200   41.7190 N.am  154  GLY154     -0.1942
     47  CA        54.3550    9.3220   42.0460 C.3   154  GLY154      0.2014
     48  C         54.8160    9.9940   43.3090 C.2   154  GLY154      0.2639
     49  O         55.7050   10.8580   43.2860 O.2   154  GLY154     -0.2714
     50  N         54.2290    9.6150   44.4400 N.am  155  GLY155     -0.1939
     51  CA        54.6400   10.2290   45.6630 C.3   155  GLY155      0.2014
     52  C         54.3650   11.7240   45.6850 C.2   155  GLY155      0.2638
     53  O         55.1190   12.4910   46.2780 O.2   155  GLY155     -0.2714
     54  N         53.2800   12.1630   45.0600 N.am  156  LEU156     -0.1977
     55  CA        52.9180   13.5700   45.1300 C.3   156  LEU156      0.1596
     56  C         52.5340   13.9290   46.5570 C.2   156  LEU156      0.2287
     57  O         51.8790   13.1650   47.2740 O.2   156  LEU156     -0.2864
     58  CB        51.7900   13.8890   44.1620 C.3   156  LEU156      0.0297
     59  CG        52.1290   13.6960   42.6760 C.3   156  LEU156      0.0022
     60  CD1       50.8870   13.9850   41.8360 C.3   156  LEU156      0.0001
     61  CD2       53.2790   14.6080   42.2370 C.3   156  LEU156      0.0001
     62  N         46.9580   12.3260   40.7980 N.3   174  ASP174     -0.1225
     63  CA        46.4410   11.3590   41.7630 C.3   174  ASP174      0.1805
     64  C         47.3580   11.3810   42.9720 C.2   174  ASP174      0.2598
     65  O         48.5800   11.3370   42.8170 O.2   174  ASP174     -0.2718
     66  CB        46.4580    9.9660   41.1140 C.3   174  ASP174      0.1424
     67  CG        45.7070    8.9060   41.9060 C.2   174  ASP174      0.3668
     68  OD1       44.4720    8.9870   41.9620 O.co2 174  ASP174     -0.2456
     69  OD2       46.3280    7.9750   42.4370 O.co2 174  ASP174     -0.2456
     70  N         46.7690   11.4130   44.1680 N.am  175  VAL175     -0.1966
     71  CA        47.5370   11.4870   45.4160 C.3   175  VAL175      0.1727
     72  C         46.9260   10.5310   46.4210 C.2   175  VAL175      0.2617
     73  O         45.7240   10.3740   46.4960 O.2   175  VAL175     -0.2715
     74  CB        47.5530   12.9570   45.9580 C.3   175  VAL175      0.0290
     75  CG1       46.1880   13.4700   46.3130 C.3   175  VAL175      0.0023
     76  CG2       48.5330   13.1540   47.1160 C.3   175  VAL175      0.0023
     77  N         47.7850    9.9310   47.2480 N.am  176  SER176     -0.1936
     78  CA        47.3510    9.0180   48.2940 C.3   176  SER176      0.2055
     79  C         48.2680    9.1500   49.5150 C.2   176  SER176      0.2643
     80  O         47.8940    9.7980   50.4890 O.2   176  SER176     -0.2714
     81  CB        47.2640    7.5850   47.8050 C.3   176  SER176      0.2130
     82  OG        46.8400    6.7750   48.9050 O.3   176  SER176     -0.2179
     83  N         49.4480    8.5500   49.4740 N.am  177  SER177     -0.1949
     84  CA        50.2990    8.5630   50.6550 C.3   177  SER177      0.1924
     85  C         50.6680    9.9720   51.0960 C.2   177  SER177      0.2314
     86  O         50.8360   10.2330   52.2830 O.2   177  SER177     -0.2863
     87  CB        51.5360    7.7100   50.4220 C.3   177  SER177      0.2116
     88  OG        52.3230    8.1860   49.3740 O.3   177  SER177     -0.2180
@<TRIPOS>BOND
     1    18    19    1
     2    21    20    2
     3    20    19    1
     4    19    22    1
     5    22    23    1
     6    26    27    1
     7    29    28    2
     8    23    25    1
     9    23    24    1
    10    28    27    1
    11    27    30    1
    12    41    42    1
    13    30    31    1
    14    44    43    2
    15    42    43    1
    16    42    45    1
    17    40    34    1
    18    40    39    1
    19    43    46   am
    20    34    35    1
    21    31    32   ar
    22    31    33   ar
    23    62    63    1
    24    66    63    1
    25    66    67    1
    26    39    38    1
    27    46    47    1
    28    63    64    1
    29    60    59    1
    30    67    68   ar
    31    67    69   ar
    32    47    48    1
    33    35    36    1
    34    35    38    1
    35    61    59    1
    36    36    37    2
    37    59    58    1
    38    65    64    2
    39    64    70   am
    40    49    48    2
    41    48    50   am
    42    58    55    1
    43    70    71    1
    44    50    51    1
    45     6     5    1
    46    54    55    1
    47    54    52   am
    48    55    56    1
    49     5     2    1
    50    71    74    1
    51    71    72    1
    52    51    52    1
    53    52    53    2
    54    74    75    1
    55    74    76    1
    56     2     1    1
    57     2     3    1
    58    72    73    2
    59    72    77   am
    60    56    57    2
    61    77    78    1
    62     3     4    2
    63    81    78    1
    64    81    82    1
    65    78    79    1
    66    88    87    1
    67    83    79   am
    68    83    84    1
    69    79    80    2
    70    87    84    1
    71    84    85    1
    72    16    15    1
    73    13    14    1
    74    13    12    1
    75    85    86    2
    76    11    12    1
    77    11     8    1
    78    15    14    2
    79    15    17    1
    80    10     9    2
    81     9     8    1
    82     8     7    1
