@<TRIPOS>MOLECULE
tmp/4wujC00.pdb
 166 150 0 0 0
SMALL
GASTEIGER

@<TRIPOS>ATOM
      1  N         40.6360   32.0040   30.3840 N.3    40  THR40      -0.1218
      2  CA        41.1520   33.3410   30.1580 C.3    40  THR40       0.1862
      3  C         41.5380   33.9350   31.5070 C.2    40  THR40       0.2287
      4  O         40.9770   33.6050   32.5640 O.2    40  THR40      -0.2866
      5  CB        40.1460   34.2790   29.4080 C.3    40  THR40       0.1770
      6  OG1       39.0030   34.5420   30.2360 O.3    40  THR40      -0.2211
      7  CG2       39.6870   33.6600   28.1150 C.3    40  THR40       0.0375
      8  N         42.2210   37.8090   32.9710 N.3    42  CYS42      -0.1235
      9  CA        42.0020   39.2210   32.6440 C.3    42  CYS42       0.1677
     10  C         42.4980   40.0780   33.7780 C.2    42  CYS42       0.2270
     11  O         42.2960   39.7410   34.9390 O.2    42  CYS42      -0.2867
     12  CB        40.5310   39.4900   32.3900 C.3    42  CYS42       0.0956
     13  SG        39.8740   38.6600   30.9120 S.3    42  CYS42      -0.0801
     14  N         41.7040   42.9730   35.6450 N.3    44  ILE44      -0.1245
     15  CA        40.6010   43.9150   35.7990 C.3    44  ILE44       0.1561
     16  C         40.9920   45.3080   36.4270 C.2    44  ILE44       0.2260
     17  O         40.1600   46.2100   36.4940 O.2    44  ILE44      -0.2867
     18  CB        39.4350   43.2690   36.5470 C.3    44  ILE44       0.0252
     19  CG1       39.8360   42.9770   37.9770 C.3    44  ILE44       0.0019
     20  CG2       38.9710   41.9410   35.8310 C.3    44  ILE44       0.0019
     21  CD1       38.6640   42.9630   38.9030 C.3    44  ILE44       0.0001
     22  N         39.3690   45.5620   31.3590 N.3    49  ALA49      -0.1245
     23  CA        39.6260   44.1730   31.7340 C.3    49  ALA49       0.1562
     24  C         40.2390   43.3200   30.6250 C.2    49  ALA49       0.2260
     25  O         39.6700   42.2850   30.2640 O.2    49  ALA49      -0.2867
     26  CB        38.2790   43.5120   32.2180 C.3    49  ALA49       0.0290
     27  N         38.7750   42.8530   25.7230 N.3    73  ASN73      -0.1225
     28  CA        37.7490   42.4280   26.6800 C.3    73  ASN73       0.1785
     29  C         37.0650   41.2090   26.1210 C.2    73  ASN73       0.2597
     30  O         36.9130   41.0800   24.9020 O.2    73  ASN73      -0.2718
     31  CB        36.7080   43.5170   26.9160 C.3    73  ASN73       0.1169
     32  CG        35.7340   43.1690   28.0130 C.2    73  ASN73       0.2627
     33  OD1       34.8220   42.3980   27.8030 O.2    73  ASN73      -0.2716
     34  ND2       35.9240   43.7480   29.1970 N.am   73  ASN73      -0.0877
     35  N         36.6680   40.3200   27.0210 N.am   74  CYS74      -0.1956
     36  CA        36.0250   39.0520   26.6560 C.3    74  CYS74       0.1843
     37  C         34.6440   39.1550   25.9860 C.2    74  CYS74       0.2625
     38  O         34.1220   38.1380   25.4640 O.2    74  CYS74      -0.2714
     39  CB        35.9040   38.2070   27.8970 C.3    74  CYS74       0.0997
     40  SG        37.4780   37.3950   28.3390 S.3    74  CYS74      -0.0797
     41  N         34.0440   40.3520   25.9810 N.am   75  ARG75      -0.1977
     42  CA        32.6480   40.4660   25.5180 C.3    75  ARG75       0.1597
     43  C         32.5510   40.2410   23.9920 C.2    75  ARG75       0.2287
     44  O         31.4720   39.9960   23.4680 O.2    75  ARG75      -0.2864
     45  CB        32.0140   41.8350   25.8980 C.3    75  ARG75       0.0334
     46  CG        32.6170   42.9570   25.0590 C.3    75  ARG75       0.0492
     47  CD        31.9290   44.3270   25.2850 C.3    75  ARG75       0.2205
     48  NE        32.0760   44.7430   26.6730 N.pl3  75  ARG75      -0.0865
     49  CZ        33.1010   45.4380   27.1390 C.cat  75  ARG75       0.5346
     50  NH1       34.1070   45.7620   26.3430 N.pl3  75  ARG75       0.1354
     51  NH2       33.1360   45.7600   28.4150 N.pl3  75  ARG75       0.1354
     52  N         32.9840   37.8300   22.5790 N.3    77  LEU77      -0.1231
     53  CA        32.4610   36.4800   22.4260 C.3    77  LEU77       0.1693
     54  C         30.9460   36.4710   22.3250 C.2    77  LEU77       0.2591
     55  O         30.3270   35.4890   21.9030 O.2    77  LEU77      -0.2718
     56  CB        32.9010   35.6090   23.6090 C.3    77  LEU77       0.0284
     57  CG        34.3920   35.2260   23.6900 C.3    77  LEU77       0.0019
     58  CD1       34.6660   34.5600   25.0170 C.3    77  LEU77       0.0001
     59  CD2       34.7540   34.3040   22.5500 C.3    77  LEU77       0.0001
     60  N         30.3300   37.5630   22.7380 N.am   78  GLN78      -0.1979
     61  CA        28.8790   37.6700   22.6390 C.3    78  GLN78       0.1601
     62  C         28.4630   38.1290   21.2450 C.2    78  GLN78       0.2287
     63  O         27.2800   38.1970   20.9500 O.2    78  GLN78      -0.2864
     64  CB        28.3460   38.6310   23.6950 C.3    78  GLN78       0.0394
     65  CG        28.4130   38.1120   25.0900 C.3    78  GLN78       0.0908
     66  CD        28.6130   39.2390   26.1080 C.2    78  GLN78       0.2608
     67  OE1       28.1590   40.3640   25.8960 O.2    78  GLN78      -0.2717
     68  NE2       29.2880   38.9340   27.2220 N.am   78  GLN78      -0.0878
     69  N         24.9230   38.5670   30.9810 N.3    93  VAL93      -0.1245
     70  CA        25.7990   39.7240   30.8710 C.3    93  VAL93       0.1561
     71  C         25.8380   40.6000   32.1340 C.2    93  VAL93       0.2260
     72  O         26.9490   40.8690   32.6380 O.2    93  VAL93      -0.2867
     73  CB        25.4520   40.5670   29.6180 C.3    93  VAL93       0.0252
     74  CG1       26.2870   41.8360   29.5580 C.3    93  VAL93       0.0019
     75  CG2       25.6770   39.7400   28.3800 C.3    93  VAL93       0.0019
     76  N         27.3180   38.7300   35.1200 N.3    96  MET96      -0.1230
     77  CA        28.7810   38.7030   35.0250 C.3    96  MET96       0.1702
     78  C         29.3400   40.0920   35.4080 C.2    96  MET96       0.2592
     79  O         30.2340   40.2060   36.2420 O.2    96  MET96      -0.2718
     80  CB        29.2180   38.3130   33.6210 C.3    96  MET96       0.0401
     81  CG        29.1400   36.8030   33.3570 C.3    96  MET96       0.0596
     82  SD        29.7930   36.2730   31.7610 S.3    96  MET96      -0.1393
     83  CE        28.7890   37.1600   30.5980 C.3    96  MET96       0.0692
     84  N         28.7180   41.1430   34.8600 N.am   97  ARG97      -0.1980
     85  CA        29.1670   42.5070   35.0680 C.3    97  ARG97       0.1597
     86  C         29.2110   42.8630   36.5360 C.2    97  ARG97       0.2287
     87  O         30.1950   43.4600   37.0290 O.2    97  ARG97      -0.2864
     88  CB        28.2640   43.4800   34.3180 C.3    97  ARG97       0.0334
     89  CG        28.7360   44.8980   34.4260 C.3    97  ARG97       0.0492
     90  CD        28.0590   45.8390   33.4550 C.3    97  ARG97       0.2205
     91  NE        26.6320   45.8970   33.7110 N.pl3  97  ARG97      -0.0865
     92  CZ        25.6930   45.4780   32.8720 C.cat  97  ARG97       0.5346
     93  NH1       26.0050   45.0020   31.6730 N.pl3  97  ARG97       0.1354
     94  NH2       24.4250   45.5670   33.2300 N.pl3  97  ARG97       0.1354
     95  N         31.7050   40.6420   38.5930 N.3   100  ILE100     -0.1245
     96  CA        33.0980   41.0580   38.3560 C.3   100  ILE100      0.1561
     97  C         33.3790   42.2640   39.2320 C.2   100  ILE100      0.2260
     98  O         34.4070   42.3280   39.9190 O.2   100  ILE100     -0.2867
     99  CB        33.3320   41.4150   36.8830 C.3   100  ILE100      0.0252
    100  CG1       33.4290   40.1420   36.0420 C.3   100  ILE100      0.0019
    101  CG2       34.5910   42.2740   36.7350 C.3   100  ILE100      0.0019
    102  CD1       33.3210   40.3730   34.5570 C.3   100  ILE100      0.0001
    103  N         25.4150   31.3100   28.8220 N.3   110  ILE110     -0.1245
    104  CA        25.1710   32.4360   27.9750 C.3   110  ILE110      0.1561
    105  C         25.5340   32.0350   26.5940 C.2   110  ILE110      0.2260
    106  O         26.3830   31.1580   26.4190 O.2   110  ILE110     -0.2867
    107  CB        26.0980   33.6680   28.4180 C.3   110  ILE110      0.0252
    108  CG1       25.9820   34.8340   27.4500 C.3   110  ILE110      0.0019
    109  CG2       27.5860   33.2540   28.5460 C.3   110  ILE110      0.0019
    110  CD1       26.7720   36.0660   27.9130 C.3   110  ILE110      0.0001
    111  N         27.5850   32.4680   23.3660 N.3   112  ASN112     -0.1240
    112  CA        28.6490   33.1120   22.6070 C.3   112  ASN112      0.1653
    113  C         28.7730   32.5800   21.1930 C.2   112  ASN112      0.2266
    114  O         28.0830   31.6350   20.7780 O.2   112  ASN112     -0.2867
    115  CB        30.0210   33.0060   23.3130 C.3   112  ASN112      0.1155
    116  CG        30.0150   33.6100   24.7000 C.2   112  ASN112      0.2627
    117  OD1       30.7920   33.1870   25.5570 O.2   112  ASN112     -0.2716
    118  ND2       29.1170   34.5800   24.9440 N.am  112  ASN112     -0.0877
    119  N         27.8530   28.5770   26.2380 N.3   122  ASN122     -0.1240
    120  CA        29.0960   28.5780   26.9660 C.3   122  ASN122      0.1653
    121  C         28.7970   28.5680   28.4500 C.2   122  ASN122      0.2266
    122  O         28.0600   29.4450   28.9400 O.2   122  ASN122     -0.2867
    123  CB        29.8830   29.8360   26.5550 C.3   122  ASN122      0.1155
    124  CG        31.2620   29.8930   27.1690 C.2   122  ASN122      0.2627
    125  OD1       31.6100   29.0560   28.0060 O.2   122  ASN122     -0.2716
    126  ND2       32.0550   30.9000   26.7660 N.am  122  ASN122     -0.0877
    127  N         30.2470   29.6600   31.5160 N.3   124  VAL124     -0.1245
    128  CA        31.3190   30.5470   31.9370 C.3   124  VAL124      0.1561
    129  C         31.2970   30.6910   33.4140 C.2   124  VAL124      0.2260
    130  O         30.2570   30.9850   34.0180 O.2   124  VAL124     -0.2867
    131  CB        31.1490   31.9570   31.3350 C.3   124  VAL124      0.0252
    132  CG1       32.2640   32.8450   31.7860 C.3   124  VAL124      0.0019
    133  CG2       31.1010   31.9040   29.7980 C.3   124  VAL124      0.0019
    134  N         33.5010   32.8020   36.4440 N.3   126  ILE126     -0.1245
    135  CA        34.4890   33.8210   36.6620 C.3   126  ILE126      0.1561
    136  C         34.8340   33.8610   38.1160 C.2   126  ILE126      0.2260
    137  O         33.9610   33.9620   38.9790 O.2   126  ILE126     -0.2867
    138  CB        33.9680   35.1910   36.1340 C.3   126  ILE126      0.0252
    139  CG1       33.5700   35.0150   34.6710 C.3   126  ILE126      0.0019
    140  CG2       35.0330   36.2670   36.3080 C.3   126  ILE126      0.0019
    141  CD1       32.8520   36.1360   34.0210 C.3   126  ILE126      0.0001
    142  N         41.0030   38.2690   37.1390 N.3   139  ALA139     -0.1231
    143  CA        39.8390   37.4400   37.0910 C.3   139  ALA139      0.1694
    144  C         40.2140   36.2960   36.1870 C.2   139  ALA139      0.2592
    145  O         40.8640   36.4990   35.1500 O.2   139  ALA139     -0.2718
    146  CB        38.6430   38.2050   36.5230 C.3   139  ALA139      0.0304
    147  N         39.8340   35.0990   36.6120 N.am  140  VAL140     -0.1966
    148  CA        40.0100   33.8880   35.8320 C.3   140  VAL140      0.1727
    149  C         38.6630   33.4670   35.3590 C.2   140  VAL140      0.2616
    150  O         37.7570   33.2900   36.1670 O.2   140  VAL140     -0.2715
    151  CB        40.5210   32.7100   36.6910 C.3   140  VAL140      0.0290
    152  CG1       40.6490   31.4590   35.8080 C.3   140  VAL140      0.0023
    153  CG2       41.7950   33.0780   37.3650 C.3   140  VAL140      0.0023
    154  N         38.5390   33.2980   34.0610 N.am  141  GLY141     -0.1955
    155  CA        37.3640   32.7250   33.4690 C.3   141  GLY141      0.1869
    156  C         37.6180   31.3390   32.8880 C.2   141  GLY141      0.2309
    157  O         38.6700   31.0730   32.2820 O.2   141  GLY141     -0.2863
    158  N         35.6860   28.7470   30.3850 N.3   143  GLN143     -0.1245
    159  CA        34.6390   28.5200   29.3960 C.3   143  GLN143      0.1566
    160  C         34.5390   27.0010   29.0470 C.2   143  GLN143      0.2260
    161  O         35.5200   26.2350   29.2110 O.2   143  GLN143     -0.2867
    162  CB        34.9440   29.2410   28.0920 C.3   143  GLN143      0.0367
    163  CG        35.1030   30.7580   28.1720 C.3   143  GLN143      0.0905
    164  CD        36.4450   31.2570   28.6720 C.2   143  GLN143      0.2608
    165  OE1       37.4820   30.5340   28.6880 O.2   143  GLN143     -0.2717
    166  NE2       36.4370   32.5250   29.0980 N.am  143  GLN143     -0.0878
@<TRIPOS>BOND
     1   114   113    2
     2    63    62    2
     3   113   112    1
     4    62    61    1
     5    55    54    2
     6    54    53    1
     7    54    60   am
     8    53    52    1
     9    53    56    1
    10    59    57    1
    11   112   115    1
    12   112   111    1
    13    61    60    1
    14    61    64    1
    15   115   116    1
    16    44    43    2
    17    56    57    1
    18    57    58    1
    19    64    65    1
    20    43    42    1
    21   116   118   am
    22   116   117    2
    23    30    29    2
    24    46    47    1
    25    46    45    1
    26    65    66    1
    27    47    48    1
    28    38    37    2
    29    42    45    1
    30    42    41    1
    31    27    28    1
    32    67    66    2
    33    41    37   am
    34    37    36    1
    35    66    68   am
    36    29    28    1
    37    29    35   am
    38   119   120    1
    39    50    49    1
    40   106   105    2
    41   123   120    1
    42   123   124    1
    43   105   104    1
    44    36    35    1
    45    36    39    1
    46    48    49    2
    47    28    31    1
    48   126   124   am
    49    31    32    1
    50   120   121    1
    51    49    51    1
    52   124   125    2
    53   108   110    1
    54   108   107    1
    55    33    32    2
    56    39    40    1
    57   104   107    1
    58   104   103    1
    59    32    34   am
    60   162   163    1
    61   162   159    1
    62     7     5    1
    63   163   164    1
    64    75    73    1
    65   107   109    1
    66   121   122    2
    67   164   165    2
    68   164   166   am
    69   160   161    2
    70   160   159    1
    71   159   158    1
    72     5     2    1
    73     5     6    1
    74    74    73    1
    75    73    70    1
    76   133   131    1
    77     2     1    1
    78     2     3    1
    79    25    24    2
    80    83    82    1
    81    24    23    1
    82    70    69    1
    83    70    71    1
    84    13    12    1
    85   131   132    1
    86   131   128    1
    87    22    23    1
    88     3     4    2
    89   127   128    1
    90    93    92    1
    91    23    26    1
    92    82    81    1
    93   128   129    1
    94    71    72    2
    95   157   156    2
    96    12     9    1
    97     9     8    1
    98     9    10    1
    99    92    94    1
   100    92    91    2
   101   156   155    1
   102    81    80    1
   103   129   130    2
   104    90    91    1
   105    90    89    1
   106   155   154    1
   107    80    77    1
   108    10    11    2
   109   141   139    1
   110   154   149   am
   111    88    89    1
   112    88    85    1
   113   102   100    1
   114   139   138    1
   115    84    85    1
   116    84    78   am
   117    77    76    1
   118    77    78    1
   119    85    86    1
   120   145   144    2
   121   149   148    1
   122   149   150    2
   123    78    79    2
   124    14    15    1
   125    15    16    1
   126    15    18    1
   127   152   151    1
   128    20    18    1
   129   148   147    1
   130   148   151    1
   131   100    99    1
   132   138   140    1
   133   138   135    1
   134   144   147   am
   135   144   143    1
   136    16    17    2
   137   134   135    1
   138   146   143    1
   139    86    87    2
   140    18    19    1
   141   135   136    1
   142   151   153    1
   143   101    99    1
   144    99    96    1
   145   143   142    1
   146    19    21    1
   147   136   137    2
   148    96    95    1
   149    96    97    1
   150    97    98    2
