@<TRIPOS>MOLECULE
tmp/4wuoB01.pdb
 107 99 0 0 0
SMALL
GASTEIGER

@<TRIPOS>ATOM
      1  N          5.7020  -65.3740   21.2830 N.3    72  VAL72      -0.1245
      2  CA         7.1640  -65.3330   21.0540 C.3    72  VAL72       0.1561
      3  C          7.7180  -64.0040   21.5380 C.2    72  VAL72       0.2260
      4  O          6.9630  -63.0570   21.7290 O.2    72  VAL72      -0.2867
      5  CB         7.5740  -65.5480   19.5650 C.3    72  VAL72       0.0252
      6  CG1        7.0260  -66.8730   19.0220 C.3    72  VAL72       0.0019
      7  CG2        7.1520  -64.3860   18.6720 C.3    72  VAL72       0.0019
      8  N          9.3870  -61.7400   16.6720 N.3    87  GLU87      -0.1245
      9  CA         8.1170  -61.1950   16.1500 C.3    87  GLU87       0.1567
     10  C          8.0290  -61.1980   14.6270 C.2    87  GLU87       0.2260
     11  O          6.9400  -61.3500   14.0790 O.2    87  GLU87      -0.2867
     12  CB         7.8420  -59.8220   16.7180 C.3    87  GLU87       0.0388
     13  CG         7.8030  -59.7820   18.2450 C.3    87  GLU87       0.1160
     14  CD         9.1970  -59.6980   18.9140 C.2    87  GLU87       0.3649
     15  OE1       10.2150  -59.8230   18.2190 O.co2  87  GLU87      -0.2457
     16  OE2        9.2930  -59.5370   20.1570 O.co2  87  GLU87      -0.2457
     17  N          6.6290  -64.5140   13.4590 N.3    90  LEU90      -0.1231
     18  CA         5.1850  -64.4920   13.5780 C.3    90  LEU90       0.1693
     19  C          4.5770  -63.8370   12.3430 C.2    90  LEU90       0.2591
     20  O          3.6290  -64.3960   11.7220 O.2    90  LEU90      -0.2718
     21  CB         4.7830  -63.7560   14.8760 C.3    90  LEU90       0.0284
     22  CG         3.2600  -63.5840   15.0570 C.3    90  LEU90       0.0019
     23  CD1        2.5630  -64.9600   15.0390 C.3    90  LEU90       0.0001
     24  CD2        2.9870  -62.8320   16.3580 C.3    90  LEU90       0.0001
     25  N          5.0990  -62.6590   11.9630 N.am   91  LEU91      -0.1980
     26  CA         4.6010  -61.9960   10.7840 C.3    91  LEU91       0.1596
     27  C          4.8010  -62.8610    9.5400 C.2    91  LEU91       0.2287
     28  O          3.9440  -62.8480    8.6640 O.2    91  LEU91      -0.2864
     29  CB         5.2420  -60.6120   10.6020 C.3    91  LEU91       0.0297
     30  CG         4.9190  -59.5190   11.6530 C.3    91  LEU91       0.0022
     31  CD1        5.3260  -58.1400   11.1680 C.3    91  LEU91       0.0001
     32  CD2        3.4540  -59.4430   12.0410 C.3    91  LEU91       0.0001
     33  N          2.1800  -65.7210    9.3470 N.3    94  ARG94      -0.1245
     34  CA         0.9050  -65.1800    8.8910 C.3    94  ARG94       0.1563
     35  C          0.9520  -64.9420    7.3800 C.2    94  ARG94       0.2260
     36  O          0.0110  -65.2730    6.6670 O.2    94  ARG94      -0.2867
     37  CB         0.5700  -63.8720    9.6310 C.3    94  ARG94       0.0307
     38  CG         0.2900  -64.0450   11.1240 C.3    94  ARG94       0.0489
     39  CD         0.2170  -62.6800   11.7810 C.3    94  ARG94       0.2205
     40  NE        -0.1250  -62.8100   13.1790 N.pl3  94  ARG94      -0.0865
     41  CZ        -0.1340  -61.8430   14.0690 C.cat  94  ARG94       0.5346
     42  NH1        0.2460  -60.5870   13.7600 N.pl3  94  ARG94       0.1354
     43  NH2       -0.4650  -62.1580   15.3100 N.pl3  94  ARG94       0.1354
     44  N        -10.8030  -61.9740   16.8300 N.3   104  ARG104     -0.1245
     45  CA       -10.4770  -61.7960   18.2530 C.3   104  ARG104      0.1563
     46  C        -11.7520  -61.4690   19.0500 C.2   104  ARG104      0.2260
     47  O        -12.1990  -60.2960   19.0750 O.2   104  ARG104     -0.2867
     48  CB        -9.4330  -60.7280   18.4130 C.3   104  ARG104      0.0307
     49  CG        -8.0660  -61.1720   17.9580 C.3   104  ARG104      0.0489
     50  CD        -7.0040  -60.0430   17.9550 C.3   104  ARG104      0.2205
     51  NE        -5.7230  -60.6280   17.5590 N.pl3 104  ARG104     -0.0865
     52  CZ        -4.5140  -60.1830   17.8740 C.cat 104  ARG104      0.5346
     53  NH1       -4.3390  -59.0540   18.5750 N.pl3 104  ARG104      0.1354
     54  NH2       -3.4640  -60.8950   17.4720 N.pl3 104  ARG104      0.1354
     55  N         -9.8790  -58.2210   12.3120 N.3   132  ARG132     -0.1245
     56  CA        -8.7160  -57.4020   12.0020 C.3   132  ARG132      0.1563
     57  C         -8.0440  -57.9170   10.7290 C.2   132  ARG132      0.2260
     58  O         -7.8870  -59.1350   10.5140 O.2   132  ARG132     -0.2867
     59  CB        -7.7750  -57.4590   13.1810 C.3   132  ARG132      0.0307
     60  CG        -6.3260  -57.1200   12.9260 C.3   132  ARG132      0.0489
     61  CD        -5.4180  -57.4590   14.0960 C.3   132  ARG132      0.2205
     62  NE        -4.1000  -56.8610   13.8640 N.pl3 132  ARG132     -0.0865
     63  CZ        -2.9760  -57.3220   14.4050 C.cat 132  ARG132      0.5346
     64  NH1       -2.9770  -58.4180   15.2030 N.pl3 132  ARG132      0.1354
     65  NH2       -1.8380  -56.7060   14.1240 N.pl3 132  ARG132      0.1354
     66  N          1.9750  -52.9170    8.4470 N.3   139  TYR139     -0.1241
     67  CA         2.7640  -54.0730    8.8860 C.3   139  TYR139      0.1605
     68  C          3.6370  -54.6350    7.7420 C.2   139  TYR139      0.2264
     69  O          4.7640  -55.1660    7.9720 O.2   139  TYR139     -0.2867
     70  CB         1.8470  -55.1860    9.4510 C.3   139  TYR139      0.0534
     71  CG         1.4450  -55.0070   10.9260 C.ar  139  TYR139     -0.0201
     72  CD1        0.9990  -53.7670   11.4260 C.ar  139  TYR139     -0.0009
     73  CD2        1.5250  -56.0760   11.8170 C.ar  139  TYR139     -0.0009
     74  CE1        0.6370  -53.6220   12.7600 C.ar  139  TYR139      0.0417
     75  CE2        1.1630  -55.9580   13.1590 C.ar  139  TYR139      0.0417
     76  CZ         0.7110  -54.7290   13.6210 C.ar  139  TYR139      0.1957
     77  OH         0.3740  -54.6090   14.9470 O.3   139  TYR139     -0.2866
     78  N         -4.8190  -54.2480   16.2630 N.3   241  ASP241     -0.1239
     79  CA        -3.8440  -54.6970   17.2590 C.3   241  ASP241      0.1674
     80  C         -4.1440  -53.9640   18.5690 C.2   241  ASP241      0.2266
     81  O         -4.2780  -54.5750   19.6620 O.2   241  ASP241     -0.2867
     82  CB        -2.4050  -54.3420   16.7530 C.3   241  ASP241      0.1410
     83  CG        -1.3180  -54.6680   17.7890 C.2   241  ASP241      0.3668
     84  OD1       -1.2640  -55.8220   18.2820 O.co2 241  ASP241     -0.2456
     85  OD2       -0.5180  -53.7610   18.1300 O.co2 241  ASP241     -0.2456
     86  N         -6.1550  -55.4470   22.2910 N.3   245  ASP245     -0.1239
     87  CA        -5.5760  -55.4110   23.6290 C.3   245  ASP245      0.1674
     88  C         -6.4600  -54.6490   24.5660 C.2   245  ASP245      0.2266
     89  O         -6.6510  -55.0770   25.7040 O.2   245  ASP245     -0.2867
     90  CB        -4.1520  -54.8070   23.6820 C.3   245  ASP245      0.1410
     91  CG        -3.0390  -55.8860   23.7580 C.2   245  ASP245      0.3668
     92  OD1       -3.2060  -57.0040   23.2130 O.co2 245  ASP245     -0.2456
     93  OD2       -1.9730  -55.5980   24.3570 O.co2 245  ASP245     -0.2456
     94  N         -3.3070  -67.1350   21.5790 N.3   271  PRO271     -0.2102
     95  CA        -3.7150  -66.0300   22.4180 C.3   271  PRO271      0.1504
     96  C         -3.4080  -64.6710   21.7670 C.2   271  PRO271      0.2575
     97  O         -2.4230  -64.5210   21.0250 O.2   271  PRO271     -0.2718
     98  CB        -2.8110  -66.1750   23.6630 C.3   271  PRO271      0.0282
     99  CG        -2.4200  -67.6050   23.7090 C.3   271  PRO271      0.0208
    100  CD        -2.5160  -68.1520   22.3000 C.3   271  PRO271      0.0893
    101  N         -4.2520  -63.6860   22.0640 N.am  272  VAL272     -0.1980
    102  CA        -3.8900  -62.2970   21.8190 C.3   272  VAL272      0.1595
    103  C         -2.5710  -61.8770   22.5410 C.2   272  VAL272      0.2287
    104  O         -1.7010  -61.1520   21.9440 O.2   272  VAL272     -0.2864
    105  CB        -5.0730  -61.3900   22.1820 C.3   272  VAL272      0.0276
    106  CG1       -4.6600  -59.9330   22.1170 C.3   272  VAL272      0.0022
    107  CG2       -6.2050  -61.6480   21.1950 C.3   272  VAL272      0.0022
@<TRIPOS>BOND
     1    36    35    2
     2    35    34    1
     3    68    69    2
     4    68    67    1
     5    66    67    1
     6    28    27    2
     7    67    70    1
     8    34    33    1
     9    34    37    1
    10    70    71    1
    11    27    26    1
    12    37    38    1
    13    58    57    2
    14    29    26    1
    15    29    30    1
    16    57    56    1
    17    26    25    1
    18    71    72   ar
    19    71    73   ar
    20    38    39    1
    21    31    30    1
    22    72    74   ar
    23    30    32    1
    24    20    19    2
    25    39    40    1
    26    73    75   ar
    27    25    19   am
    28    56    55    1
    29    56    59    1
    30    19    18    1
    31    74    76   ar
    32    60    59    1
    33    60    61    1
    34    75    76   ar
    35    40    41    2
    36    17    18    1
    37    18    21    1
    38    76    77    1
    39    42    41    1
    40    62    61    1
    41    62    63    2
    42    41    43    1
    43    11    10    2
    44    65    63    1
    45    63    64    1
    46    10     9    1
    47    21    22    1
    48    23    22    1
    49    22    24    1
    50     9     8    1
    51     9    12    1
    52    78    79    1
    53    12    13    1
    54    82    79    1
    55    82    83    1
    56    44    45    1
    57    79    80    1
    58    54    52    1
    59    51    52    2
    60    51    50    1
    61    83    85   ar
    62    83    84   ar
    63    52    53    1
    64    50    49    1
    65    49    48    1
    66    15    14   ar
    67    13    14    1
    68    45    48    1
    69    45    46    1
    70    80    81    2
    71     7     5    1
    72    14    16   ar
    73     6     5    1
    74    46    47    2
    75     5     2    1
    76    97    96    2
    77     2     1    1
    78     2     3    1
    79   107   105    1
    80     3     4    2
    81    94   100    1
    82    94    95    1
    83    96   101   am
    84    96    95    1
    85   102   101    1
    86   102   105    1
    87   102   103    1
    88   104   103    2
    89   106   105    1
    90    86    87    1
    91   100    99    1
    92    95    98    1
    93    92    91   ar
    94    87    90    1
    95    87    88    1
    96    98    99    1
    97    90    91    1
    98    91    93   ar
    99    88    89    2
