@<TRIPOS>MOLECULE
tmp/4wupB00.pdb
 158 153 0 0 0
SMALL
GASTEIGER

@<TRIPOS>ATOM
      1  N         10.0740   66.1040   51.2170 N.3    64  HIS64      -0.1241
      2  CA         8.9920   65.4450   51.9760 C.3    64  HIS64       0.1621
      3  C          9.1890   63.9360   51.9880 C.2    64  HIS64       0.2264
      4  O          9.6970   63.3800   50.9790 O.2    64  HIS64      -0.2867
      5  CB         7.6300   65.8050   51.3320 C.3    64  HIS64       0.0745
      6  CG         7.2450   67.2740   51.5150 C.ar   64  HIS64       0.0817
      7  ND1        6.2930   67.8890   50.7670 N.ar   64  HIS64      -0.2268
      8  CD2        7.7020   68.2240   52.4110 C.ar   64  HIS64       0.1154
      9  CE1        6.1820   69.1750   51.1240 C.ar   64  HIS64       0.1986
     10  NE2        7.0050   69.3850   52.1720 N.ar   64  HIS64      -0.2212
     11  N          0.5240   61.4230   57.2250 N.3    88  PHE88      -0.1227
     12  CA         0.7310   61.5240   55.7590 C.3    88  PHE88       0.1736
     13  C          2.1210   61.8980   55.3120 C.2    88  PHE88       0.2595
     14  O          2.5150   61.5840   54.1840 O.2    88  PHE88      -0.2718
     15  CB        -0.4060   62.3190   55.0370 C.3    88  PHE88       0.0547
     16  CG        -0.3720   63.8500   55.2690 C.ar   88  PHE88      -0.0202
     17  CD1       -1.0520   64.4130   56.3970 C.ar   88  PHE88      -0.0042
     18  CD2        0.3390   64.6820   54.4100 C.ar   88  PHE88      -0.0042
     19  CE1       -1.0470   65.7920   56.6040 C.ar   88  PHE88      -0.0003
     20  CE2        0.3310   66.0660   54.5810 C.ar   88  PHE88      -0.0003
     21  CZ        -0.3270   66.6270   55.6920 C.ar   88  PHE88      -0.0000
     22  N          2.8950   62.6010   56.1370 N.am   89  GLN89      -0.1979
     23  CA         4.1700   63.1390   55.7000 C.3    89  GLN89       0.1601
     24  C          5.0250   63.5250   56.8970 C.2    89  GLN89       0.2287
     25  O          4.4700   63.8480   57.9800 O.2    89  GLN89      -0.2864
     26  CB         3.8740   64.4470   54.8810 C.3    89  GLN89       0.0394
     27  CG         5.0430   65.2570   54.4800 C.3    89  GLN89       0.0908
     28  CD         4.6270   66.4430   53.7110 C.2    89  GLN89       0.2608
     29  OE1        4.8140   67.5400   54.1410 O.2    89  GLN89      -0.2717
     30  NE2        4.0280   66.2050   52.4930 N.am   89  GLN89      -0.0878
     31  N          8.7590   66.0950   57.3910 N.3    91  HIS91      -0.1297
     32  CA         9.7880   66.9030   56.7080 C.3    91  HIS91       0.1306
     33  C         10.5000   67.7420   57.7380 C.3    91  HIS91       0.2013
     34  O         10.2070   67.6450   58.9970 O.3    91  HIS91      -0.2188
     35  CB         9.1340   67.8260   55.6070 C.3    91  HIS91       0.0691
     36  CG         8.1190   68.8200   56.1780 C.ar   91  HIS91       0.0814
     37  ND1        6.7360   68.5720   56.1400 N.ar   91  HIS91      -0.2268
     38  CD2        8.2870   70.0020   56.8700 C.ar   91  HIS91       0.1154
     39  CE1        6.0930   69.5980   56.7700 C.ar   91  HIS91       0.1986
     40  NE2        6.9960   70.4490   57.2260 N.ar   91  HIS91      -0.2212
     41  N         12.5770   71.7400   58.5820 N.3    93  HIS93      -0.1241
     42  CA        12.9510   73.1640   58.2190 C.3    93  HIS93       0.1621
     43  C         14.2870   73.4200   58.7880 C.2    93  HIS93       0.2264
     44  O         14.6220   72.9320   59.8750 O.2    93  HIS93      -0.2867
     45  CB        11.9510   74.1600   58.7780 C.3    93  HIS93       0.0745
     46  CG        10.5780   73.9280   58.2690 C.ar   93  HIS93       0.0817
     47  ND1       10.0230   74.6790   57.2770 N.ar   93  HIS93      -0.2268
     48  CD2        9.6140   72.9880   58.6600 C.ar   93  HIS93       0.1154
     49  CE1        8.7420   74.2660   57.0450 C.ar   93  HIS93       0.1986
     50  NE2        8.4930   73.1760   57.8820 N.ar   93  HIS93      -0.2212
     51  N          8.7900   68.2270   61.3990 N.3   116  HIS116     -0.1241
     52  CA         7.3180   68.2770   61.3640 C.3   116  HIS116      0.1621
     53  C          6.7970   66.9380   60.9110 C.2   116  HIS116      0.2264
     54  O          7.2230   66.4280   59.8390 O.2   116  HIS116     -0.2867
     55  CB         6.9100   69.3620   60.3910 C.3   116  HIS116      0.0745
     56  CG         7.0800   70.7430   60.9700 C.ar  116  HIS116      0.0817
     57  ND1        7.0580   71.9050   60.2060 N.ar  116  HIS116     -0.2268
     58  CD2        7.2880   71.1090   62.2890 C.ar  116  HIS116      0.1154
     59  CE1        7.2860   72.9750   61.0650 C.ar  116  HIS116      0.1986
     60  NE2        7.4750   72.4510   62.3240 N.ar  116  HIS116     -0.2212
     61  N          3.2360   65.2760   59.9730 N.3   118  ALA118     -0.1245
     62  CA         1.9000   65.8350   59.6740 C.3   118  ALA118      0.1562
     63  C          0.8580   64.7190   59.5010 C.2   118  ALA118      0.2260
     64  O          1.1980   63.6390   58.9420 O.2   118  ALA118     -0.2867
     65  CB         1.9630   66.6810   58.4180 C.3   118  ALA118      0.0290
     66  N         -6.9220   63.7220   52.5400 N.3   128  LEU128     -0.1245
     67  CA        -6.0940   64.9010   52.8300 C.3   128  LEU128      0.1561
     68  C         -6.5720   66.1410   52.1020 C.2   128  LEU128      0.2260
     69  O         -6.6770   67.2220   52.6730 O.2   128  LEU128     -0.2867
     70  CB        -4.6240   64.6080   52.5090 C.3   128  LEU128      0.0270
     71  CG        -3.7030   65.8100   52.6570 C.3   128  LEU128      0.0019
     72  CD1       -3.5980   66.2460   54.1310 C.3   128  LEU128      0.0001
     73  CD2       -2.2970   65.5540   52.0800 C.3   128  LEU128      0.0001
     74  N         -7.6050   69.3500   54.5520 N.3   132  ALA132     -0.1245
     75  CA        -6.5080   70.3450   54.6960 C.3   132  ALA132      0.1562
     76  C         -6.9390   71.7600   54.9630 C.2   132  ALA132      0.2260
     77  O         -6.1720   72.5180   55.5310 O.2   132  ALA132     -0.2867
     78  CB        -5.5400   70.3300   53.5050 C.3   132  ALA132      0.0290
     79  N         -6.0480   69.1480   60.3530 N.3   138  LEU138     -0.1245
     80  CA        -4.6510   68.7060   60.3640 C.3   138  LEU138      0.1561
     81  C         -4.0880   68.7370   61.7920 C.2   138  LEU138      0.2260
     82  O         -4.5620   69.5080   62.6340 O.2   138  LEU138     -0.2867
     83  CB        -3.8290   69.5340   59.3830 C.3   138  LEU138      0.0270
     84  CG        -4.2850   69.6500   57.9240 C.3   138  LEU138      0.0019
     85  CD1       -3.2470   70.5660   57.2500 C.3   138  LEU138      0.0001
     86  CD2       -4.2650   68.1910   57.3920 C.3   138  LEU138      0.0001
     87  N         -0.0880   68.5620   63.4540 N.3   140  VAL140     -0.1245
     88  CA         1.3090   68.4190   63.1160 C.3   140  VAL140      0.1561
     89  C          2.1030   68.3960   64.4400 C.2   140  VAL140      0.2260
     90  O          1.9060   69.3090   65.3050 O.2   140  VAL140     -0.2867
     91  CB         1.8140   69.5740   62.2000 C.3   140  VAL140      0.0252
     92  CG1        3.3220   69.3360   61.8580 C.3   140  VAL140      0.0019
     93  CG2        1.0200   69.6140   60.9010 C.3   140  VAL140      0.0019
     94  N         -0.7290   75.9460   58.5010 N.3   195  LEU195     -0.1231
     95  CA         0.4640   75.4950   57.7060 C.3   195  LEU195      0.1693
     96  C          1.4450   76.6290   57.7260 C.2   195  LEU195      0.2593
     97  O          1.0500   77.8360   57.6970 O.2   195  LEU195     -0.2718
     98  CB         0.0460   75.2290   56.2540 C.3   195  LEU195      0.0284
     99  CG        -1.0060   74.1830   56.1000 C.3   195  LEU195      0.0019
    100  CD1       -1.4020   74.1550   54.6130 C.3   195  LEU195      0.0001
    101  CD2       -0.4570   72.8260   56.5400 C.3   195  LEU195      0.0001
    102  N          2.7280   76.3280   57.8630 N.am  196  THR196     -0.1939
    103  CA         3.7450   77.4120   57.9200 C.3   196  THR196      0.2028
    104  C          4.2760   77.9560   56.5810 C.2   196  THR196      0.2642
    105  O          5.1450   78.8590   56.5370 O.2   196  THR196     -0.2714
    106  CB         5.0040   77.0570   58.7910 C.3   196  THR196      0.1808
    107  OG1        5.6900   75.9860   58.1530 O.3   196  THR196     -0.2208
    108  CG2        4.5390   76.5910   60.1480 C.3   196  THR196      0.0379
    109  N          3.7730   77.4020   55.4750 N.am  197  HIS197     -0.1973
    110  CA         4.0670   77.9660   54.1750 C.3   197  HIS197      0.1656
    111  C          2.7560   77.9220   53.3830 C.2   197  HIS197      0.2291
    112  O          1.7790   77.2700   53.8110 O.2   197  HIS197     -0.2864
    113  CB         5.2790   77.3120   53.4510 C.3   197  HIS197      0.0771
    114  CG         5.1180   75.8530   53.1530 C.ar  197  HIS197      0.0820
    115  ND1        4.1690   75.3930   52.2850 N.ar  197  HIS197     -0.2267
    116  CD2        5.9060   74.7620   53.5200 C.ar  197  HIS197      0.1154
    117  CE1        4.3290   74.0320   52.1780 C.ar  197  HIS197      0.1986
    118  NE2        5.3750   73.6650   52.9610 N.ar  197  HIS197     -0.2212
    119  N         -0.2980   77.0220   51.1520 N.3   199  PRO199     -0.2116
    120  CA        -1.3890   78.0190   51.2290 C.3   199  PRO199      0.1372
    121  C         -1.7670   78.5080   52.6060 C.2   199  PRO199      0.2244
    122  O         -2.8250   79.1740   52.7460 O.2   199  PRO199     -0.2868
    123  CB        -2.6030   77.2530   50.6760 C.3   199  PRO199      0.0268
    124  CG        -2.3070   75.8330   51.0480 C.3   199  PRO199      0.0207
    125  CD        -0.8190   75.6720   50.8310 C.3   199  PRO199      0.0892
    126  N         -3.1290   77.5750   55.2920 N.3   201  TYR201     -0.1241
    127  CA        -4.4570   77.3260   55.7870 C.3   201  TYR201      0.1605
    128  C         -4.4330   77.2950   57.2900 C.2   201  TYR201      0.2264
    129  O         -3.5450   76.6780   57.9050 O.2   201  TYR201     -0.2867
    130  CB        -4.8990   75.9130   55.3290 C.3   201  TYR201      0.0534
    131  CG        -5.3070   75.8130   53.8380 C.ar  201  TYR201     -0.0201
    132  CD1       -5.9530   76.8580   53.1910 C.ar  201  TYR201     -0.0009
    133  CD2       -5.0920   74.6280   53.1370 C.ar  201  TYR201     -0.0009
    134  CE1       -6.3280   76.7400   51.8450 C.ar  201  TYR201      0.0417
    135  CE2       -5.4800   74.4890   51.8110 C.ar  201  TYR201      0.0417
    136  CZ        -6.0670   75.5410   51.1680 C.ar  201  TYR201      0.1957
    137  OH        -6.4470   75.3290   49.8460 O.3   201  TYR201     -0.2866
    138  N         -4.4270   73.7000   61.3520 N.3   204  VAL204     -0.1245
    139  CA        -3.4420   72.8190   62.0310 C.3   204  VAL204      0.1561
    140  C         -3.5330   72.9510   63.5500 C.2   204  VAL204      0.2260
    141  O         -3.3960   74.0570   64.1040 O.2   204  VAL204     -0.2867
    142  CB        -1.9800   73.1420   61.6460 C.3   204  VAL204      0.0252
    143  CG1       -1.0140   72.2360   62.4250 C.3   204  VAL204      0.0019
    144  CG2       -1.7720   72.9460   60.1310 C.3   204  VAL204      0.0019
    145  N         -1.3350   72.3000   66.4930 N.3   206  TRP206     -0.1241
    146  CA         0.1060   72.0550   66.6270 C.3   206  TRP206      0.1605
    147  C          0.3890   71.3300   67.9360 C.2   206  TRP206      0.2264
    148  O         -0.2220   71.6330   68.9800 O.2   206  TRP206     -0.2867
    149  CB         0.8660   73.3990   66.6340 C.3   206  TRP206      0.0550
    150  CG         1.1100   73.8260   65.2640 C.ar  206  TRP206      0.0003
    151  CD1        0.3940   74.7420   64.5220 C.ar  206  TRP206      0.0946
    152  CD2        2.1860   73.3250   64.3630 C.ar  206  TRP206      0.0152
    153  NE1        0.9260   74.8300   63.2310 N.ar  206  TRP206     -0.2442
    154  CE2        2.0050   74.0130   63.0960 C.ar  206  TRP206      0.0810
    155  CE3        3.2380   72.3840   64.5090 C.ar  206  TRP206      0.0012
    156  CZ2        2.8350   73.7660   61.9790 C.ar  206  TRP206      0.0191
    157  CZ3        4.0700   72.1700   63.3900 C.ar  206  TRP206      0.0001
    158  CH2        3.8640   72.8410   62.1660 C.ar  206  TRP206      0.0015
@<TRIPOS>BOND
     1   137   136    1
     2   123   124    1
     3   123   120    1
     4     7     9   ar
     5     7     6   ar
     6   125   124    1
     7   125   119    1
     8     4     3    2
     9     9    10   ar
    10   119   120    1
    11   136   135   ar
    12   136   134   ar
    13     1     2    1
    14   120   121    1
    15     5     6    1
    16     5     2    1
    17     6     8   ar
    18   135   133   ar
    19   134   132   ar
    20     2     3    1
    21    73    71    1
    22    68    69    2
    23    68    67    1
    24    10     8   ar
    25   117   115   ar
    26   117   118   ar
    27   115   114   ar
    28    30    28   am
    29    70    71    1
    30    70    67    1
    31    66    67    1
    32   121   122    2
    33    71    72    1
    34   118   116   ar
    35   133   131   ar
    36   114   113    1
    37   114   116   ar
    38   132   131   ar
    39   111   112    2
    40   111   110    1
    41   113   110    1
    42    78    75    1
    43    28    29    2
    44    28    27    1
    45   131   130    1
    46   110   109    1
    47    14    13    2
    48    18    20   ar
    49    18    16   ar
    50    27    26    1
    51    74    75    1
    52    20    21   ar
    53   100    99    1
    54    75    76    1
    55    26    23    1
    56    76    77    2
    57    15    16    1
    58    15    12    1
    59    16    17   ar
    60   126   127    1
    61    13    12    1
    62    13    22   am
    63   130   127    1
    64   109   104   am
    65    35    36    1
    66    35    32    1
    67    21    19   ar
    68    23    22    1
    69    23    24    1
    70    12    11    1
    71   127   128    1
    72    99    98    1
    73    99   101    1
    74    37    36   ar
    75    37    39   ar
    76    36    38   ar
    77    98    95    1
    78    17    19   ar
    79   105   104    2
    80   104   103    1
    81    32    31    1
    82    32    33    1
    83    39    40   ar
    84    38    40   ar
    85    24    25    2
    86    49    47   ar
    87    49    50   ar
    88    85    84    1
    89    47    46   ar
    90   128   129    2
    91    86    84    1
    92    97    96    2
    93    95    96    1
    94    95    94    1
    95    96   102   am
    96    33    34    1
    97   102   103    1
    98    50    48   ar
    99   103   106    1
   100    84    83    1
   101   107   106    1
   102    42    41    1
   103    42    45    1
   104    42    43    1
   105    46    48   ar
   106    46    45    1
   107    65    62    1
   108    43    44    2
   109   106   108    1
   110    64    63    2
   111    83    80    1
   112    63    62    1
   113    62    61    1
   114    54    53    2
   115   144   142    1
   116    57    56   ar
   117    57    59   ar
   118    79    80    1
   119    80    81    1
   120    55    56    1
   121    55    52    1
   122    93    91    1
   123    53    52    1
   124    56    58   ar
   125    59    60   ar
   126   138   139    1
   127    52    51    1
   128   142   139    1
   129   142   143    1
   130    81    82    2
   131    92    91    1
   132   156   158   ar
   133   156   154   ar
   134   139   140    1
   135   158   157   ar
   136    91    88    1
   137    58    60   ar
   138   154   153   ar
   139   154   152   ar
   140    88    87    1
   141    88    89    1
   142   153   151   ar
   143   157   155   ar
   144   140   141    2
   145   152   155   ar
   146   152   150   ar
   147    89    90    2
   148   151   150   ar
   149   150   149    1
   150   145   146    1
   151   146   149    1
   152   146   147    1
   153   147   148    2
