@<TRIPOS>MOLECULE
tmp/4wuqB00.pdb
 158 155 0 0 0
SMALL
GASTEIGER

@<TRIPOS>ATOM
      1  N          9.9880   66.0050   50.7770 N.3    64  HIS64      -0.1241
      2  CA         8.9090   65.3950   51.5740 C.3    64  HIS64       0.1621
      3  C          9.0660   63.9240   51.5530 C.2    64  HIS64       0.2264
      4  O          9.4440   63.3640   50.5040 O.2    64  HIS64      -0.2867
      5  CB         7.5300   65.7100   50.9420 C.3    64  HIS64       0.0745
      6  CG         7.1450   67.1660   51.0170 C.ar   64  HIS64       0.0817
      7  ND1        6.1060   67.6500   50.3330 N.ar   64  HIS64      -0.2268
      8  CD2        7.6730   68.2340   51.7370 C.ar   64  HIS64       0.1154
      9  CE1        5.9850   68.9820   50.5600 C.ar   64  HIS64       0.1986
     10  NE2        6.9270   69.3360   51.4350 N.ar   64  HIS64      -0.2212
     11  N          0.3460   61.4520   56.8140 N.3    88  PHE88      -0.1227
     12  CA         0.5880   61.4960   55.3340 C.3    88  PHE88       0.1736
     13  C          1.9970   61.8990   54.9290 C.2    88  PHE88       0.2595
     14  O          2.4210   61.6020   53.7940 O.2    88  PHE88      -0.2718
     15  CB        -0.5060   62.3290   54.6020 C.3    88  PHE88       0.0547
     16  CG        -0.4650   63.7990   54.8750 C.ar   88  PHE88      -0.0202
     17  CD1       -1.1520   64.3550   55.9870 C.ar   88  PHE88      -0.0042
     18  CD2        0.3070   64.6610   54.0510 C.ar   88  PHE88      -0.0042
     19  CE1       -1.1070   65.7650   56.2250 C.ar   88  PHE88      -0.0003
     20  CE2        0.3250   66.0460   54.2810 C.ar   88  PHE88      -0.0003
     21  CZ        -0.3500   66.6000   55.3840 C.ar   88  PHE88      -0.0000
     22  N          2.7590   62.6000   55.7690 N.am   89  GLN89      -0.1979
     23  CA         4.0750   63.0550   55.3200 C.3    89  GLN89       0.1601
     24  C          4.9240   63.4290   56.5210 C.2    89  GLN89       0.2287
     25  O          4.3750   63.7730   57.5930 O.2    89  GLN89      -0.2864
     26  CB         3.8460   64.3500   54.5530 C.3    89  GLN89       0.0394
     27  CG         5.0270   65.0170   53.8960 C.3    89  GLN89       0.0908
     28  CD         4.5680   66.3260   53.2370 C.2    89  GLN89       0.2608
     29  OE1        4.7610   67.4310   53.7450 O.2    89  GLN89      -0.2717
     30  NE2        3.8800   66.1870   52.0720 N.am   89  GLN89      -0.0878
     31  N          8.5560   66.1010   56.9140 N.3    91  HIS91      -0.1297
     32  CA         9.5950   66.9060   56.2320 C.3    91  HIS91       0.1306
     33  C         10.3080   67.7790   57.2470 C.3    91  HIS91       0.2013
     34  O         10.0130   67.7170   58.5110 O.3    91  HIS91      -0.2188
     35  CB         8.9260   67.7590   55.1380 C.3    91  HIS91       0.0691
     36  CG         7.9120   68.7970   55.6970 C.ar   91  HIS91       0.0814
     37  ND1        6.5410   68.5710   55.6920 N.ar   91  HIS91      -0.2268
     38  CD2        8.0970   69.9960   56.3980 C.ar   91  HIS91       0.1154
     39  CE1        5.9180   69.6410   56.2610 C.ar   91  HIS91       0.1986
     40  NE2        6.8510   70.5000   56.6950 N.ar   91  HIS91      -0.2212
     41  N         12.4450   71.7000   58.1270 N.3    93  HIS93      -0.1241
     42  CA        12.7740   73.0740   57.7500 C.3    93  HIS93       0.1621
     43  C         14.1350   73.3370   58.3140 C.2    93  HIS93       0.2264
     44  O         14.4930   72.8490   59.4340 O.2    93  HIS93      -0.2867
     45  CB        11.7760   74.0750   58.3400 C.3    93  HIS93       0.0745
     46  CG        10.4130   73.8910   57.8130 C.ar   93  HIS93       0.0817
     47  ND1        9.8970   74.6410   56.7810 N.ar   93  HIS93      -0.2268
     48  CD2        9.4350   72.9850   58.1740 C.ar   93  HIS93       0.1154
     49  CE1        8.6110   74.2520   56.5460 C.ar   93  HIS93       0.1986
     50  NE2        8.3290   73.2220   57.3800 N.ar   93  HIS93      -0.2212
     51  N          8.6690   68.2740   60.9350 N.3   116  HIS116     -0.1241
     52  CA         7.1810   68.3020   60.8970 C.3   116  HIS116      0.1621
     53  C          6.6320   66.9740   60.4470 C.2   116  HIS116      0.2264
     54  O          7.0550   66.4440   59.4100 O.2   116  HIS116     -0.2867
     55  CB         6.6960   69.3460   59.9300 C.3   116  HIS116      0.0745
     56  CG         6.9170   70.7390   60.4620 C.ar  116  HIS116      0.0817
     57  ND1        6.8230   71.8440   59.6990 N.ar  116  HIS116     -0.2268
     58  CD2        7.1770   71.1600   61.7570 C.ar  116  HIS116      0.1154
     59  CE1        7.0330   72.9300   60.4600 C.ar  116  HIS116      0.1986
     60  NE2        7.3150   72.4960   61.7220 N.ar  116  HIS116     -0.2212
     61  N          3.0600   65.3060   59.6060 N.3   118  ALA118     -0.1245
     62  CA         1.7430   65.9010   59.2620 C.3   118  ALA118      0.1562
     63  C          0.6610   64.8290   59.0510 C.2   118  ALA118      0.2260
     64  O          0.9660   63.7100   58.5740 O.2   118  ALA118     -0.2867
     65  CB         1.8950   66.7580   57.9830 C.3   118  ALA118      0.0290
     66  N         -6.9530   64.2350   52.0610 N.3   128  LEU128     -0.1231
     67  CA        -6.0700   65.3000   52.4240 C.3   128  LEU128      0.1693
     68  C         -6.4600   66.5820   51.7050 C.2   128  LEU128      0.2591
     69  O         -6.5390   67.6690   52.3090 O.2   128  LEU128     -0.2718
     70  CB        -4.6220   64.9150   52.1380 C.3   128  LEU128      0.0284
     71  CG        -3.6370   66.0760   52.2670 C.3   128  LEU128      0.0019
     72  CD1       -3.5560   66.5930   53.7430 C.3   128  LEU128      0.0001
     73  CD2       -2.2700   65.7020   51.6910 C.3   128  LEU128      0.0001
     74  N         -6.7850   66.4530   50.3970 N.am  129  ALA129     -0.1980
     75  CA        -7.1100   67.6770   49.6040 C.3   129  ALA129      0.1597
     76  C         -8.3030   68.4240   50.2170 C.2   129  ALA129      0.2287
     77  O         -8.2570   69.6530   50.3130 O.2   129  ALA129     -0.2864
     78  CB        -7.3770   67.2610   48.1510 C.3   129  ALA129      0.0319
     79  N         -7.3060   69.9290   53.9800 N.3   132  ALA132     -0.1245
     80  CA        -6.2270   70.8990   54.1140 C.3   132  ALA132      0.1562
     81  C         -6.7260   72.2850   54.3630 C.2   132  ALA132      0.2260
     82  O         -5.9870   73.1100   54.8690 O.2   132  ALA132     -0.2867
     83  CB        -5.3660   70.9330   52.8170 C.3   132  ALA132      0.0290
     84  N         -6.0630   69.3920   59.8440 N.3   138  LEU138     -0.1245
     85  CA        -4.7040   68.8490   59.9030 C.3   138  LEU138      0.1561
     86  C         -4.1560   68.8610   61.3520 C.2   138  LEU138      0.2260
     87  O         -4.5960   69.6930   62.2240 O.2   138  LEU138     -0.2867
     88  CB        -3.8380   69.7510   59.0110 C.3   138  LEU138      0.0270
     89  CG        -4.2010   69.8550   57.5070 C.3   138  LEU138      0.0019
     90  CD1       -3.1960   70.7890   56.8420 C.3   138  LEU138      0.0001
     91  CD2       -4.2300   68.4320   56.9520 C.3   138  LEU138      0.0001
     92  N         -0.2080   68.6630   62.9680 N.3   140  VAL140     -0.1245
     93  CA         1.2060   68.5270   62.6780 C.3   140  VAL140      0.1561
     94  C          2.0160   68.5470   63.9860 C.2   140  VAL140      0.2260
     95  O          1.8170   69.4420   64.8200 O.2   140  VAL140     -0.2867
     96  CB         1.7430   69.6080   61.7170 C.3   140  VAL140      0.0252
     97  CG1        3.2520   69.3220   61.3950 C.3   140  VAL140      0.0019
     98  CG2        0.8840   69.6790   60.4340 C.3   140  VAL140      0.0019
     99  N         -0.7690   76.1990   58.0710 N.3   195  LEU195     -0.1231
    100  CA         0.4150   75.7030   57.3180 C.3   195  LEU195      0.1693
    101  C          1.4650   76.8100   57.3810 C.2   195  LEU195      0.2593
    102  O          1.0990   78.0170   57.3440 O.2   195  LEU195     -0.2718
    103  CB        -0.0130   75.5330   55.8210 C.3   195  LEU195      0.0284
    104  CG        -1.1700   74.5610   55.6660 C.3   195  LEU195      0.0019
    105  CD1       -1.5820   74.4510   54.2080 C.3   195  LEU195      0.0001
    106  CD2       -0.7770   73.1760   56.1560 C.3   195  LEU195      0.0001
    107  N          2.7780   76.4740   57.3670 N.am  196  THR196     -0.1939
    108  CA         3.7670   77.5400   57.4920 C.3   196  THR196      0.2028
    109  C          4.2930   78.0590   56.1610 C.2   196  THR196      0.2642
    110  O          5.1790   78.8850   56.1620 O.2   196  THR196     -0.2714
    111  CB         4.9970   77.1140   58.3450 C.3   196  THR196      0.1808
    112  OG1        5.6570   76.0000   57.6860 O.3   196  THR196     -0.2208
    113  CG2        4.5040   76.6410   59.7390 C.3   196  THR196      0.0379
    114  N          3.7090   77.5410   55.0490 N.am  197  HIS197     -0.1959
    115  CA         3.9970   78.1460   53.7460 C.3   197  HIS197      0.1772
    116  C          2.7170   78.1320   52.9260 C.2   197  HIS197      0.2462
    117  O          1.7430   77.5360   53.3640 O.2   197  HIS197     -0.2730
    118  CB         5.2000   77.4890   53.0670 C.3   197  HIS197      0.0785
    119  CG         5.0220   76.0380   52.7480 C.ar  197  HIS197      0.0821
    120  ND1        4.0800   75.6010   51.8960 N.ar  197  HIS197     -0.2267
    121  CD2        5.7360   74.9220   53.1490 C.ar  197  HIS197      0.1154
    122  CE1        4.1790   74.2320   51.7920 C.ar  197  HIS197      0.1986
    123  NE2        5.1840   73.8470   52.5540 N.ar  197  HIS197     -0.2212
    124  N          2.6930   78.8340   51.7720 N.am  198  PRO198     -0.2716
    125  CA         1.5010   78.8850   50.9110 C.3   198  PRO198      0.1521
    126  C          1.0190   77.4740   50.6600 C.2   198  PRO198      0.2440
    127  O          1.8400   76.5960   50.3290 O.2   198  PRO198     -0.2731
    128  CB         2.0460   79.6050   49.6770 C.3   198  PRO198      0.0310
    129  CG         2.9230   80.6270   50.2870 C.3   198  PRO198      0.0237
    130  CD         3.7120   79.7990   51.3060 C.3   198  PRO198      0.0939
    131  N         -0.2850   77.2130   50.7950 N.am  199  PRO199     -0.2727
    132  CA        -1.3740   78.2050   50.8120 C.3   199  PRO199      0.1402
    133  C         -1.7320   78.8030   52.1730 C.2   199  PRO199      0.2269
    134  O         -2.6950   79.6260   52.2640 O.2   199  PRO199     -0.2865
    135  CB        -2.5530   77.3890   50.2990 C.3   199  PRO199      0.0296
    136  CG        -2.2630   75.9810   50.6450 C.3   199  PRO199      0.0237
    137  CD        -0.7860   75.8470   50.5330 C.3   199  PRO199      0.0939
    138  N         -4.3830   73.9360   60.8660 N.3   204  VAL204     -0.1245
    139  CA        -3.4800   73.0450   61.5980 C.3   204  VAL204      0.1561
    140  C         -3.6480   73.1220   63.1530 C.2   204  VAL204      0.2260
    141  O         -3.5530   74.2160   63.7230 O.2   204  VAL204     -0.2867
    142  CB        -1.9990   73.3790   61.2610 C.3   204  VAL204      0.0252
    143  CG1       -1.0340   72.4000   61.9860 C.3   204  VAL204      0.0019
    144  CG2       -1.7110   73.2670   59.7190 C.3   204  VAL204      0.0019
    145  N         -1.3620   72.4260   65.9860 N.3   206  TRP206     -0.1241
    146  CA         0.0520   72.1370   66.1830 C.3   206  TRP206      0.1605
    147  C          0.3160   71.3750   67.4410 C.2   206  TRP206      0.2264
    148  O         -0.2300   71.7440   68.5210 O.2   206  TRP206     -0.2867
    149  CB         0.8540   73.4700   66.2320 C.3   206  TRP206      0.0550
    150  CG         1.0820   73.9430   64.8370 C.ar  206  TRP206      0.0003
    151  CD1        0.3700   74.8820   64.1360 C.ar  206  TRP206      0.0946
    152  CD2        2.0900   73.4200   63.9000 C.ar  206  TRP206      0.0152
    153  NE1        0.8800   74.9740   62.8110 N.ar  206  TRP206     -0.2442
    154  CE2        1.9040   74.1350   62.6480 C.ar  206  TRP206      0.0810
    155  CE3        3.1190   72.4710   64.0040 C.ar  206  TRP206      0.0012
    156  CZ2        2.7220   73.8830   61.4990 C.ar  206  TRP206      0.0191
    157  CZ3        4.0020   72.2880   62.8910 C.ar  206  TRP206      0.0001
    158  CH2        3.7560   72.9240   61.6600 C.ar  206  TRP206      0.0015
@<TRIPOS>BOND
     1    78    75    1
     2    75    76    1
     3    75    74    1
     4   128   129    1
     5   128   125    1
     6    76    77    2
     7   129   130    1
     8   135   136    1
     9   135   132    1
    10   127   126    2
    11     7     9   ar
    12     7     6   ar
    13    74    68   am
    14     4     3    2
    15   137   136    1
    16   137   131    1
    17     9    10   ar
    18   126   131   am
    19   126   125    1
    20     1     2    1
    21   131   132    1
    22   132   133    1
    23   125   124    1
    24     5     6    1
    25     5     2    1
    26     6     8   ar
    27   130   124    1
    28    10     8   ar
    29     3     2    1
    30    73    71    1
    31    68    69    2
    32    68    67    1
    33   124   116   am
    34   122   120   ar
    35   122   123   ar
    36   120   119   ar
    37    66    67    1
    38    30    28   am
    39    70    71    1
    40    70    67    1
    41   133   134    2
    42    71    72    1
    43   123   121   ar
    44   119   118    1
    45   119   121   ar
    46    83    80    1
    47   116   117    2
    48   116   115    1
    49   118   115    1
    50    28    29    2
    51    28    27    1
    52   115   114    1
    53    14    13    2
    54    27    26    1
    55    79    80    1
    56    18    20   ar
    57    18    16   ar
    58    80    81    1
    59   105   104    1
    60    20    21   ar
    61    81    82    2
    62    26    23    1
    63    15    16    1
    64    15    12    1
    65    16    17   ar
    66    13    12    1
    67    13    22   am
    68   114   109   am
    69    35    36    1
    70    35    32    1
    71    23    22    1
    72    23    24    1
    73    12    11    1
    74    21    19   ar
    75   104   103    1
    76   104   106    1
    77    37    36   ar
    78    37    39   ar
    79    36    38   ar
    80   103   100    1
    81    17    19   ar
    82   109   110    2
    83   109   108    1
    84    32    31    1
    85    32    33    1
    86    39    40   ar
    87    38    40   ar
    88    24    25    2
    89    49    47   ar
    90    49    50   ar
    91    47    46   ar
    92    90    89    1
    93    91    89    1
    94    33    34    1
    95   100   101    1
    96   100    99    1
    97   102   101    2
    98   107   101   am
    99   107   108    1
   100    50    48   ar
   101   108   111    1
   102    89    88    1
   103   112   111    1
   104    42    41    1
   105    42    43    1
   106    42    45    1
   107    46    48   ar
   108    46    45    1
   109    65    62    1
   110    43    44    2
   111   111   113    1
   112    64    63    2
   113    88    85    1
   114    63    62    1
   115    62    61    1
   116    54    53    2
   117    57    59   ar
   118    57    56   ar
   119   144   142    1
   120    84    85    1
   121    85    86    1
   122    55    56    1
   123    55    52    1
   124    98    96    1
   125    53    52    1
   126    59    60   ar
   127    56    58   ar
   128   138   139    1
   129    52    51    1
   130   142   139    1
   131   142   143    1
   132    86    87    2
   133    97    96    1
   134   156   158   ar
   135   156   154   ar
   136   139   140    1
   137   158   157   ar
   138    96    93    1
   139    60    58   ar
   140   154   153   ar
   141   154   152   ar
   142    93    92    1
   143    93    94    1
   144   153   151   ar
   145   157   155   ar
   146   140   141    2
   147   152   155   ar
   148   152   150   ar
   149    94    95    2
   150   151   150   ar
   151   150   149    1
   152   145   146    1
   153   146   149    1
   154   146   147    1
   155   147   148    2
