@<TRIPOS>MOLECULE
tmp/4wutA00.pdb
 127 121 0 0 0
SMALL
GASTEIGER

@<TRIPOS>ATOM
      1  N          8.6080   34.5870   44.6510 N.3     8  LYS8       -0.1245
      2  CA         8.8970   33.3450   45.3450 C.3     8  LYS8        0.1561
      3  C         10.2100   33.3520   46.1270 C.2     8  LYS8        0.2260
      4  O         10.3430   32.6360   47.0970 O.2     8  LYS8       -0.2867
      5  CB         8.9120   32.1600   44.3930 C.3     8  LYS8        0.0271
      6  CG         7.6080   31.9330   43.6050 C.3     8  LYS8        0.0035
      7  CD         7.7320   30.6710   42.7690 C.3     8  LYS8        0.0206
      8  CE         6.5980   30.4760   41.7760 C.3     8  LYS8        0.1093
      9  NZ         6.8160   29.2240   41.0190 N.3     8  LYS8       -0.1314
     10  N         17.5430   35.3500   43.0360 N.3    12  SER12      -0.1217
     11  CA        17.2810   34.7830   41.7310 C.3    12  SER12       0.1889
     12  C         17.4460   35.8020   40.6020 C.2    12  SER12       0.2288
     13  O         16.8550   36.8910   40.6390 O.2    12  SER12      -0.2866
     14  CB        15.8450   34.2410   41.7500 C.3    12  SER12       0.2089
     15  OG        15.3520   34.0120   40.4660 O.3    12  SER12      -0.2183
     16  N         16.2170   35.4350   37.6700 N.3    14  PHE14      -0.1227
     17  CA        14.8980   35.4870   37.0560 C.3    14  PHE14       0.1736
     18  C         14.0270   36.5190   37.7810 C.2    14  PHE14       0.2595
     19  O         13.4710   37.3990   37.1510 O.2    14  PHE14      -0.2718
     20  CB        14.2310   34.1010   37.0570 C.3    14  PHE14       0.0547
     21  CG        12.8300   34.1020   36.5030 C.ar   14  PHE14      -0.0202
     22  CD1       11.7430   34.3400   37.3210 C.ar   14  PHE14      -0.0042
     23  CD2       12.5970   33.8590   35.1570 C.ar   14  PHE14      -0.0042
     24  CE1       10.4570   34.3570   36.8060 C.ar   14  PHE14      -0.0003
     25  CE2       11.3070   33.8800   34.6520 C.ar   14  PHE14      -0.0003
     26  CZ        10.2450   34.1180   35.4820 C.ar   14  PHE14      -0.0000
     27  N         13.9050   36.4050   39.1060 N.am   15  TRP15      -0.1976
     28  CA        13.0300   37.3200   39.8430 C.3    15  TRP15       0.1640
     29  C         13.5980   38.7320   39.8490 C.2    15  TRP15       0.2290
     30  O         12.8390   39.6970   39.8660 O.2    15  TRP15      -0.2864
     31  CB        12.7220   36.8210   41.2710 C.3    15  TRP15       0.0576
     32  CG        11.9130   35.5540   41.2610 C.ar   15  TRP15       0.0006
     33  CD1       12.2950   34.3260   41.7060 C.ar   15  TRP15       0.0946
     34  CD2       10.5920   35.3890   40.7280 C.ar   15  TRP15       0.0152
     35  NE1       11.2880   33.4100   41.4970 N.ar   15  TRP15      -0.2442
     36  CE2       10.2380   34.0400   40.8910 C.ar   15  TRP15       0.0810
     37  CE3        9.6850   36.2530   40.1280 C.ar   15  TRP15       0.0012
     38  CZ2        9.0100   33.5350   40.4670 C.ar   15  TRP15       0.0191
     39  CZ3        8.4680   35.7520   39.7080 C.ar   15  TRP15       0.0001
     40  CH2        8.1350   34.4130   39.8920 C.ar   15  TRP15       0.0015
     41  N         12.1310   29.2600   47.2180 N.3    42  GLU42      -0.1245
     42  CA        10.8170   29.0290   46.6290 C.3    42  GLU42       0.1567
     43  C          9.9840   27.9890   47.3470 C.2    42  GLU42       0.2260
     44  O          8.7630   27.9660   47.2070 O.2    42  GLU42      -0.2867
     45  CB        10.9490   28.6340   45.1430 C.3    42  GLU42       0.0388
     46  CG        11.6280   29.7100   44.2950 C.3    42  GLU42       0.1160
     47  CD        11.3200   29.6430   42.8170 C.2    42  GLU42       0.3649
     48  OE1       10.8170   28.5860   42.3080 O.co2  42  GLU42      -0.2457
     49  OE2       11.5510   30.6920   42.1660 O.co2  42  GLU42      -0.2457
     50  N          3.1920   34.7660   36.7330 N.3    90  ASP90      -0.1239
     51  CA         4.1060   33.6330   36.5920 C.3    90  ASP90       0.1674
     52  C          3.5190   32.2670   36.9210 C.2    90  ASP90       0.2266
     53  O          3.6030   31.3340   36.1170 O.2    90  ASP90      -0.2867
     54  CB         5.3810   33.8370   37.4090 C.3    90  ASP90       0.1410
     55  CG         6.2710   32.6360   37.3580 C.2    90  ASP90       0.3668
     56  OD1        6.9270   32.4270   36.3090 O.co2  90  ASP90      -0.2456
     57  OD2        6.3070   31.8500   38.3430 O.co2  90  ASP90      -0.2456
     58  N         11.3080   21.3210   39.7650 N.3   132  TYR132     -0.1241
     59  CA        11.6900   22.2510   40.8140 C.3   132  TYR132      0.1605
     60  C         10.8420   22.0430   42.0610 C.2   132  TYR132      0.2264
     61  O         11.2210   21.2660   42.9330 O.2   132  TYR132     -0.2867
     62  CB        11.7140   23.7230   40.3120 C.3   132  TYR132      0.0534
     63  CG        10.6300   24.2330   39.4200 C.ar  132  TYR132     -0.0201
     64  CD1       10.5550   23.8380   38.0880 C.ar  132  TYR132     -0.0009
     65  CD2        9.7510   25.2170   39.8510 C.ar  132  TYR132     -0.0009
     66  CE1        9.6070   24.3410   37.2410 C.ar  132  TYR132      0.0417
     67  CE2        8.8010   25.7350   39.0030 C.ar  132  TYR132      0.0417
     68  CZ         8.7310   25.2930   37.6950 C.ar  132  TYR132      0.1957
     69  OH         7.7920   25.8050   36.8420 O.3   132  TYR132     -0.2866
     70  N          3.4160   27.3200   38.0550 N.3   138  SER138     -0.1217
     71  CA         4.0450   27.2280   36.7170 C.3   138  SER138      0.1889
     72  C          4.5000   25.7900   36.4130 C.2   138  SER138      0.2288
     73  O          4.5060   25.3520   35.2540 O.2   138  SER138     -0.2866
     74  CB         5.2190   28.1810   36.6280 C.3   138  SER138      0.2089
     75  OG         6.1690   27.8920   37.6420 O.3   138  SER138     -0.2183
     76  N          3.8220   23.2840   33.0030 N.3   142  ARG142     -0.1245
     77  CA         5.0580   23.1910   32.2470 C.3   142  ARG142      0.1563
     78  C          5.5250   21.7350   32.1650 C.2   142  ARG142      0.2260
     79  O          5.7940   21.1720   31.0940 O.2   142  ARG142     -0.2867
     80  CB         6.1200   24.0400   32.9390 C.3   142  ARG142      0.0307
     81  CG         7.3660   24.1980   32.1300 C.3   142  ARG142      0.0489
     82  CD         8.3380   25.1180   32.8180 C.3   142  ARG142      0.2205
     83  NE         7.7680   26.4380   33.0120 N.pl3 142  ARG142     -0.0865
     84  CZ         8.3240   27.4210   33.7070 C.cat 142  ARG142      0.5346
     85  NH1        9.5200   27.2670   34.2890 N.pl3 142  ARG142      0.1354
     86  NH2        7.7010   28.5720   33.8090 N.pl3 142  ARG142      0.1354
     87  N         13.2470   24.8360   35.1670 N.3   191  ASN191     -0.1225
     88  CA        13.3450   26.2490   35.4910 C.3   191  ASN191      0.1785
     89  C         14.8040   26.6830   35.6330 C.2   191  ASN191      0.2597
     90  O         15.7290   25.8690   35.5150 O.2   191  ASN191     -0.2718
     91  CB        12.5110   26.6310   36.7280 C.3   191  ASN191      0.1169
     92  CG        13.1830   26.2960   38.0530 C.2   191  ASN191      0.2627
     93  OD1       14.1120   25.4930   38.1460 O.2   191  ASN191     -0.2716
     94  ND2       12.6800   26.9120   39.1110 N.am  191  ASN191     -0.0877
     95  N         14.9810   27.9640   35.8890 N.am  192  GLU192     -0.1966
     96  CA        16.3060   28.5770   35.8550 C.3   192  GLU192      0.1718
     97  C         17.3480   27.8640   36.7470 C.2   192  GLU192      0.2458
     98  O         18.3680   27.3660   36.2440 O.2   192  GLU192     -0.2730
     99  CB        16.2190   30.0810   36.1520 C.3   192  GLU192      0.0428
    100  CG        17.5740   30.7850   36.1300 C.3   192  GLU192      0.1163
    101  CD        17.4700   32.2310   36.6080 C.2   192  GLU192      0.3649
    102  OE1       17.2090   32.4510   37.8130 O.co2 192  GLU192     -0.2457
    103  OE2       17.6140   33.1550   35.7870 O.co2 192  GLU192     -0.2457
    104  N         17.1060   27.7890   38.0680 N.am  193  PRO193     -0.2727
    105  CA        18.1510   27.1670   38.8800 C.3   193  PRO193      0.1402
    106  C         18.3290   25.6780   38.5790 C.2   193  PRO193      0.2269
    107  O         19.4310   25.1370   38.6980 O.2   193  PRO193     -0.2865
    108  CB        17.6570   27.3710   40.3100 C.3   193  PRO193      0.0296
    109  CG        16.1580   27.5530   40.1620 C.3   193  PRO193      0.0237
    110  CD        16.0320   28.3360   38.9070 C.3   193  PRO193      0.0939
    111  N         14.5600   29.3120   30.8310 N.3   216  ASP216     -0.1239
    112  CA        14.9970   30.6140   31.2640 C.3   216  ASP216      0.1674
    113  C         16.3160   31.0320   30.5980 C.2   216  ASP216      0.2266
    114  O         16.8910   30.2750   29.8190 O.2   216  ASP216     -0.2867
    115  CB        14.9700   30.7240   32.7940 C.3   216  ASP216      0.1410
    116  CG        13.5700   30.5620   33.3480 C.2   216  ASP216      0.3668
    117  OD1       12.6550   31.2170   32.8040 O.co2 216  ASP216     -0.2456
    118  OD2       13.3760   29.7710   34.2830 O.co2 216  ASP216     -0.2456
    119  N         11.1060   32.9470   28.9190 N.3   236  GLN236     -0.1245
    120  CA         9.8390   33.6060   29.2260 C.3   236  GLN236      0.1566
    121  C          9.9360   35.1340   29.1720 C.2   236  GLN236      0.2260
    122  O         11.0120   35.7020   29.0110 O.2   236  GLN236     -0.2867
    123  CB         9.3610   33.1900   30.6190 C.3   236  GLN236      0.0367
    124  CG         9.3570   31.7230   30.8660 C.3   236  GLN236      0.0905
    125  CD         8.8550   31.4280   32.2520 C.2   236  GLN236      0.2608
    126  OE1        7.6490   31.4700   32.5100 O.2   236  GLN236     -0.2717
    127  NE2        9.7620   31.1840   33.1580 N.am  236  GLN236     -0.0878
@<TRIPOS>BOND
     1   119   120    1
     2   122   121    2
     3   121   120    1
     4   120   123    1
     5   114   113    2
     6   113   112    1
     7   123   124    1
     8   111   112    1
     9   124   125    1
    10    79    78    2
    11   112   115    1
    12    81    82    1
    13    81    80    1
    14    78    77    1
    15    77    80    1
    16    77    76    1
    17   125   126    2
    18   125   127   am
    19   115   116    1
    20   117   116   ar
    21    82    83    1
    22    83    84    2
    23   116   118   ar
    24    84    86    1
    25    84    85    1
    26    25    23   ar
    27    25    26   ar
    28    23    21   ar
    29    87    88    1
    30    73    72    2
    31    26    24   ar
    32    88    89    1
    33    88    91    1
    34    90    89    2
    35    89    95   am
    36   103   101   ar
    37    96    95    1
    38    96    99    1
    39    96    97    1
    40    53    52    2
    41   100    99    1
    42   100   101    1
    43    98    97    2
    44    56    55   ar
    45    72    71    1
    46    21    20    1
    47    21    22   ar
    48    51    50    1
    49    51    52    1
    50    51    54    1
    51   101   102   ar
    52    74    71    1
    53    74    75    1
    54    71    70    1
    55    91    92    1
    56    97   104   am
    57    24    22   ar
    58    69    68    1
    59    17    20    1
    60    17    16    1
    61    17    18    1
    62    19    18    2
    63    66    68   ar
    64    66    64   ar
    65    55    54    1
    66    55    57   ar
    67    68    67   ar
    68    18    27   am
    69    92    93    2
    70    92    94   am
    71   104   105    1
    72   104   110    1
    73    64    63   ar
    74   106   107    2
    75   106   105    1
    76   105   108    1
    77   110   109    1
    78    67    65   ar
    79    27    28    1
    80    63    65   ar
    81    63    62    1
    82    39    40   ar
    83    39    37   ar
    84    58    59    1
    85    28    29    1
    86    28    31    1
    87    29    30    2
    88    40    38   ar
    89    37    34   ar
    90   109   108    1
    91    62    59    1
    92    15    14    1
    93    38    36   ar
    94    12    13    2
    95    12    11    1
    96    34    36   ar
    97    34    32   ar
    98    59    60    1
    99    36    35   ar
   100     9     8    1
   101    32    31    1
   102    32    33   ar
   103    35    33   ar
   104    11    14    1
   105    11    10    1
   106     8     7    1
   107    60    61    2
   108    49    47   ar
   109    48    47   ar
   110     7     6    1
   111    47    46    1
   112     6     5    1
   113    46    45    1
   114     5     2    1
   115     1     2    1
   116    45    42    1
   117     2     3    1
   118     3     4    2
   119    42    41    1
   120    42    43    1
   121    44    43    2
