@<TRIPOS>MOLECULE
tmp/4wuyA00.pdb
 204 196 0 0 0
SMALL
GASTEIGER

@<TRIPOS>ATOM
      1  N        -14.8810  -20.6850   33.1710 N.3   101  THR101     -0.1218
      2  CA       -15.8990  -21.3590   33.9790 C.3   101  THR101      0.1862
      3  C        -15.9970  -20.7580   35.3870 C.2   101  THR101      0.2287
      4  O        -17.1000  -20.5220   35.8880 O.2   101  THR101     -0.2866
      5  CB       -15.6460  -22.8780   34.0410 C.3   101  THR101      0.1770
      6  OG1      -15.7560  -23.4160   32.7200 O.3   101  THR101     -0.2211
      7  CG2      -16.6730  -23.5600   34.9380 C.3   101  THR101      0.0375
      8  N        -17.6450  -17.2710   35.1130 N.3   104  LEU104     -0.1245
      9  CA       -19.0940  -17.3890   34.9590 C.3   104  LEU104      0.1561
     10  C        -19.7690  -17.8010   36.2700 C.2   104  LEU104      0.2260
     11  O        -20.8130  -17.2630   36.6440 O.2   104  LEU104     -0.2867
     12  CB       -19.4260  -18.3950   33.8530 C.3   104  LEU104      0.0270
     13  CG       -20.9160  -18.5850   33.5640 C.3   104  LEU104      0.0019
     14  CD1      -21.5660  -17.2780   33.1280 C.3   104  LEU104      0.0001
     15  CD2      -21.1240  -19.6710   32.5130 C.3   104  LEU104      0.0001
     16  N        -19.4890  -38.3350   37.8780 N.3   137  LEU137     -0.1245
     17  CA       -18.2010  -37.6590   37.7300 C.3   137  LEU137      0.1561
     18  C        -17.0460  -38.5750   38.1150 C.2   137  LEU137      0.2260
     19  O        -17.0430  -39.1550   39.2000 O.2   137  LEU137     -0.2867
     20  CB       -18.1530  -36.3760   38.5710 C.3   137  LEU137      0.0270
     21  CG       -19.2670  -35.3320   38.4170 C.3   137  LEU137      0.0019
     22  CD1      -18.9910  -34.1520   39.3370 C.3   137  LEU137      0.0001
     23  CD2      -19.4220  -34.8660   36.9740 C.3   137  LEU137      0.0001
     24  N        -12.7620  -35.2320   36.4320 N.3   141  LYS141     -0.1245
     25  CA       -13.7460  -34.1510   36.5390 C.3   141  LYS141      0.1561
     26  C        -13.8260  -33.5770   37.9580 C.2   141  LYS141      0.2260
     27  O        -13.9310  -32.3600   38.1300 O.2   141  LYS141     -0.2867
     28  CB       -15.1250  -34.6030   36.0450 C.3   141  LYS141      0.0271
     29  CG       -15.2400  -34.7010   34.5280 C.3   141  LYS141      0.0035
     30  CD       -16.6610  -35.0490   34.1080 C.3   141  LYS141      0.0206
     31  CE       -16.8520  -34.9550   32.6010 C.3   141  LYS141      0.1093
     32  NZ       -16.2320  -36.0850   31.8550 N.3   141  LYS141     -0.1314
     33  N        -10.7630  -31.3620   38.5690 N.3   144  LEU144     -0.1231
     34  CA       -10.9430  -30.0950   37.8500 C.3   144  LEU144      0.1693
     35  C        -11.8770  -29.1600   38.6120 C.2   144  LEU144      0.2591
     36  O        -11.6180  -27.9570   38.7080 O.2   144  LEU144     -0.2718
     37  CB       -11.4720  -30.3290   36.4320 C.3   144  LEU144      0.0284
     38  CG       -10.5030  -30.8890   35.3850 C.3   144  LEU144      0.0019
     39  CD1      -11.2680  -31.3780   34.1640 C.3   144  LEU144      0.0001
     40  CD2       -9.4510  -29.8630   34.9850 C.3   144  LEU144      0.0001
     41  N        -12.9560  -29.7180   39.1590 N.am  145  ILE145     -0.1980
     42  CA       -13.8800  -28.9350   39.9810 C.3   145  ILE145      0.1595
     43  C        -13.1900  -28.3930   41.2380 C.2   145  ILE145      0.2287
     44  O        -13.3900  -27.2380   41.6020 O.2   145  ILE145     -0.2864
     45  CB       -15.1720  -29.7180   40.3170 C.3   145  ILE145      0.0276
     46  CG1      -16.0300  -29.8710   39.0550 C.3   145  ILE145      0.0022
     47  CG2      -15.9770  -29.0060   41.4030 C.3   145  ILE145      0.0022
     48  CD1      -17.1480  -30.8880   39.1730 C.3   145  ILE145      0.0001
     49  N        -20.5830  -28.5390   38.6670 N.3   173  ALA173     -0.1245
     50  CA       -21.1070  -29.6290   37.8460 C.3   173  ALA173      0.1562
     51  C        -22.2910  -29.1600   36.9940 C.2   173  ALA173      0.2260
     52  O        -22.3530  -29.4620   35.8040 O.2   173  ALA173     -0.2867
     53  CB       -21.4930  -30.8260   38.7030 C.3   173  ALA173      0.0290
     54  N        -22.9450  -26.0310   36.0540 N.3   175  VAL175     -0.1231
     55  CA       -22.4480  -25.0810   35.0530 C.3   175  VAL175      0.1692
     56  C        -21.8350  -25.8170   33.8600 C.2   175  VAL175      0.2592
     57  O        -22.0840  -25.4580   32.7140 O.2   175  VAL175     -0.2718
     58  CB       -21.4400  -24.0740   35.6640 C.3   175  VAL175      0.0266
     59  CG1      -20.7780  -23.2280   34.5830 C.3   175  VAL175      0.0020
     60  CG2      -22.1400  -23.1770   36.6710 C.3   175  VAL175      0.0020
     61  N        -21.0500  -26.8580   34.1300 N.am  176  ASN176     -0.1960
     62  CA       -20.4770  -27.6610   33.0590 C.3   176  ASN176      0.1819
     63  C        -21.5280  -28.3580   32.1980 C.2   176  ASN176      0.2621
     64  O        -21.3890  -28.4190   30.9770 O.2   176  ASN176     -0.2715
     65  CB       -19.4590  -28.6620   33.6130 C.3   176  ASN176      0.1195
     66  CG       -18.1150  -28.0180   33.8780 C.2   176  ASN176      0.2630
     67  OD1      -17.3420  -27.7680   32.9500 O.2   176  ASN176     -0.2716
     68  ND2      -17.8320  -27.7320   35.1420 N.am  176  ASN176     -0.0877
     69  N        -22.5770  -28.8680   32.8400 N.am  177  CYS177     -0.1954
     70  CA       -23.6270  -29.6140   32.1410 C.3   177  CYS177      0.1843
     71  C        -24.5860  -28.7120   31.3690 C.2   177  CYS177      0.2625
     72  O        -25.1870  -29.1410   30.3830 O.2   177  CYS177     -0.2714
     73  CB       -24.4150  -30.4850   33.1250 C.3   177  CYS177      0.0997
     74  SG       -23.4910  -31.9000   33.7670 S.3   177  CYS177     -0.0797
     75  N        -24.7210  -27.4650   31.8170 N.am  178  ASN178     -0.1958
     76  CA       -25.7440  -26.5600   31.2850 C.3   178  ASN178      0.1819
     77  C        -25.2510  -25.2580   30.6460 C.2   178  ASN178      0.2622
     78  O        -26.0410  -24.5290   30.0340 O.2   178  ASN178     -0.2715
     79  CB       -26.7550  -26.2350   32.3850 C.3   178  ASN178      0.1195
     80  CG       -27.5310  -27.4540   32.8340 C.2   178  ASN178      0.2630
     81  OD1      -28.5600  -27.7910   32.2510 O.2   178  ASN178     -0.2716
     82  ND2      -27.0330  -28.1300   33.8680 N.am  178  ASN178     -0.0877
     83  N        -23.9620  -24.9620   30.7960 N.am  179  GLY179     -0.1940
     84  CA       -23.3990  -23.7140   30.2780 C.3   179  GLY179      0.2014
     85  C        -23.4010  -23.6430   28.7600 C.2   179  GLY179      0.2639
     86  O        -23.3150  -24.6680   28.0790 O.2   179  GLY179     -0.2714
     87  N        -23.5240  -22.4240   28.2390 N.am  180  PHE180     -0.1959
     88  CA       -23.4250  -22.1660   26.8100 C.3   180  PHE180      0.1771
     89  C        -22.2070  -21.3130   26.5050 C.2   180  PHE180      0.2620
     90  O        -21.8420  -20.4280   27.2850 O.2   180  PHE180     -0.2715
     91  CB       -24.6460  -21.3890   26.3230 C.3   180  PHE180      0.0574
     92  CG       -25.9080  -22.1930   26.2740 C.ar  180  PHE180     -0.0200
     93  CD1      -26.6810  -22.3660   27.4210 C.ar  180  PHE180     -0.0042
     94  CD2      -26.3550  -22.7330   25.0650 C.ar  180  PHE180     -0.0042
     95  CE1      -27.8660  -23.0880   27.3730 C.ar  180  PHE180     -0.0003
     96  CE2      -27.5350  -23.4630   25.0120 C.ar  180  PHE180     -0.0003
     97  CZ       -28.2890  -23.6380   26.1690 C.ar  180  PHE180     -0.0000
     98  N        -21.5890  -21.5770   25.3630 N.am  181  THR181     -0.1951
     99  CA       -20.6940  -20.5940   24.7720 C.3   181  THR181      0.1897
    100  C        -21.5010  -19.6950   23.8340 C.2   181  THR181      0.2313
    101  O        -22.4130  -20.1560   23.1360 O.2   181  THR181     -0.2863
    102  CB       -19.5240  -21.2430   24.0090 C.3   181  THR181      0.1794
    103  OG1      -20.0370  -22.1510   23.0300 O.3   181  THR181     -0.2208
    104  CG2      -18.5980  -21.9910   24.9610 C.3   181  THR181      0.0378
    105  N        -19.0910  -16.9130   27.6550 N.3   192  SER192     -0.1217
    106  CA       -19.8600  -18.0300   28.2010 C.3   192  SER192      0.1889
    107  C        -21.0640  -17.4890   28.9590 C.2   192  SER192      0.2288
    108  O        -21.0280  -16.3810   29.4830 O.2   192  SER192     -0.2866
    109  CB       -18.9800  -18.8930   29.1150 C.3   192  SER192      0.2089
    110  OG       -17.9000  -19.4840   28.3900 O.3   192  SER192     -0.2183
    111  N        -33.2660  -22.1670   27.7980 N.3   198  VAL198     -0.1231
    112  CA       -32.6670  -22.7900   26.6140 C.3   198  VAL198      0.1692
    113  C        -32.0410  -24.1440   26.9820 C.2   198  VAL198      0.2591
    114  O        -32.0860  -25.0900   26.1920 O.2   198  VAL198     -0.2718
    115  CB       -31.6340  -21.8600   25.9370 C.3   198  VAL198      0.0266
    116  CG1      -31.1110  -22.4720   24.6470 C.3   198  VAL198      0.0020
    117  CG2      -32.2540  -20.5020   25.6460 C.3   198  VAL198      0.0020
    118  N        -31.5100  -24.2400   28.2010 N.am  199  ALA199     -0.1980
    119  CA       -30.8680  -25.4700   28.6790 C.3   199  ALA199      0.1597
    120  C        -31.8640  -26.6180   28.8580 C.2   199  ALA199      0.2287
    121  O        -31.4600  -27.7680   28.9590 O.2   199  ALA199     -0.2864
    122  CB       -30.1220  -25.2110   29.9830 C.3   199  ALA199      0.0319
    123  N        -33.8660  -27.7610   26.6210 N.3   201  MET201     -0.1245
    124  CA       -33.9830  -28.5470   25.3860 C.3   201  MET201      0.1570
    125  C        -32.9830  -29.6870   25.3270 C.2   201  MET201      0.2261
    126  O        -31.7930  -29.5020   25.5660 O.2   201  MET201     -0.2867
    127  CB       -33.8290  -27.6720   24.1510 C.3   201  MET201      0.0387
    128  CG       -34.9110  -26.6170   24.0460 C.3   201  MET201      0.0595
    129  SD       -34.7760  -25.6350   22.5500 S.3   201  MET201     -0.1393
    130  CE       -33.2970  -24.6790   22.8570 C.3   201  MET201      0.0692
    131  N        -27.6130  -15.8640   18.9580 N.3   213  TYR213     -0.1241
    132  CA       -27.5100  -14.8210   19.9680 C.3   213  TYR213      0.1605
    133  C        -27.6310  -13.4270   19.3740 C.2   213  TYR213      0.2264
    134  O        -27.0840  -13.1420   18.3100 O.2   213  TYR213     -0.2867
    135  CB       -26.2030  -14.9560   20.7430 C.3   213  TYR213      0.0534
    136  CG       -25.9720  -16.3480   21.2710 C.ar  213  TYR213     -0.0201
    137  CD1      -26.6470  -16.8020   22.4050 C.ar  213  TYR213     -0.0009
    138  CD2      -25.1010  -17.2250   20.6220 C.ar  213  TYR213     -0.0009
    139  CE1      -26.4470  -18.0870   22.8860 C.ar  213  TYR213      0.0417
    140  CE2      -24.8970  -18.5180   21.0990 C.ar  213  TYR213      0.0417
    141  CZ       -25.5710  -18.9370   22.2340 C.ar  213  TYR213      0.1957
    142  OH       -25.3770  -20.2100   22.7270 O.3   213  TYR213     -0.2866
    143  N        -32.3890  -29.2980   20.1210 N.3   234  THR234     -0.1203
    144  CA       -31.2560  -28.5490   19.5830 C.3   234  THR234      0.1994
    145  C        -30.0460  -29.4920   19.4710 C.2   234  THR234      0.2619
    146  O        -30.0440  -30.5460   20.0930 O.2   234  THR234     -0.2717
    147  CB       -30.9320  -27.3350   20.4880 C.3   234  THR234      0.1784
    148  OG1      -30.0000  -26.4780   19.8310 O.3   234  THR234     -0.2211
    149  CG2      -30.3510  -27.7780   21.8440 C.3   234  THR234      0.0376
    150  N        -29.0280  -29.1320   18.6870 N.am  235  SER235     -0.1937
    151  CA       -27.7930  -29.9310   18.6670 C.3   235  SER235      0.2055
    152  C        -26.7610  -29.3780   19.6400 C.2   235  SER235      0.2643
    153  O        -26.4510  -28.1870   19.6200 O.2   235  SER235     -0.2714
    154  CB       -27.1760  -30.0170   17.2720 C.3   235  SER235      0.2130
    155  OG       -25.9270  -30.6940   17.3400 O.3   235  SER235     -0.2179
    156  N        -26.2200  -30.2560   20.4790 N.am  236  TYR236     -0.1973
    157  CA       -25.2010  -29.8710   21.4590 C.3   236  TYR236      0.1639
    158  C        -23.7960  -29.8500   20.8560 C.2   236  TYR236      0.2290
    159  O        -22.8520  -29.3680   21.4860 O.2   236  TYR236     -0.2864
    160  CB       -25.1860  -30.8560   22.6330 C.3   236  TYR236      0.0560
    161  CG       -26.3950  -30.8800   23.5520 C.ar  236  TYR236     -0.0198
    162  CD1      -27.5530  -30.1270   23.2890 C.ar  236  TYR236     -0.0009
    163  CD2      -26.3900  -31.6950   24.6810 C.ar  236  TYR236     -0.0009
    164  CE1      -28.6480  -30.1860   24.1390 C.ar  236  TYR236      0.0417
    165  CE2      -27.4820  -31.7580   25.5340 C.ar  236  TYR236      0.0417
    166  CZ       -28.6090  -31.0080   25.2560 C.ar  236  TYR236      0.1957
    167  OH       -29.6830  -31.0810   26.1160 O.3   236  TYR236     -0.2866
    168  N        -18.9130  -38.1450   27.0010 N.3   252  ASP252     -0.1225
    169  CA       -17.8700  -37.5620   27.8430 C.3   252  ASP252      0.1805
    170  C        -18.2950  -36.2290   28.4550 C.2   252  ASP252      0.2598
    171  O        -17.9680  -35.9380   29.6040 O.2   252  ASP252     -0.2718
    172  CB       -16.5690  -37.4070   27.0450 C.3   252  ASP252      0.1424
    173  CG       -15.4420  -36.7900   27.8640 C.2   252  ASP252      0.3668
    174  OD1      -15.1020  -37.3270   28.9420 O.co2 252  ASP252     -0.2456
    175  OD2      -14.8890  -35.7630   27.4170 O.co2 252  ASP252     -0.2456
    176  N        -19.0480  -35.4410   27.6920 N.am  253  SER253     -0.1938
    177  CA       -19.4390  -34.0980   28.1130 C.3   253  SER253      0.2055
    178  C        -20.8060  -34.0320   28.7850 C.2   253  SER253      0.2643
    179  O        -21.0100  -33.2130   29.6830 O.2   253  SER253     -0.2714
    180  CB       -19.4050  -33.1370   26.9250 C.3   253  SER253      0.2130
    181  OG       -18.0760  -32.8330   26.5610 O.3   253  SER253     -0.2179
    182  N        -21.7330  -34.8900   28.3500 N.am  254  TYR254     -0.1959
    183  CA       -23.1390  -34.7920   28.7730 C.3   254  TYR254      0.1771
    184  C        -23.7550  -36.0850   29.3300 C.2   254  TYR254      0.2619
    185  O        -24.9370  -36.1240   29.6730 O.2   254  TYR254     -0.2715
    186  CB       -23.9890  -34.2090   27.6340 C.3   254  TYR254      0.0574
    187  CG       -23.5690  -32.7980   27.2900 C.ar  254  TYR254     -0.0198
    188  CD1      -23.8320  -31.7490   28.1690 C.ar  254  TYR254     -0.0009
    189  CD2      -22.8770  -32.5170   26.1130 C.ar  254  TYR254     -0.0009
    190  CE1      -23.4280  -30.4540   27.8830 C.ar  254  TYR254      0.0417
    191  CE2      -22.4740  -31.2210   25.8180 C.ar  254  TYR254      0.0417
    192  CZ       -22.7540  -30.1960   26.7100 C.ar  254  TYR254      0.1957
    193  OH       -22.3550  -28.9060   26.4300 O.3   254  TYR254     -0.2866
    194  N        -22.9430  -37.1350   29.4360 N.am  255  PHE255     -0.1974
    195  CA       -23.3580  -38.3730   30.1010 C.3   255  PHE255      0.1639
    196  C        -24.5950  -39.0200   29.4850 C.2   255  PHE255      0.2290
    197  O        -25.4390  -39.5610   30.1970 O.2   255  PHE255     -0.2864
    198  CB       -23.5630  -38.1300   31.6090 C.3   255  PHE255      0.0560
    199  CG       -22.3650  -37.5280   32.2820 C.ar  255  PHE255     -0.0200
    200  CD1      -21.3000  -38.3320   32.6810 C.ar  255  PHE255     -0.0042
    201  CD2      -22.2840  -36.1570   32.4920 C.ar  255  PHE255     -0.0042
    202  CE1      -20.1850  -37.7790   33.2900 C.ar  255  PHE255     -0.0003
    203  CE2      -21.1700  -35.5970   33.1020 C.ar  255  PHE255     -0.0003
    204  CZ       -20.1210  -36.4100   33.4990 C.ar  255  PHE255     -0.0000
@<TRIPOS>BOND
     1   154   155    1
     2   154   151    1
     3   134   133    2
     4   151   150    1
     5   151   152    1
     6   150   145   am
     7   131   132    1
     8   133   132    1
     9   145   144    1
    10   145   146    2
    11   144   143    1
    12   144   147    1
    13   153   152    2
    14   152   156   am
    15   148   147    1
    16   132   135    1
    17   156   157    1
    18   147   149    1
    19   138   140   ar
    20   138   136   ar
    21   135   136    1
    22   158   157    1
    23   158   159    2
    24   140   141   ar
    25   136   137   ar
    26   157   160    1
    27   141   142    1
    28   141   139   ar
    29   137   139   ar
    30   129   130    1
    31   129   128    1
    32   160   161    1
    33   103   102    1
    34   101   100    2
    35   162   161   ar
    36   162   164   ar
    37   161   163   ar
    38   100    99    1
    39   102    99    1
    40   102   104    1
    41   128   127    1
    42   164   166   ar
    43   127   124    1
    44   116   115    1
    45   163   165   ar
    46    99    98    1
    47    96    94   ar
    48    96    97   ar
    49    94    92   ar
    50   166   165   ar
    51   166   167    1
    52   125   124    1
    53   125   126    2
    54    98    89   am
    55   124   123    1
    56   117   115    1
    57   191   189   ar
    58   191   192   ar
    59   115   112    1
    60   189   187   ar
    61    97    95   ar
    62   114   113    2
    63    92    91    1
    64    92    93   ar
    65    91    88    1
    66   193   192    1
    67    89    88    1
    68    89    90    2
    69   181   180    1
    70   112   113    1
    71   112   111    1
    72   192   190   ar
    73    88    87    1
    74   180   177    1
    75   113   118   am
    76   168   169    1
    77   172   169    1
    78   172   173    1
    79   187   186    1
    80   187   188   ar
    81    95    93   ar
    82   175   173   ar
    83   186   183    1
    84   105   106    1
    85   176   177    1
    86   176   170   am
    87   169   170    1
    88   173   174   ar
    89   190   188   ar
    90    86    85    2
    91   177   178    1
    92   118   119    1
    93   106   107    1
    94   106   109    1
    95    87    85   am
    96   182   183    1
    97   182   178   am
    98   110   109    1
    99   170   171    2
   100   119   120    1
   101   119   122    1
   102    85    84    1
   103   183   184    1
   104   178   179    2
   105   120   121    2
   106   107   108    2
   107   184   194   am
   108   184   185    2
   109   194   195    1
   110   196   195    1
   111   196   197    2
   112    78    77    2
   113   195   198    1
   114    84    83    1
   115    72    71    2
   116    77    83   am
   117    77    76    1
   118    64    63    2
   119    76    75    1
   120    76    79    1
   121    71    75   am
   122    71    70    1
   123   198   199    1
   124    32    31    1
   125    70    69    1
   126    70    73    1
   127    63    69   am
   128    63    62    1
   129    81    80    2
   130   199   201   ar
   131   199   200   ar
   132    79    80    1
   133   201   203   ar
   134    15    13    1
   135    31    30    1
   136   200   202   ar
   137    57    56    2
   138     6     5    1
   139    80    82   am
   140    67    66    2
   141    62    65    1
   142    62    61    1
   143   203   204   ar
   144    73    74    1
   145    14    13    1
   146     1     2    1
   147   202   204   ar
   148    13    12    1
   149    65    66    1
   150    12     9    1
   151    56    61   am
   152    56    55    1
   153    66    68   am
   154     2     5    1
   155     2     3    1
   156     5     7    1
   157    30    29    1
   158    39    38    1
   159    29    28    1
   160    59    58    1
   161     9     8    1
   162     9    10    1
   163    40    38    1
   164    55    58    1
   165    55    54    1
   166    38    37    1
   167     3     4    2
   168    58    60    1
   169    52    51    2
   170    28    25    1
   171    10    11    2
   172    37    34    1
   173    24    25    1
   174    25    26    1
   175    23    21    1
   176    51    50    1
   177    17    16    1
   178    17    18    1
   179    17    20    1
   180    50    49    1
   181    50    53    1
   182    34    33    1
   183    34    35    1
   184    26    27    2
   185    18    19    2
   186    21    20    1
   187    21    22    1
   188    35    36    2
   189    35    41   am
   190    46    48    1
   191    46    45    1
   192    41    42    1
   193    42    45    1
   194    42    43    1
   195    45    47    1
   196    43    44    2
