@<TRIPOS>MOLECULE
tmp/4wv3B00.pdb
 216 210 0 0 0
SMALL
GASTEIGER

@<TRIPOS>ATOM
      1  N        -22.9400   -3.3310  -52.9780 N.3   175  SER175     -0.1217
      2  CA       -23.1720   -4.5150  -52.1610 C.3   175  SER175      0.1889
      3  C        -21.8880   -5.0000  -51.4950 C.2   175  SER175      0.2288
      4  O        -20.7910   -4.8090  -52.0220 O.2   175  SER175     -0.2866
      5  CB       -23.7780   -5.6360  -53.0070 C.3   175  SER175      0.2089
      6  OG       -24.0390   -6.7850  -52.2210 O.3   175  SER175     -0.2183
      7  N        -30.7120   -0.4500  -49.1780 N.3   220  PHE220     -0.1227
      8  CA       -30.8100   -1.8760  -49.4460 C.3   220  PHE220      0.1736
      9  C        -32.0070   -2.0710  -50.3700 C.2   220  PHE220      0.2596
     10  O        -33.1360   -1.7510  -49.9960 O.2   220  PHE220     -0.2718
     11  CB       -31.0270   -2.6230  -48.1280 C.3   220  PHE220      0.0547
     12  CG       -30.9380   -4.1190  -48.2440 C.ar  220  PHE220     -0.0202
     13  CD1      -30.3820   -4.7160  -49.3630 C.ar  220  PHE220     -0.0042
     14  CD2      -31.4190   -4.9290  -47.2270 C.ar  220  PHE220     -0.0042
     15  CE1      -30.3050   -6.0920  -49.4630 C.ar  220  PHE220     -0.0003
     16  CE2      -31.3460   -6.3040  -47.3220 C.ar  220  PHE220     -0.0003
     17  CZ       -30.7890   -6.8860  -48.4400 C.ar  220  PHE220     -0.0000
     18  N        -31.7640   -2.5910  -51.5720 N.am  221  THR221     -0.1939
     19  CA       -32.8130   -2.6860  -52.5910 C.3   221  THR221      0.2028
     20  C        -34.0110   -3.5280  -52.1560 C.2   221  THR221      0.2642
     21  O        -35.1050   -3.3810  -52.7000 O.2   221  THR221     -0.2714
     22  CB       -32.2810   -3.2120  -53.9450 C.3   221  THR221      0.1808
     23  OG1      -31.7790   -4.5440  -53.7880 O.3   221  THR221     -0.2208
     24  CG2      -31.1820   -2.3070  -54.4810 C.3   221  THR221      0.0379
     25  N        -33.7990   -4.4060  -51.1800 N.am  222  PHE222     -0.1973
     26  CA       -34.8940   -5.1650  -50.5880 C.3   222  PHE222      0.1639
     27  C        -35.8930   -4.2110  -49.9430 C.2   222  PHE222      0.2290
     28  O        -37.1050   -4.3600  -50.1040 O.2   222  PHE222     -0.2864
     29  CB       -34.3610   -6.1630  -49.5570 C.3   222  PHE222      0.0560
     30  CG       -35.4360   -6.8740  -48.7850 C.ar  222  PHE222     -0.0200
     31  CD1      -36.5070   -7.4630  -49.4410 C.ar  222  PHE222     -0.0042
     32  CD2      -35.3690   -6.9680  -47.4050 C.ar  222  PHE222     -0.0042
     33  CE1      -37.4960   -8.1190  -48.7320 C.ar  222  PHE222     -0.0003
     34  CE2      -36.3530   -7.6260  -46.6910 C.ar  222  PHE222     -0.0003
     35  CZ       -37.4180   -8.2020  -47.3550 C.ar  222  PHE222     -0.0000
     36  N        -36.5280  -11.8130  -46.2540 N.3   293  ALA293     -0.1231
     37  CA       -35.4740  -12.0270  -47.2380 C.3   293  ALA293      0.1694
     38  C        -34.1620  -11.6510  -46.5660 C.2   293  ALA293      0.2593
     39  O        -34.1250  -11.4270  -45.3580 O.2   293  ALA293     -0.2718
     40  CB       -35.5790  -11.0170  -48.3620 C.3   293  ALA293      0.0304
     41  N        -33.0880  -11.6070  -47.3490 N.am  294  SER294     -0.1938
     42  CA       -31.7500  -11.4050  -46.8110 C.3   294  SER294      0.2055
     43  C        -31.1090  -12.7680  -46.5800 C.2   294  SER294      0.2643
     44  O        -30.0660  -13.0860  -47.1520 O.2   294  SER294     -0.2714
     45  CB       -31.8070  -10.6170  -45.5020 C.3   294  SER294      0.2130
     46  OG       -30.5940   -9.9230  -45.2700 O.3   294  SER294     -0.2179
     47  N        -31.7540  -13.5720  -45.7410 N.am  295  GLU295     -0.1963
     48  CA       -31.3530  -14.9570  -45.5110 C.3   295  GLU295      0.1733
     49  C        -32.5660  -15.8810  -45.4770 C.2   295  GLU295      0.2616
     50  O        -33.7070  -15.4200  -45.4180 O.2   295  GLU295     -0.2715
     51  CB       -30.5460  -15.0810  -44.2150 C.3   295  GLU295      0.0429
     52  CG       -29.1090  -14.5920  -44.3270 C.3   295  GLU295      0.1163
     53  CD       -28.2240  -15.1050  -43.2070 C.2   295  GLU295      0.3649
     54  OE1      -28.7300  -15.8420  -42.3340 O.co2 295  GLU295     -0.2457
     55  OE2      -27.0200  -14.7730  -43.2010 O.co2 295  GLU295     -0.2457
     56  N        -32.3160  -17.1860  -45.5180 N.am  296  ALA296     -0.1977
     57  CA       -33.3930  -18.1690  -45.5380 C.3   296  ALA296      0.1597
     58  C        -34.1020  -18.2550  -44.1920 C.2   296  ALA296      0.2287
     59  O        -33.4800  -18.5370  -43.1690 O.2   296  ALA296     -0.2864
     60  CB       -32.8570  -19.5330  -45.9420 C.3   296  ALA296      0.0319
     61  N        -41.5360  -15.7100  -47.5660 N.3   315  ASP315     -0.1225
     62  CA       -40.0930  -15.7950  -47.7630 C.3   315  ASP315      0.1805
     63  C        -39.7560  -15.8390  -49.2480 C.2   315  ASP315      0.2598
     64  O        -40.3320  -16.6220  -50.0030 O.2   315  ASP315     -0.2718
     65  CB       -39.5160  -17.0250  -47.0570 C.3   315  ASP315      0.1424
     66  CG       -37.9980  -17.0900  -47.1400 C.2   315  ASP315      0.3668
     67  OD1      -37.3580  -16.0240  -47.2530 O.co2 315  ASP315     -0.2456
     68  OD2      -37.4420  -18.2080  -47.0870 O.co2 315  ASP315     -0.2456
     69  N        -38.8190  -14.9920  -49.6590 N.am  316  GLY316     -0.1942
     70  CA       -38.3820  -14.9470  -51.0410 C.3   316  GLY316      0.2014
     71  C        -36.9480  -14.4720  -51.1530 C.2   316  GLY316      0.2639
     72  O        -36.5340  -13.5580  -50.4380 O.2   316  GLY316     -0.2714
     73  N        -36.1830  -15.0950  -52.0440 N.am  317  ILE317     -0.1963
     74  CA       -34.7860  -14.7200  -52.2330 C.3   317  ILE317      0.1727
     75  C        -34.6180  -13.6990  -53.3540 C.2   317  ILE317      0.2617
     76  O        -35.2150  -13.8230  -54.4240 O.2   317  ILE317     -0.2715
     77  CB       -33.8770  -15.9490  -52.4940 C.3   317  ILE317      0.0290
     78  CG1      -32.4250  -15.5080  -52.7040 C.3   317  ILE317      0.0022
     79  CG2      -34.3670  -16.7470  -53.6920 C.3   317  ILE317      0.0023
     80  CD1      -31.4750  -16.6400  -53.0110 C.3   317  ILE317      0.0001
     81  N        -33.8100  -12.6790  -53.0890 N.am  318  GLY318     -0.1940
     82  CA       -33.4570  -11.6970  -54.0940 C.3   318  GLY318      0.2014
     83  C        -32.0100  -11.2810  -53.9330 C.2   318  GLY318      0.2639
     84  O        -31.3480  -11.6790  -52.9770 O.2   318  GLY318     -0.2714
     85  N        -31.5150  -10.4880  -54.8750 N.am  319  CYS319     -0.1953
     86  CA       -30.1710   -9.9390  -54.7760 C.3   319  CYS319      0.1843
     87  C        -30.1280   -8.5610  -55.4190 C.2   319  CYS319      0.2626
     88  O        -30.9730   -8.2310  -56.2500 O.2   319  CYS319     -0.2714
     89  CB       -29.1430  -10.8740  -55.4220 C.3   319  CYS319      0.0997
     90  SG       -29.3800  -11.1810  -57.1880 S.3   319  CYS319     -0.0797
     91  N        -29.1450   -7.7580  -55.0240 N.am  320  THR320     -0.1936
     92  CA       -29.0110   -6.4010  -55.5410 C.3   320  THR320      0.2028
     93  C        -28.7640   -6.4040  -57.0500 C.2   320  THR320      0.2642
     94  O        -29.2030   -5.5000  -57.7610 O.2   320  THR320     -0.2714
     95  CB       -27.8850   -5.6340  -54.8190 C.3   320  THR320      0.1808
     96  OG1      -28.0830   -5.7190  -53.4030 O.3   320  THR320     -0.2208
     97  CG2      -27.8740   -4.1710  -55.2360 C.3   320  THR320      0.0379
     98  N        -28.0750   -7.4340  -57.5340 N.am  321  GLU321     -0.1976
     99  CA       -27.8260   -7.5830  -58.9650 C.3   321  GLU321      0.1602
    100  C        -29.1330   -7.7120  -59.7440 C.2   321  GLU321      0.2287
    101  O        -29.2210   -7.2970  -60.8980 O.2   321  GLU321     -0.2864
    102  CB       -26.9300   -8.7930  -59.2450 C.3   321  GLU321      0.0415
    103  CG       -25.4770   -8.6250  -58.8190 C.3   321  GLU321      0.1163
    104  CD       -25.2440   -8.9530  -57.3550 C.2   321  GLU321      0.3649
    105  OE1      -26.2330   -9.1720  -56.6230 O.co2 321  GLU321     -0.2457
    106  OE2      -24.0660   -8.9950  -56.9390 O.co2 321  GLU321     -0.2457
    107  N        -31.9750   -6.5560  -58.3060 N.3   323  PHE323     -0.1227
    108  CA       -32.8260   -5.5260  -57.7230 C.3   323  PHE323      0.1736
    109  C        -33.7110   -6.0960  -56.6170 C.2   323  PHE323      0.2595
    110  O        -33.6520   -5.6470  -55.4720 O.2   323  PHE323     -0.2718
    111  CB       -33.6910   -4.8710  -58.8020 C.3   323  PHE323      0.0547
    112  CG       -34.3790   -3.6160  -58.3470 C.ar  323  PHE323     -0.0202
    113  CD1      -33.6660   -2.4410  -58.1780 C.ar  323  PHE323     -0.0042
    114  CD2      -35.7400   -3.6110  -58.0890 C.ar  323  PHE323     -0.0042
    115  CE1      -34.2960   -1.2840  -57.7590 C.ar  323  PHE323     -0.0003
    116  CE2      -36.3770   -2.4580  -57.6710 C.ar  323  PHE323     -0.0003
    117  CZ       -35.6540   -1.2930  -57.5050 C.ar  323  PHE323     -0.0000
    118  N        -34.5290   -7.0850  -56.9640 N.am  324  HIS324     -0.1961
    119  CA       -35.4300   -7.7060  -55.9970 C.3   324  HIS324      0.1787
    120  C        -35.6270   -9.2150  -56.1630 C.2   324  HIS324      0.2620
    121  O        -34.8910   -9.8760  -56.8940 O.2   324  HIS324     -0.2715
    122  CB       -36.7780   -6.9800  -55.9960 C.3   324  HIS324      0.0785
    123  CG       -37.3680   -6.8140  -54.6290 C.ar  324  HIS324      0.0821
    124  ND1      -38.3300   -7.6620  -54.1240 N.ar  324  HIS324     -0.2267
    125  CD2      -37.1220   -5.9040  -53.6580 C.ar  324  HIS324      0.1154
    126  CE1      -38.6550   -7.2780  -52.9020 C.ar  324  HIS324      0.1986
    127  NE2      -37.9370   -6.2130  -52.5960 N.ar  324  HIS324     -0.2212
    128  N        -36.6340   -9.7380  -55.4690 N.am  325  ILE325     -0.1963
    129  CA       -36.8740  -11.1760  -55.3550 C.3   325  ILE325      0.1727
    130  C        -37.1590  -11.8660  -56.6910 C.2   325  ILE325      0.2616
    131  O        -37.9100  -11.3500  -57.5190 O.2   325  ILE325     -0.2715
    132  CB       -38.0290  -11.4500  -54.3620 C.3   325  ILE325      0.0290
    133  CG1      -37.6810  -10.8830  -52.9830 C.3   325  ILE325      0.0022
    134  CG2      -38.3320  -12.9360  -54.2670 C.3   325  ILE325      0.0023
    135  CD1      -38.7300  -11.1450  -51.9250 C.3   325  ILE325      0.0001
    136  N        -36.5510  -13.0330  -56.8920 N.am  326  PHE326     -0.1974
    137  CA       -36.7520  -13.8080  -58.1160 C.3   326  PHE326      0.1639
    138  C        -37.3240  -15.2030  -57.8510 C.2   326  PHE326      0.2290
    139  O        -37.8510  -15.8490  -58.7570 O.2   326  PHE326     -0.2864
    140  CB       -35.4580  -13.8940  -58.9330 C.3   326  PHE326      0.0560
    141  CG       -34.2640  -14.3420  -58.1420 C.ar  326  PHE326     -0.0200
    142  CD1      -33.9010  -15.6770  -58.1070 C.ar  326  PHE326     -0.0042
    143  CD2      -33.4950  -13.4240  -57.4420 C.ar  326  PHE326     -0.0042
    144  CE1      -32.7990  -16.0910  -57.3810 C.ar  326  PHE326     -0.0003
    145  CE2      -32.3950  -13.8320  -56.7150 C.ar  326  PHE326     -0.0003
    146  CZ       -32.0460  -15.1670  -56.6840 C.ar  326  PHE326     -0.0000
    147  N        -37.5680  -21.1340  -50.2890 N.3   339  SER339     -0.1217
    148  CA       -37.6590  -19.8290  -50.9310 C.3   339  SER339      0.1889
    149  C        -38.9040  -19.7450  -51.8100 C.2   339  SER339      0.2288
    150  O        -39.1710  -18.7130  -52.4210 O.2   339  SER339     -0.2866
    151  CB       -36.4090  -19.5510  -51.7690 C.3   339  SER339      0.2089
    152  OG       -35.2480  -19.5090  -50.9590 O.3   339  SER339     -0.2183
    153  N        -25.7400  -16.1470  -58.9760 N.3   395  THR395     -0.1218
    154  CA       -25.9880  -15.4990  -57.6920 C.3   395  THR395      0.1862
    155  C        -25.0370  -15.9800  -56.5970 C.2   395  THR395      0.2287
    156  O        -25.0220  -15.4320  -55.4940 O.2   395  THR395     -0.2866
    157  CB       -27.4460  -15.7040  -57.2250 C.3   395  THR395      0.1770
    158  OG1      -27.6790  -17.0930  -56.9640 O.3   395  THR395     -0.2211
    159  CG2      -28.4220  -15.2170  -58.2860 C.3   395  THR395      0.0375
    160  N        -25.1410  -18.8570  -55.1060 N.3   397  ASP397     -0.1239
    161  CA       -25.8890  -19.6260  -54.1160 C.3   397  ASP397      0.1674
    162  C        -26.0410  -21.0900  -54.5110 C.2   397  ASP397      0.2266
    163  O        -26.1830  -21.4170  -55.6900 O.2   397  ASP397     -0.2867
    164  CB       -27.2770  -19.0200  -53.8970 C.3   397  ASP397      0.1410
    165  CG       -27.2190  -17.6380  -53.2900 C.2   397  ASP397      0.3668
    166  OD1      -26.9580  -17.5360  -52.0740 O.co2 397  ASP397     -0.2456
    167  OD2      -27.4430  -16.6540  -54.0260 O.co2 397  ASP397     -0.2456
    168  N        -28.5110  -24.2070  -54.2810 N.3   399  TYR399     -0.1241
    169  CA       -29.9280  -24.4730  -54.0710 C.3   399  TYR399      0.1605
    170  C        -30.2860  -25.8940  -54.4780 C.2   399  TYR399      0.2264
    171  O        -29.5860  -26.5170  -55.2760 O.2   399  TYR399     -0.2867
    172  CB       -30.7740  -23.4980  -54.8930 C.3   399  TYR399      0.0534
    173  CG       -31.3920  -22.3690  -54.1010 C.ar  399  TYR399     -0.0201
    174  CD1      -30.6670  -21.2240  -53.8040 C.ar  399  TYR399     -0.0009
    175  CD2      -32.7080  -22.4430  -53.6650 C.ar  399  TYR399     -0.0009
    176  CE1      -31.2330  -20.1870  -53.0880 C.ar  399  TYR399      0.0417
    177  CE2      -33.2820  -21.4120  -52.9450 C.ar  399  TYR399      0.0417
    178  CZ       -32.5380  -20.2870  -52.6600 C.ar  399  TYR399      0.1957
    179  OH       -33.1030  -19.2570  -51.9450 O.3   399  TYR399     -0.2866
    180  N        -32.7660  -23.1750  -49.9880 N.3   409  HIS409     -0.1241
    181  CA       -31.4350  -22.5850  -49.9390 C.3   409  HIS409      0.1621
    182  C        -30.4750  -23.4550  -49.1340 C.2   409  HIS409      0.2264
    183  O        -30.6300  -23.6060  -47.9230 O.2   409  HIS409     -0.2867
    184  CB       -31.5070  -21.1850  -49.3240 C.3   409  HIS409      0.0745
    185  CG       -30.2210  -20.4220  -49.3970 C.ar  409  HIS409      0.0817
    186  ND1      -29.4610  -20.3480  -50.5430 N.ar  409  HIS409     -0.2268
    187  CD2      -29.5660  -19.6850  -48.4660 C.ar  409  HIS409      0.1154
    188  CE1      -28.3930  -19.6030  -50.3180 C.ar  409  HIS409      0.1986
    189  NE2      -28.4350  -19.1890  -49.0640 N.ar  409  HIS409     -0.2212
    190  N        -24.8050  -20.0160  -49.2180 N.3   412  ARG412     -0.1245
    191  CA       -23.8110  -19.4440  -50.1170 C.3   412  ARG412      0.1563
    192  C        -22.7930  -20.5240  -50.4450 C.2   412  ARG412      0.2260
    193  O        -22.5120  -21.3870  -49.6130 O.2   412  ARG412     -0.2867
    194  CB       -23.1030  -18.2590  -49.4580 C.3   412  ARG412      0.0307
    195  CG       -23.9910  -17.0590  -49.1790 C.3   412  ARG412      0.0489
    196  CD       -24.4030  -16.3690  -50.4660 C.3   412  ARG412      0.2205
    197  NE       -23.2540  -15.8740  -51.2180 N.pl3 412  ARG412     -0.0865
    198  CZ       -23.3390  -15.2640  -52.3950 C.cat 412  ARG412      0.5346
    199  NH1      -24.5230  -15.0720  -52.9610 N.pl3 412  ARG412      0.1354
    200  NH2      -22.2410  -14.8460  -53.0090 N.pl3 412  ARG412      0.1354
    201  N        -27.6660   -5.3700  -43.4270 N.3   500  THR500     -0.1218
    202  CA       -28.6900   -5.9000  -44.3170 C.3   500  THR500      0.1862
    203  C        -29.2890   -7.1930  -43.7720 C.2   500  THR500      0.2287
    204  O        -29.9640   -7.9270  -44.4920 O.2   500  THR500     -0.2866
    205  CB       -28.1320   -6.1490  -45.7330 C.3   500  THR500      0.1770
    206  OG1      -27.0780   -7.1180  -45.6730 O.3   500  THR500     -0.2211
    207  CG2      -27.5930   -4.8560  -46.3270 C.3   500  THR500      0.0375
    208  N        -27.6830   -9.9100  -42.5540 N.3   502  LYS502     -0.1245
    209  CA       -26.9520  -11.1260  -42.8950 C.3   502  LYS502      0.1561
    210  C        -25.8910  -11.4350  -41.8490 C.2   502  LYS502      0.2260
    211  O        -25.2980  -10.5270  -41.2760 O.2   502  LYS502     -0.2867
    212  CB       -26.2840  -10.9890  -44.2640 C.3   502  LYS502      0.0271
    213  CG       -27.2430  -10.7380  -45.4050 C.3   502  LYS502      0.0035
    214  CD       -26.5000  -10.5580  -46.7150 C.3   502  LYS502      0.0206
    215  CE       -27.4530  -10.2010  -47.8410 C.3   502  LYS502      0.1093
    216  NZ       -28.4580  -11.2710  -48.0800 N.3   502  LYS502     -0.1314
@<TRIPOS>BOND
     1   101   100    2
     2   100    99    1
     3   102    99    1
     4   102   103    1
     5   153   154    1
     6    99    98    1
     7   140   141    1
     8   140   137    1
     9   103   104    1
    10   111   112    1
    11   111   108    1
    12   139   138    2
    13   112   113   ar
    14   112   114   ar
    15   107   108    1
    16   159   157    1
    17   113   115   ar
    18   141   142   ar
    19   141   143   ar
    20   137   138    1
    21   137   136    1
    22   142   144   ar
    23   114   116   ar
    24    94    93    2
    25   115   117   ar
    26   108   109    1
    27   154   157    1
    28   154   155    1
    29   116   117   ar
    30    98    93   am
    31   131   130    2
    32   143   145   ar
    33   144   146   ar
    34   104   106   ar
    35   104   105   ar
    36   157   158    1
    37    90    89    1
    38    93    92    1
    39   118   109   am
    40   118   119    1
    41   121   120    2
    42   136   130   am
    43   145   146   ar
    44   130   129    1
    45   109   110    2
    46   155   156    2
    47    88    87    2
    48   120   119    1
    49   120   128   am
    50   119   122    1
    51   122   123    1
    52   163   162    2
    53    92    91    1
    54    92    95    1
    55   128   129    1
    56    89    86    1
    57    87    91   am
    58    87    86    1
    59   129   132    1
    60   171   170    2
    61    97    95    1
    62   160   161    1
    63   172   173    1
    64   172   169    1
    65    85    86    1
    66    85    83   am
    67    95    96    1
    68   123   124   ar
    69   123   125   ar
    70   162   161    1
    71    24    22    1
    72   170   169    1
    73    76    75    2
    74   132   134    1
    75   132   133    1
    76   168   169    1
    77   124   126   ar
    78   161   164    1
    79   173   174   ar
    80   173   175   ar
    81    82    83    1
    82    82    81    1
    83   167   165   ar
    84    22    23    1
    85    22    19    1
    86    83    84    2
    87   164   165    1
    88   174   176   ar
    89    79    77    1
    90   175   177   ar
    91   125   127   ar
    92    75    81   am
    93    75    74    1
    94   165   166   ar
    95   176   178   ar
    96    80    78    1
    97   200   198    1
    98     5     6    1
    99     5     2    1
   100   133   135    1
   101     1     2    1
   102   199   198    1
   103   177   178   ar
   104   126   127   ar
   105    78    77    1
   106    21    20    2
   107   178   179    1
   108    19    20    1
   109    19    18    1
   110    77    74    1
   111   150   149    2
   112   198   197    2
   113    74    73    1
   114     2     3    1
   115    20    25   am
   116    73    71   am
   117     4     3    2
   118   149   148    1
   119   151   152    1
   120   151   148    1
   121    18     9   am
   122   197   196    1
   123    25    26    1
   124    71    70    1
   125    71    72    2
   126    70    69    1
   127   148   147    1
   128    26    27    1
   129    26    29    1
   130   186   188   ar
   131   186   185   ar
   132   196   195    1
   133   192   191    1
   134   192   193    2
   135     9    10    2
   136     9     8    1
   137   188   189   ar
   138   191   194    1
   139   191   190    1
   140    28    27    2
   141    64    63    2
   142   180   181    1
   143   181   184    1
   144   181   182    1
   145    69    63   am
   146    29    30    1
   147    15    13   ar
   148    15    17   ar
   149   194   195    1
   150     8     7    1
   151     8    11    1
   152    31    30   ar
   153    31    33   ar
   154   185   184    1
   155   185   187   ar
   156    13    12   ar
   157    63    62    1
   158   182   183    2
   159   189   187   ar
   160    30    32   ar
   161    33    35   ar
   162    17    16   ar
   163    40    37    1
   164    12    11    1
   165    12    14   ar
   166   216   215    1
   167   215   214    1
   168    62    61    1
   169    62    65    1
   170    32    34   ar
   171    35    34   ar
   172    41    42    1
   173    41    38   am
   174    16    14   ar
   175    67    66   ar
   176    37    38    1
   177    37    36    1
   178    44    43    2
   179    66    68   ar
   180    66    65    1
   181    42    43    1
   182    42    45    1
   183   214   213    1
   184    43    47   am
   185    38    39    2
   186   207   205    1
   187    60    57    1
   188    47    48    1
   189   205   206    1
   190   205   202    1
   191    57    56    1
   192    57    58    1
   193    56    49   am
   194    48    49    1
   195    48    51    1
   196    45    46    1
   197    49    50    2
   198   213   212    1
   199   204   203    2
   200    52    51    1
   201    52    53    1
   202   202   203    1
   203   202   201    1
   204   212   209    1
   205    58    59    2
   206    53    55   ar
   207    53    54   ar
   208   209   208    1
   209   209   210    1
   210   210   211    2
