@<TRIPOS>MOLECULE
tmp/4wv6A00.pdb
 137 130 0 0 0
SMALL
GASTEIGER

@<TRIPOS>ATOM
      1  N        -30.4470  -10.6700    6.0460 N.3   169  LYS169     -0.1245
      2  CA       -31.7240  -10.5150    5.3680 C.3   169  LYS169      0.1561
      3  C        -32.1900  -11.8630    4.8200 C.2   169  LYS169      0.2260
      4  O        -31.5640  -12.9090    5.0640 O.2   169  LYS169     -0.2867
      5  CB       -31.6030   -9.4910    4.2400 C.3   169  LYS169      0.0271
      6  CG       -31.1500   -8.1210    4.7020 C.3   169  LYS169      0.0035
      7  CD       -30.4940   -7.3180    3.5830 C.3   169  LYS169      0.0206
      8  CE       -31.4910   -6.9010    2.5250 C.3   169  LYS169      0.1093
      9  NZ       -30.9440   -5.8280    1.6470 N.3   169  LYS169     -0.1314
     10  N        -30.5200   -1.4660    6.3280 N.3   209  ASP209     -0.1225
     11  CA       -30.2790   -2.1460    5.0640 C.3   209  ASP209      0.1805
     12  C        -31.5280   -2.9500    4.7440 C.2   209  ASP209      0.2598
     13  O        -31.6220   -4.1450    5.0350 O.2   209  ASP209     -0.2718
     14  CB       -29.0370   -3.0390    5.1770 C.3   209  ASP209      0.1424
     15  CG       -28.6120   -3.6650    3.8560 C.2   209  ASP209      0.3668
     16  OD1      -29.3330   -3.5480    2.8390 O.co2 209  ASP209     -0.2456
     17  OD2      -27.5350   -4.3090    3.8550 O.co2 209  ASP209     -0.2456
     18  N        -32.5130   -2.2800    4.1640 N.am  210  GLY210     -0.1957
     19  CA       -33.7800   -2.9280    3.9190 C.3   210  GLY210      0.1869
     20  C        -34.8090   -1.9400    3.4320 C.2   210  GLY210      0.2309
     21  O        -34.4770   -0.8180    3.0620 O.2   210  GLY210     -0.2863
     22  N        -27.3710    4.0510    4.0260 N.3   248  ASN248     -0.1240
     23  CA       -28.5710    3.2110    3.9380 C.3   248  ASN248      0.1653
     24  C        -29.8530    4.0230    4.1380 C.2   248  ASN248      0.2266
     25  O        -30.8260    3.8480    3.4010 O.2   248  ASN248     -0.2867
     26  CB       -28.5000    2.0820    4.9550 C.3   248  ASN248      0.1155
     27  CG       -27.5640    0.9500    4.5200 C.2   248  ASN248      0.2627
     28  OD1      -27.1730    0.8460    3.3560 O.2   248  ASN248     -0.2716
     29  ND2      -27.2630    0.0620    5.4490 N.am  248  ASN248     -0.0877
     30  N        -30.4760    7.1410    3.4160 N.3   250  VAL250     -0.1231
     31  CA       -30.8190    7.9380    2.2510 C.3   250  VAL250      0.1692
     32  C        -31.1560    7.1230    1.0060 C.2   250  VAL250      0.2593
     33  O        -31.4590    7.6980   -0.0410 O.2   250  VAL250     -0.2718
     34  CB       -29.7100    8.9740    1.9200 C.3   250  VAL250      0.0266
     35  CG1      -29.5240    9.9050    3.1170 C.3   250  VAL250      0.0020
     36  CG2      -28.4030    8.3240    1.4870 C.3   250  VAL250      0.0020
     37  N        -31.1800    5.7950    1.1210 N.am  251  THR251     -0.1939
     38  CA       -31.8290    4.9870    0.0850 C.3   251  THR251      0.2028
     39  C        -33.3420    4.9260    0.3020 C.2   251  THR251      0.2643
     40  O        -34.0700    4.3240   -0.5110 O.2   251  THR251     -0.2714
     41  CB       -31.3040    3.5490    0.0210 C.3   251  THR251      0.1808
     42  OG1      -31.7680    2.7900    1.1480 O.3   251  THR251     -0.2208
     43  CG2      -29.7530    3.5280   -0.0640 C.3   251  THR251      0.0379
     44  N        -33.8100    5.5610    1.3720 N.am  252  GLY252     -0.1939
     45  CA       -35.2110    5.5220    1.7350 C.3   252  GLY252      0.2014
     46  C        -36.0050    6.6370    1.0780 C.2   252  GLY252      0.2640
     47  O        -35.6540    7.1120   -0.0140 O.2   252  GLY252     -0.2714
     48  N        -37.0680    7.0590    1.7530 N.am  253  THR253     -0.1936
     49  CA       -37.9620    8.0760    1.2010 C.3   253  THR253      0.2028
     50  C        -37.3170    9.4570    1.2040 C.2   253  THR253      0.2642
     51  O        -36.2960    9.6710    1.8440 O.2   253  THR253     -0.2714
     52  CB       -39.2440    8.1590    1.9850 C.3   253  THR253      0.1808
     53  OG1      -38.9710    8.6130    3.3170 O.3   253  THR253     -0.2208
     54  CG2      -39.9500    6.7950    2.0440 C.3   253  THR253      0.0379
     55  N        -37.9290   10.4080    0.5090 N.am  254  ASP254     -0.1971
     56  CA       -37.4400   11.7830    0.5250 C.3   254  ASP254      0.1709
     57  C        -37.4500   12.3280    1.9470 C.2   254  ASP254      0.2293
     58  O        -36.5450   13.0700    2.3420 O.2   254  ASP254     -0.2864
     59  CB       -38.3060   12.6950   -0.3750 C.3   254  ASP254      0.1436
     60  CG       -38.2080   12.3550   -1.8460 C.2   254  ASP254      0.3671
     61  OD1      -37.1500   11.8560   -2.2950 O.co2 254  ASP254     -0.2456
     62  OD2      -39.1950   12.6560   -2.5710 O.co2 254  ASP254     -0.2456
     63  N        -34.6270   10.9000    3.9000 N.3   257  THR257     -0.1218
     64  CA       -33.3960   11.5510    3.4580 C.3   257  THR257      0.1862
     65  C        -33.2990   12.9470    4.0670 C.2   257  THR257      0.2287
     66  O        -32.2180   13.3870    4.4500 O.2   257  THR257     -0.2866
     67  CB       -33.3190   11.6310    1.9190 C.3   257  THR257      0.1770
     68  OG1      -33.2540   10.3070    1.3850 O.3   257  THR257     -0.2211
     69  CG2      -32.1110   12.4210    1.4410 C.3   257  THR257      0.0375
     70  N        -21.2730    7.3070   -2.9620 N.3   286  TRP286     -0.1241
     71  CA       -22.5260    6.5450   -3.0690 C.3   286  TRP286      0.1605
     72  C        -23.6510    7.2470   -2.3040 C.2   286  TRP286      0.2264
     73  O        -24.7590    7.4350   -2.8210 O.2   286  TRP286     -0.2867
     74  CB       -22.3200    5.1390   -2.5610 C.3   286  TRP286      0.0550
     75  CG       -23.5750    4.3430   -2.3050 C.ar  286  TRP286      0.0003
     76  CD1      -24.4930    3.9260   -3.2280 C.ar  286  TRP286      0.0946
     77  CD2      -24.0230    3.8400   -1.0380 C.ar  286  TRP286      0.0152
     78  NE1      -25.4890    3.1820   -2.6070 N.ar  286  TRP286     -0.2442
     79  CE2      -25.2190    3.1240   -1.2650 C.ar  286  TRP286      0.0810
     80  CE3      -23.5270    3.9260    0.2640 C.ar  286  TRP286      0.0012
     81  CZ2      -25.9270    2.5100   -0.2340 C.ar  286  TRP286      0.0191
     82  CZ3      -24.2350    3.3070    1.2830 C.ar  286  TRP286      0.0001
     83  CH2      -25.4150    2.6080    1.0230 C.ar  286  TRP286      0.0015
     84  N        -24.8030   10.2400   -4.0480 N.3   289  SER289     -0.1202
     85  CA       -25.6010    9.9110   -5.2350 C.3   289  SER289      0.2020
     86  C        -27.0640    9.6540   -4.8780 C.2   289  SER289      0.2618
     87  O        -27.9600    9.9520   -5.6630 O.2   289  SER289     -0.2717
     88  CB       -25.0410    8.6940   -5.9950 C.3   289  SER289      0.2103
     89  OG       -25.3610    7.4500   -5.3920 O.3   289  SER289     -0.2182
     90  N        -27.3250    9.0970   -3.7030 N.am  290  ASN290     -0.1974
     91  CA       -28.7180    8.8790   -3.3310 C.3   290  ASN290      0.1688
     92  C        -29.3660   10.1450   -2.7960 C.2   290  ASN290      0.2292
     93  O        -30.5720   10.2880   -2.8650 O.2   290  ASN290     -0.2864
     94  CB       -28.8330    7.7370   -2.3420 C.3   290  ASN290      0.1181
     95  CG       -28.7520    6.4050   -3.0340 C.2   290  ASN290      0.2629
     96  OD1      -29.3760    6.2090   -4.0840 O.2   290  ASN290     -0.2716
     97  ND2      -27.9640    5.4960   -2.4880 N.am  290  ASN290     -0.0877
     98  N        -30.4050   11.9890   -5.8720 N.3   293  ALA293     -0.1231
     99  CA       -31.6210   11.3420   -6.3690 C.3   293  ALA293      0.1694
    100  C        -32.8780   11.8890   -5.7030 C.2   293  ALA293      0.2592
    101  O        -34.0040   11.4310   -5.9610 O.2   293  ALA293     -0.2718
    102  CB       -31.5520    9.8210   -6.1500 C.3   293  ALA293      0.0304
    103  N        -32.6940   12.8700   -4.8370 N.am  294  GLY294     -0.1957
    104  CA       -33.8200   13.3920   -4.0820 C.3   294  GLY294      0.1869
    105  C        -34.5350   14.5430   -4.7490 C.2   294  GLY294      0.2309
    106  O        -34.4580   14.7270   -5.9670 O.2   294  GLY294     -0.2863
    107  N        -19.4180    5.7620   -8.6710 N.3   325  GLU325     -0.1245
    108  CA       -20.4030    6.3640   -7.7880 C.3   325  GLU325      0.1567
    109  C        -20.6160    7.8310   -8.1540 C.2   325  GLU325      0.2260
    110  O        -21.7300    8.3300   -8.0910 O.2   325  GLU325     -0.2867
    111  CB       -19.9780    6.2450   -6.3160 C.3   325  GLU325      0.0388
    112  CG       -19.7810    4.8120   -5.8460 C.3   325  GLU325      0.1160
    113  CD       -21.0410    3.9570   -5.9540 C.2   325  GLU325      0.3649
    114  OE1      -22.1650    4.5150   -5.9650 O.co2 325  GLU325     -0.2457
    115  OE2      -20.8940    2.7210   -6.0390 O.co2 325  GLU325     -0.2457
    116  N        -22.9850    8.1810  -11.0530 N.3   328  TRP328     -0.1241
    117  CA       -24.3520    8.0820  -10.5830 C.3   328  TRP328      0.1605
    118  C        -24.8100    9.3670   -9.9040 C.2   328  TRP328      0.2264
    119  O        -25.9400    9.8160  -10.1040 O.2   328  TRP328     -0.2867
    120  CB       -24.5120    6.8980   -9.6270 C.3   328  TRP328      0.0550
    121  CG       -24.5920    5.6150  -10.3220 C.ar  328  TRP328      0.0003
    122  CD1      -23.5900    4.7120  -10.4970 C.ar  328  TRP328      0.0946
    123  CD2      -25.7530    5.0590  -10.9380 C.ar  328  TRP328      0.0152
    124  NE1      -24.0590    3.6100  -11.1880 N.ar  328  TRP328     -0.2442
    125  CE2      -25.3880    3.8040  -11.4630 C.ar  328  TRP328      0.0810
    126  CE3      -27.0710    5.4940  -11.0820 C.ar  328  TRP328      0.0012
    127  CZ2      -26.2910    2.9870  -12.1350 C.ar  328  TRP328      0.0191
    128  CZ3      -27.9680    4.6720  -11.7570 C.ar  328  TRP328      0.0001
    129  CH2      -27.5710    3.4410  -12.2700 C.ar  328  TRP328      0.0015
    130  N        -28.0250   11.3800  -11.3880 N.3   332  ASN332     -0.1240
    131  CA       -29.1870   11.6270  -10.5490 C.3   332  ASN332      0.1653
    132  C        -29.4560   13.1210  -10.3940 C.2   332  ASN332      0.2266
    133  O        -30.5970   13.5720  -10.5180 O.2   332  ASN332     -0.2867
    134  CB       -28.9930   10.9790   -9.1890 C.3   332  ASN332      0.1155
    135  CG       -29.1190    9.4790   -9.2510 C.2   332  ASN332      0.2627
    136  OD1      -29.7270    8.9390  -10.1800 O.2   332  ASN332     -0.2716
    137  ND2      -28.5670    8.7960   -8.2640 N.am  332  ASN332     -0.0877
@<TRIPOS>BOND
     1   129   127   ar
     2   129   128   ar
     3   127   125   ar
     4   128   126   ar
     5   125   124   ar
     6   125   123   ar
     7   130   131    1
     8   124   122   ar
     9   126   123   ar
    10   116   117    1
    11   123   121   ar
    12   117   118    1
    13   117   120    1
    14   131   132    1
    15   131   134    1
    16   133   132    2
    17   122   121   ar
    18   121   120    1
    19   136   135    2
    20   119   118    2
    21   135   134    1
    22   135   137   am
    23   107   108    1
    24   109   110    2
    25   109   108    1
    26   108   111    1
    27    99   102    1
    28    99    98    1
    29    99   100    1
    30   111   112    1
    31   115   113   ar
    32    88    89    1
    33    88    85    1
    34   106   105    2
    35   114   113   ar
    36   101   100    2
    37   113   112    1
    38   100   103   am
    39    87    86    2
    40    85    86    1
    41    85    84    1
    42    86    90   am
    43   103   104    1
    44   105   104    1
    45    96    95    2
    46    90    91    1
    47    91    92    1
    48    91    94    1
    49    76    78   ar
    50    76    75   ar
    51    71    70    1
    52    71    74    1
    53    71    72    1
    54    95    97   am
    55    95    94    1
    56    93    92    2
    57    73    72    2
    58    78    79   ar
    59    62    60   ar
    60    74    75    1
    61    75    77   ar
    62    61    60   ar
    63    60    59    1
    64    79    77   ar
    65    79    81   ar
    66    77    80   ar
    67    40    39    2
    68    59    56    1
    69    81    83   ar
    70    43    41    1
    71    33    32    2
    72    47    46    2
    73    41    38    1
    74    41    42    1
    75    38    39    1
    76    38    37    1
    77    80    82   ar
    78    39    44   am
    79    55    56    1
    80    55    50   am
    81    56    57    1
    82    32    37   am
    83    32    31    1
    84    83    82   ar
    85    46    45    1
    86    46    48   am
    87    49    50    1
    88    49    48    1
    89    49    52    1
    90    50    51    2
    91    44    45    1
    92    68    67    1
    93    69    67    1
    94    36    34    1
    95     9     8    1
    96    67    64    1
    97    34    31    1
    98    34    35    1
    99    57    58    2
   100    52    54    1
   101    52    53    1
   102    31    30    1
   103     8     7    1
   104    16    15   ar
   105    21    20    2
   106    28    27    2
   107    25    24    2
   108    20    19    1
   109    64    63    1
   110    64    65    1
   111     7     6    1
   112    17    15   ar
   113    15    14    1
   114    19    18    1
   115    23    22    1
   116    23    24    1
   117    23    26    1
   118    65    66    2
   119    18    12   am
   120     5     6    1
   121     5     2    1
   122    27    26    1
   123    27    29   am
   124    12    13    2
   125    12    11    1
   126     3     4    2
   127     3     2    1
   128    11    14    1
   129    11    10    1
   130     2     1    1
