@<TRIPOS>MOLECULE
tmp/4wv7B00.pdb
 128 119 0 0 0
SMALL
GASTEIGER

@<TRIPOS>ATOM
      1  N        -22.9830  -23.6070  -18.5050 N.3     3  ALA3       -0.1231
      2  CA       -22.8040  -23.5010  -17.0590 C.3     3  ALA3        0.1679
      3  C        -24.2300  -23.5870  -16.4670 C.2     3  ALA3        0.2434
      4  O        -24.9980  -22.6490  -16.6820 O.2     3  ALA3       -0.2733
      5  CB       -22.1640  -22.1660  -16.7180 C.3     3  ALA3        0.0304
      6  N        -24.6290  -24.7180  -15.7990 N.am    4  PRO4       -0.2718
      7  CA       -26.0080  -24.8410  -15.2980 C.3     4  PRO4        0.1535
      8  C        -26.4420  -23.7950  -14.2820 C.2     4  PRO4        0.2598
      9  O        -27.6290  -23.4870  -14.2090 O.2     4  PRO4       -0.2715
     10  CB       -26.0480  -26.2450  -14.6940 C.3     4  PRO4        0.0310
     11  CG       -24.9140  -26.9620  -15.3080 C.3     4  PRO4        0.0237
     12  CD       -23.8550  -25.9350  -15.4820 C.3     4  PRO4        0.0939
     13  N        -25.5070  -23.2650  -13.4940 N.am    5  LEU5       -0.1978
     14  CA       -25.8320  -22.2420  -12.5030 C.3     5  LEU5        0.1596
     15  C        -24.8380  -21.1180  -12.6030 C.2     5  LEU5        0.2287
     16  O        -23.7210  -21.3490  -13.0660 O.2     5  LEU5       -0.2864
     17  CB       -25.8480  -22.8300  -11.0840 C.3     5  LEU5        0.0297
     18  CG       -27.0010  -23.8050  -10.7480 C.3     5  LEU5        0.0022
     19  CD1      -26.7410  -24.5220   -9.4380 C.3     5  LEU5        0.0001
     20  CD2      -28.3720  -23.0960  -10.6980 C.3     5  LEU5        0.0001
     21  N        -21.9730  -18.5730  -11.6320 N.3     7  LEU7       -0.1245
     22  CA       -20.7400  -18.7440  -10.8790 C.3     7  LEU7        0.1561
     23  C        -20.2070  -17.3520  -10.5880 C.2     7  LEU7        0.2260
     24  O        -20.0660  -16.5080  -11.4940 O.2     7  LEU7       -0.2867
     25  CB       -19.7110  -19.5860  -11.6720 C.3     7  LEU7        0.0270
     26  CG       -20.0940  -21.0730  -11.9030 C.3     7  LEU7        0.0019
     27  CD1      -19.2450  -21.6870  -12.9530 C.3     7  LEU7        0.0001
     28  CD2      -19.9880  -21.8910  -10.6290 C.3     7  LEU7        0.0001
     29  N        -19.8120  -23.0540  -22.6050 N.3    26  ILE26      -0.1245
     30  CA       -18.4710  -23.4880  -22.1990 C.3    26  ILE26       0.1561
     31  C        -17.6260  -23.8000  -23.4680 C.2    26  ILE26       0.2260
     32  O        -18.2090  -24.2560  -24.4460 O.2    26  ILE26      -0.2867
     33  CB       -18.6200  -24.7050  -21.2030 C.3    26  ILE26       0.0252
     34  CG1      -19.0680  -24.2000  -19.8120 C.3    26  ILE26       0.0019
     35  CG2      -17.3450  -25.6040  -21.0880 C.3    26  ILE26       0.0019
     36  CD1      -19.5510  -25.2900  -18.8190 C.3    26  ILE26       0.0001
     37  N        -21.9210  -20.7270   -6.2520 N.3    50  GLU50      -0.1245
     38  CA       -22.7360  -21.2970   -7.3090 C.3    50  GLU50       0.1567
     39  C        -24.2090  -21.1430   -6.9330 C.2    50  GLU50       0.2260
     40  O        -24.6270  -21.6730   -5.9090 O.2    50  GLU50      -0.2867
     41  CB       -22.4080  -22.7930   -7.4160 C.3    50  GLU50       0.0388
     42  CG       -23.3740  -23.5700   -8.2760 C.3    50  GLU50       0.1160
     43  CD       -23.2620  -25.0580   -8.0530 C.2    50  GLU50       0.3649
     44  OE1      -22.9650  -25.7560   -9.0440 O.co2  50  GLU50      -0.2457
     45  OE2      -23.4260  -25.5190   -6.9010 O.co2  50  GLU50      -0.2457
     46  N        -18.1610  -23.3260   -3.1310 N.3    62  LEU62      -0.1245
     47  CA       -17.3080  -24.2640   -3.8700 C.3    62  LEU62       0.1561
     48  C        -15.8640  -24.2610   -3.3280 C.2    62  LEU62       0.2260
     49  O        -15.1090  -25.2090   -3.5700 O.2    62  LEU62      -0.2867
     50  CB       -17.3190  -23.9270   -5.3700 C.3    62  LEU62       0.0270
     51  CG       -18.6950  -23.8780   -6.0660 C.3    62  LEU62       0.0019
     52  CD1      -18.5890  -23.1880   -7.4000 C.3    62  LEU62       0.0001
     53  CD2      -19.3020  -25.2650   -6.2200 C.3    62  LEU62       0.0001
     54  N        -13.6280  -21.3410  -17.1370 N.3    86  ILE86      -0.1231
     55  CA       -14.1320  -22.6920  -17.3870 C.3    86  ILE86       0.1692
     56  C        -13.5440  -23.1700  -18.7290 C.2    86  ILE86       0.2592
     57  O        -13.9480  -22.6820  -19.7780 O.2    86  ILE86      -0.2718
     58  CB       -15.6840  -22.7910  -17.3760 C.3    86  ILE86       0.0266
     59  CG1      -16.3190  -22.0120  -16.2090 C.3    86  ILE86       0.0019
     60  CG2      -16.1290  -24.2600  -17.4000 C.3    86  ILE86       0.0020
     61  CD1      -17.7870  -21.7500  -16.3790 C.3    86  ILE86       0.0001
     62  N        -12.5850  -24.1110  -18.6830 N.am   87  ASP87      -0.1974
     63  CA       -11.9740  -24.6910  -19.8710 C.3    87  ASP87       0.1709
     64  C        -12.8760  -25.8150  -20.4170 C.2    87  ASP87       0.2293
     65  O        -13.8560  -26.1900  -19.7580 O.2    87  ASP87      -0.2864
     66  CB       -10.5470  -25.1860  -19.5530 C.3    87  ASP87       0.1436
     67  CG       -10.4010  -26.6410  -19.1280 C.2    87  ASP87       0.3671
     68  OD1      -11.3010  -27.1510  -18.4210 O.co2  87  ASP87      -0.2456
     69  OD2       -9.3760  -27.2610  -19.4840 O.co2  87  ASP87      -0.2456
     70  N        -13.2060  -29.6030  -18.1580 N.3    90  GLY90      -0.1210
     71  CA       -13.8110  -29.7080  -16.8260 C.3    90  GLY90       0.1956
     72  C        -13.0460  -29.0580  -15.6860 C.2    90  GLY90       0.2612
     73  O        -13.1670  -29.4840  -14.5300 O.2    90  GLY90      -0.2717
     74  N        -12.3060  -27.9740  -15.9870 N.am   91  ILE91      -0.1965
     75  CA       -11.4970  -27.2670  -14.9890 C.3    91  ILE91       0.1727
     76  C        -11.9390  -25.8050  -14.8250 C.2    91  ILE91       0.2616
     77  O        -11.8590  -25.0200  -15.7800 O.2    91  ILE91      -0.2715
     78  CB        -9.9520  -27.4070  -15.2690 C.3    91  ILE91       0.0290
     79  CG1       -9.4860  -28.8940  -15.3460 C.3    91  ILE91       0.0022
     80  CG2       -9.1220  -26.6340  -14.2280 C.3    91  ILE91       0.0023
     81  CD1       -8.2470  -29.1260  -16.2220 C.3    91  ILE91       0.0001
     82  N        -12.3820  -25.4500  -13.5950 N.am   92  LEU92      -0.1977
     83  CA       -12.7580  -24.0850  -13.2130 C.3    92  LEU92       0.1596
     84  C        -11.5880  -23.4410  -12.4720 C.2    92  LEU92       0.2287
     85  O        -11.1630  -23.9580  -11.4370 O.2    92  LEU92      -0.2864
     86  CB       -14.0660  -24.0180  -12.3780 C.3    92  LEU92       0.0297
     87  CG       -14.3770  -22.6770  -11.6430 C.3    92  LEU92       0.0022
     88  CD1      -14.6880  -21.5280  -12.6160 C.3    92  LEU92       0.0001
     89  CD2      -15.4890  -22.8530  -10.6510 C.3    92  LEU92       0.0001
     90  N        -11.1440  -25.7240   -9.2050 N.3   109  ILE109     -0.1231
     91  CA       -12.3180  -26.5390   -8.8840 C.3   109  ILE109      0.1692
     92  C        -12.6650  -27.4140  -10.0700 C.2   109  ILE109      0.2593
     93  O        -12.7790  -26.9200  -11.1900 O.2   109  ILE109     -0.2718
     94  CB       -13.5170  -25.6680   -8.3410 C.3   109  ILE109      0.0266
     95  CG1      -13.0770  -24.8150   -7.1020 C.3   109  ILE109      0.0019
     96  CG2      -14.7330  -26.5390   -7.9850 C.3   109  ILE109      0.0020
     97  CD1      -13.6940  -23.4100   -6.9930 C.3   109  ILE109      0.0001
     98  N        -12.7920  -28.7290   -9.8230 N.am  110  THR110     -0.1939
     99  CA       -13.1100  -29.7410  -10.8420 C.3   110  THR110      0.2028
    100  C        -14.6050  -30.0770  -10.8350 C.2   110  THR110      0.2642
    101  O        -15.2750  -29.8080   -9.8360 O.2   110  THR110     -0.2714
    102  CB       -12.1660  -30.9470  -10.6950 C.3   110  THR110      0.1808
    103  OG1      -12.1290  -31.6900  -11.9160 O.3   110  THR110     -0.2208
    104  CG2      -12.5050  -31.8430   -9.4920 C.3   110  THR110      0.0379
    105  N        -15.1270  -30.6530  -11.9390 N.am  111  ASN111     -0.1971
    106  CA       -16.5530  -31.0060  -12.0770 C.3   111  ASN111      0.1688
    107  C        -16.8250  -32.4970  -11.7740 C.2   111  ASN111      0.2292
    108  O        -17.7430  -33.0840  -12.3600 O.2   111  ASN111     -0.2864
    109  CB       -17.0550  -30.6310  -13.4900 C.3   111  ASN111      0.1181
    110  CG       -16.4090  -31.4290  -14.6040 C.2   111  ASN111      0.2629
    111  OD1      -15.2410  -31.8410  -14.5260 O.2   111  ASN111     -0.2716
    112  ND2      -17.1670  -31.7060  -15.6500 N.am  111  ASN111     -0.0877
    113  N        -24.1670  -32.0230   -8.0890 N.3   113  LEU113     -0.1245
    114  CA       -25.6190  -31.9260   -7.9260 C.3   113  LEU113      0.1561
    115  C        -26.4160  -32.6410   -9.0310 C.2   113  LEU113      0.2260
    116  O        -25.9430  -32.7930  -10.1660 O.2   113  LEU113     -0.2867
    117  CB       -26.0840  -30.4530   -7.8480 C.3   113  LEU113      0.0270
    118  CG       -25.6370  -29.6030   -6.6640 C.3   113  LEU113      0.0019
    119  CD1      -25.9670  -28.1520   -6.9080 C.3   113  LEU113      0.0001
    120  CD2      -26.2990  -30.0470   -5.3700 C.3   113  LEU113      0.0001
    121  N        -30.8510  -28.3660   -9.4940 N.3   118  ILE118     -0.1245
    122  CA       -30.4700  -27.2100  -10.3050 C.3   118  ILE118      0.1561
    123  C        -31.7450  -26.4120  -10.5700 C.2   118  ILE118      0.2260
    124  O        -31.7940  -25.2350  -10.2190 O.2   118  ILE118     -0.2867
    125  CB       -29.7490  -27.5630  -11.6410 C.3   118  ILE118      0.0252
    126  CG1      -28.5000  -28.4830  -11.4740 C.3   118  ILE118      0.0019
    127  CG2      -29.4610  -26.3040  -12.4810 C.3   118  ILE118      0.0019
    128  CD1      -27.4300  -28.0530  -10.5010 C.3   118  ILE118      0.0001
@<TRIPOS>BOND
     1    32    31    2
     2    31    30    1
     3    29    30    1
     4    30    33    1
     5    33    35    1
     6    33    34    1
     7    64    63    1
     8    64    65    2
     9    63    66    1
    10    63    62    1
    11    34    36    1
    12    57    56    2
    13    66    67    1
    14    69    67   ar
    15    67    68   ar
    16    56    62   am
    17    56    55    1
    18     1     2    1
    19    70    71    1
    20    60    58    1
    21    55    58    1
    22    55    54    1
    23    58    59    1
    24     2     5    1
    25     2     3    1
    26    71    72    1
    27     4     3    2
    28     3     6   am
    29    61    59    1
    30    81    79    1
    31    74    72   am
    32    74    75    1
    33     6    12    1
    34     6     7    1
    35    77    76    2
    36    72    73    2
    37   112   110   am
    38    12    11    1
    39    79    78    1
    40    11    10    1
    41     7    10    1
    42     7     8    1
    43    78    75    1
    44    78    80    1
    45    75    76    1
    46    76    82   am
    47   110   111    2
    48   110   109    1
    49     8     9    2
    50     8    13   am
    51    82    83    1
    52    13    14    1
    53   109   106    1
    54    83    84    1
    55    83    86    1
    56    16    15    2
    57    27    26    1
    58    88    87    1
    59    15    14    1
    60    14    17    1
    61   127   125    1
    62    84    85    2
    63    86    87    1
    64   108   107    2
    65   106   105    1
    66   106   107    1
    67   105   100   am
    68   103   102    1
    69    26    25    1
    70    26    28    1
    71    25    22    1
    72    87    89    1
    73   125   126    1
    74   125   122    1
    75    21    22    1
    76    24    23    2
    77   126   128    1
    78    93    92    2
    79    17    18    1
    80    22    23    1
    81    99   100    1
    82    99   102    1
    83    99    98    1
    84   100   101    2
    85    18    20    1
    86    18    19    1
    87   102   104    1
    88   123   122    1
    89   123   124    2
    90   122   121    1
    91   116   115    2
    92    92    98   am
    93    92    91    1
    94    90    91    1
    95    44    43   ar
    96   115   114    1
    97    91    94    1
    98    94    96    1
    99    94    95    1
   100    42    43    1
   101    42    41    1
   102   113   114    1
   103    43    45   ar
   104   114   117    1
   105   117   118    1
   106    41    38    1
   107    52    51    1
   108    38    39    1
   109    38    37    1
   110    95    97    1
   111    39    40    2
   112   119   118    1
   113   118   120    1
   114    53    51    1
   115    51    50    1
   116    50    47    1
   117    47    48    1
   118    47    46    1
   119    49    48    2
