@<TRIPOS>MOLECULE
tmp/4wvbA02.pdb
 146 147 0 0 0
SMALL
GASTEIGER

@<TRIPOS>ATOM
      1  N         18.7350    1.3750  -43.8110 N.3    21  PRO21      -0.2116
      2  CA        19.6620    1.6800  -44.9310 C.3    21  PRO21       0.1372
      3  C         19.3320    1.0640  -46.2800 C.2    21  PRO21       0.2244
      4  O         19.9080    1.4740  -47.2870 O.2    21  PRO21      -0.2868
      5  CB        20.9940    1.1030  -44.4510 C.3    21  PRO21       0.0268
      6  CG        20.8920    1.0970  -42.9770 C.3    21  PRO21       0.0207
      7  CD        19.4510    0.7890  -42.6650 C.3    21  PRO21       0.0892
      8  N         15.7930   -4.8930  -44.6940 N.3    25  LEU25      -0.1245
      9  CA        16.5200   -4.9300  -43.4350 C.3    25  LEU25       0.1561
     10  C         15.5890   -4.8210  -42.2300 C.2    25  LEU25       0.2260
     11  O         14.4900   -4.2730  -42.3280 O.2    25  LEU25      -0.2867
     12  CB        17.5500   -3.7970  -43.3890 C.3    25  LEU25       0.0270
     13  CG        18.5990   -3.7740  -44.5030 C.3    25  LEU25       0.0019
     14  CD1       19.6930   -2.7690  -44.1410 C.3    25  LEU25       0.0001
     15  CD2       19.1890   -5.1550  -44.7630 C.3    25  LEU25       0.0001
     16  N         21.2850    3.2200  -38.6460 N.3    30  TRP30      -0.1241
     17  CA        22.7390    3.2730  -38.7410 C.3    30  TRP30       0.1605
     18  C         23.1750    4.7440  -38.6990 C.2    30  TRP30       0.2264
     19  O         22.5060    5.6090  -39.2780 O.2    30  TRP30      -0.2867
     20  CB        23.2210    2.6200  -40.0400 C.3    30  TRP30       0.0550
     21  CG        23.6830    1.1630  -39.9970 C.ar   30  TRP30       0.0003
     22  CD1       24.9860    0.7130  -40.0280 C.ar   30  TRP30       0.0946
     23  CD2       22.8640   -0.0110  -39.9900 C.ar   30  TRP30       0.0152
     24  NE1       25.0150   -0.6560  -40.0350 N.ar   30  TRP30      -0.2442
     25  CE2       23.7290   -1.1270  -40.0080 C.ar   30  TRP30       0.0810
     26  CE3       21.4900   -0.2280  -39.9590 C.ar   30  TRP30       0.0012
     27  CZ2       23.2600   -2.4380  -39.9920 C.ar   30  TRP30       0.0191
     28  CZ3       21.0220   -1.5390  -39.9590 C.ar   30  TRP30       0.0001
     29  CH2       21.8980   -2.6190  -39.9640 C.ar   30  TRP30       0.0015
     30  N         26.0610    6.6900  -39.8570 N.3    32  TRP32      -0.1227
     31  CA        26.4060    7.5780  -40.9850 C.3    32  TRP32       0.1737
     32  C         25.3510    7.5370  -42.0670 C.2    32  TRP32       0.2595
     33  O         25.0720    8.5760  -42.6670 O.2    32  TRP32      -0.2718
     34  CB        27.8710    7.5770  -41.5000 C.3    32  TRP32       0.0564
     35  CG        28.3820    6.5040  -42.3370 C.ar   32  TRP32       0.0003
     36  CD1       27.9870    5.2020  -42.3600 C.ar   32  TRP32       0.0946
     37  CD2       29.4970    6.6090  -43.2440 C.ar   32  TRP32       0.0152
     38  NE1       28.7760    4.4960  -43.2500 N.ar   32  TRP32      -0.2442
     39  CE2       29.7050    5.3430  -43.8030 C.ar   32  TRP32       0.0810
     40  CE3       30.3300    7.6650  -43.6380 C.ar   32  TRP32       0.0012
     41  CZ2       30.7200    5.0930  -44.7360 C.ar   32  TRP32       0.0191
     42  CZ3       31.3270    7.4210  -44.5730 C.ar   32  TRP32       0.0001
     43  CH2       31.5250    6.1540  -45.0990 C.ar   32  TRP32       0.0015
     44  N         24.6910    6.3860  -42.2330 N.am   33  ASP33      -0.1974
     45  CA        23.5690    6.3020  -43.1690 C.3    33  ASP33       0.1709
     46  C         22.5200    7.3630  -42.8290 C.2    33  ASP33       0.2293
     47  O         22.0880    8.1070  -43.7080 O.2    33  ASP33      -0.2864
     48  CB        22.9110    4.9140  -43.1820 C.3    33  ASP33       0.1436
     49  CG        23.8780    3.8130  -43.5390 C.2    33  ASP33       0.3671
     50  OD1       24.8500    3.6160  -42.7740 O.co2  33  ASP33      -0.2456
     51  OD2       23.6740    3.1400  -44.5940 O.co2  33  ASP33      -0.2456
     52  N         30.9510    5.2180  -35.8470 N.3    99  GLN99      -0.1245
     53  CA        31.0550    5.2610  -37.3190 C.3    99  GLN99       0.1566
     54  C         31.4370    6.7030  -37.7040 C.2    99  GLN99       0.2260
     55  O         31.4490    7.5940  -36.8430 O.2    99  GLN99      -0.2867
     56  CB        29.7200    4.8640  -37.9480 C.3    99  GLN99       0.0367
     57  CG        29.7900    3.6660  -38.8550 C.3    99  GLN99       0.0905
     58  CD        28.4870    3.3520  -39.5920 C.2    99  GLN99       0.2608
     59  OE1       27.4140    3.9920  -39.4290 O.2    99  GLN99      -0.2717
     60  NE2       28.5670    2.3380  -40.3690 N.am   99  GLN99      -0.0878
     61  N         33.4080    2.7110  -41.5440 N.3   159  GLY159     -0.1225
     62  CA        32.3490    2.6590  -42.5080 C.3   159  GLY159      0.1811
     63  C         32.7360    1.9140  -43.7630 C.2   159  GLY159      0.2280
     64  O         31.8860    1.7380  -44.6190 O.2   159  GLY159     -0.2866
     65  N         34.1350   -1.3470  -44.4110 N.3   161  ASP161     -0.1239
     66  CA        34.3690   -2.5160  -43.5430 C.3   161  ASP161      0.1674
     67  C         35.5570   -3.3460  -43.9920 C.2   161  ASP161      0.2266
     68  O         36.3970   -3.7110  -43.1780 O.2   161  ASP161     -0.2867
     69  CB        33.1340   -3.4450  -43.5010 C.3   161  ASP161      0.1410
     70  CG        31.8530   -2.7380  -43.0940 C.2   161  ASP161      0.3668
     71  OD1       31.8050   -1.4870  -42.9590 O.co2 161  ASP161     -0.2456
     72  OD2       30.8550   -3.4630  -42.9090 O.co2 161  ASP161     -0.2456
     73  N         32.4530   -4.7930  -52.5280 N.3   323  TYR323     -0.1227
     74  CA        32.2020   -3.9140  -51.3830 C.3   323  TYR323      0.1736
     75  C         33.1750   -2.6950  -51.4100 C.2   323  TYR323      0.2595
     76  O         33.0840   -1.8750  -52.3290 O.2   323  TYR323     -0.2718
     77  CB        32.2790   -4.8030  -50.1260 C.3   323  TYR323      0.0548
     78  CG        31.5010   -4.4230  -48.9130 C.ar  323  TYR323     -0.0200
     79  CD1       30.3010   -3.7110  -48.9790 C.ar  323  TYR323     -0.0009
     80  CD2       31.9520   -4.8440  -47.6530 C.ar  323  TYR323     -0.0009
     81  CE1       29.6240   -3.3750  -47.8140 C.ar  323  TYR323      0.0417
     82  CE2       31.2720   -4.5370  -46.5040 C.ar  323  TYR323      0.0417
     83  CZ        30.1200   -3.8060  -46.5850 C.ar  323  TYR323      0.1957
     84  OH        29.4870   -3.5230  -45.4060 O.3   323  TYR323     -0.2866
     85  N         34.1160   -2.5750  -50.4580 N.am  324  TRP324     -0.1976
     86  CA        35.0510   -1.4390  -50.4250 C.3   324  TRP324      0.1640
     87  C         36.4210   -1.7540  -51.0580 C.2   324  TRP324      0.2290
     88  O         37.4160   -1.0600  -50.8200 O.2   324  TRP324     -0.2864
     89  CB        35.2300   -0.9450  -48.9790 C.3   324  TRP324      0.0576
     90  CG        33.9820   -0.3640  -48.4160 C.ar  324  TRP324      0.0006
     91  CD1       33.0390   -1.0100  -47.6700 C.ar  324  TRP324      0.0946
     92  CD2       33.5230    0.9780  -48.5730 C.ar  324  TRP324      0.0152
     93  NE1       32.0210   -0.1470  -47.3540 N.ar  324  TRP324     -0.2442
     94  CE2       32.3100    1.0880  -47.8800 C.ar  324  TRP324      0.0810
     95  CE3       34.0340    2.1100  -49.2190 C.ar  324  TRP324      0.0012
     96  CZ2       31.5950    2.2830  -47.8110 C.ar  324  TRP324      0.0191
     97  CZ3       33.3170    3.2950  -49.1570 C.ar  324  TRP324      0.0001
     98  CH2       32.1190    3.3760  -48.4560 C.ar  324  TRP324      0.0015
     99  N         31.0250    4.1040  -54.7250 N.3   329  TRP329     -0.1241
    100  CA        30.0450    4.3710  -53.7000 C.3   329  TRP329      0.1605
    101  C         29.5250    5.8020  -53.8380 C.2   329  TRP329      0.2264
    102  O         30.3130    6.7350  -54.0060 O.2   329  TRP329     -0.2867
    103  CB        30.7180    4.2090  -52.3200 C.3   329  TRP329      0.0550
    104  CG        31.0280    2.8040  -51.9780 C.ar  329  TRP329      0.0003
    105  CD1       32.0530    2.0510  -52.4450 C.ar  329  TRP329      0.0946
    106  CD2       30.3010    1.9860  -51.0740 C.ar  329  TRP329      0.0152
    107  NE1       32.0220    0.8040  -51.8760 N.ar  329  TRP329     -0.2442
    108  CE2       30.9330    0.7290  -51.0470 C.ar  329  TRP329      0.0810
    109  CE3       29.1530    2.1840  -50.3080 C.ar  329  TRP329      0.0012
    110  CZ2       30.4700   -0.3210  -50.2520 C.ar  329  TRP329      0.0191
    111  CZ3       28.6950    1.1420  -49.5040 C.ar  329  TRP329      0.0001
    112  CH2       29.3610   -0.0940  -49.4830 C.ar  329  TRP329      0.0015
    113  N         23.8230   -0.2190  -53.2990 N.3   367  GLU367     -0.1245
    114  CA        24.8780    0.0650  -52.3190 C.3   367  GLU367      0.1567
    115  C         26.2000    0.4740  -52.9680 C.2   367  GLU367      0.2260
    116  O         26.8520    1.4280  -52.5430 O.2   367  GLU367     -0.2867
    117  CB        25.0800   -1.1600  -51.4510 C.3   367  GLU367      0.0388
    118  CG        25.8810   -0.9110  -50.1990 C.3   367  GLU367      0.1160
    119  CD        25.7850   -2.0510  -49.2060 C.2   367  GLU367      0.3649
    120  OE1       25.0280   -3.0050  -49.4680 O.co2 367  GLU367     -0.2457
    121  OE2       26.4690   -1.9920  -48.1620 O.co2 367  GLU367     -0.2457
    122  N         18.8270    1.1960  -51.7300 N.3   382  PHE382     -0.1241
    123  CA        19.8440    1.6430  -50.7900 C.3   382  PHE382      0.1605
    124  C         19.6460    3.1190  -50.4860 C.2   382  PHE382      0.2264
    125  O         19.7350    3.9820  -51.3570 O.2   382  PHE382     -0.2867
    126  CB        21.2640    1.3600  -51.2660 C.3   382  PHE382      0.0534
    127  CG        22.2560    1.3670  -50.1270 C.ar  382  PHE382     -0.0203
    128  CD1       22.3140    0.3070  -49.2410 C.ar  382  PHE382     -0.0042
    129  CD2       23.0850    2.4540  -49.9260 C.ar  382  PHE382     -0.0042
    130  CE1       23.1900    0.3230  -48.1620 C.ar  382  PHE382     -0.0003
    131  CE2       23.9630    2.4760  -48.8700 C.ar  382  PHE382     -0.0003
    132  CZ        24.0240    1.4140  -47.9830 C.ar  382  PHE382     -0.0000
    133  N         21.0920    5.7200  -48.7380 N.3   384  TRP384     -0.1241
    134  CA        21.9350    6.9180  -48.9090 C.3   384  TRP384      0.1605
    135  C         22.1640    7.2510  -50.3850 C.2   384  TRP384      0.2264
    136  O         22.4320    8.4000  -50.7260 O.2   384  TRP384     -0.2867
    137  CB        23.2420    6.9170  -48.0960 C.3   384  TRP384      0.0550
    138  CG        24.4460    6.1020  -48.5670 C.ar  384  TRP384      0.0003
    139  CD1       24.8880    5.8610  -49.8560 C.ar  384  TRP384      0.0946
    140  CD2       25.3940    5.4910  -47.7070 C.ar  384  TRP384      0.0152
    141  NE1       26.0500    5.1290  -49.8250 N.ar  384  TRP384     -0.2442
    142  CE2       26.3780    4.8910  -48.5100 C.ar  384  TRP384      0.0810
    143  CE3       25.5070    5.4020  -46.3090 C.ar  384  TRP384      0.0012
    144  CZ2       27.4420    4.1820  -47.9720 C.ar  384  TRP384      0.0191
    145  CZ3       26.5560    4.7160  -45.7850 C.ar  384  TRP384      0.0001
    146  CH2       27.5190    4.1150  -46.6020 C.ar  384  TRP384      0.0015
@<TRIPOS>BOND
     1    99   100    1
     2   102   101    2
     3   101   100    1
     4   100   103    1
     5   113   114    1
     6   115   116    2
     7   115   114    1
     8    73    74    1
     9   105   104   ar
    10   105   107   ar
    11    76    75    2
    12   103   104    1
    13   114   117    1
    14   104   106   ar
    15   107   108   ar
    16   122   123    1
    17   117   118    1
    18    75    74    1
    19    75    85   am
    20    74    77    1
    21   125   124    2
    22   126   123    1
    23   126   127    1
    24   106   108   ar
    25   106   109   ar
    26    87    88    2
    27    87    86    1
    28   108   110   ar
    29   123   124    1
    30   136   135    2
    31    85    86    1
    32    86    89    1
    33   135   134    1
    34   109   111   ar
    35   110   112   ar
    36   118   119    1
    37   127   129   ar
    38   127   128   ar
    39    77    78    1
    40   129   131   ar
    41   139   141   ar
    42   139   138   ar
    43   141   142   ar
    44   111   112   ar
    45   120   119   ar
    46   128   130   ar
    47    95    97   ar
    48    95    92   ar
    49   119   121   ar
    50    97    98   ar
    51    79    78   ar
    52    79    81   ar
    53    89    90    1
    54    78    80   ar
    55   134   133    1
    56   134   137    1
    57   131   132   ar
    58    92    90   ar
    59    92    94   ar
    60   138   137    1
    61   138   140   ar
    62   142   144   ar
    63   142   140   ar
    64    98    96   ar
    65    90    91   ar
    66   130   132   ar
    67   144   146   ar
    68    94    96   ar
    69    94    93   ar
    70    81    83   ar
    71   140   143   ar
    72    91    93   ar
    73    80    82   ar
    74     4     3    2
    75   146   145   ar
    76    83    82   ar
    77    83    84    1
    78   143   145   ar
    79     3     2    1
    80    43    41   ar
    81    43    42   ar
    82     2     5    1
    83     2     1    1
    84    15    13    1
    85    41    39   ar
    86     8     9    1
    87    64    63    2
    88    51    49   ar
    89    42    40   ar
    90    13    14    1
    91    13    12    1
    92     5     6    1
    93    65    66    1
    94    67    66    1
    95    67    68    2
    96     1     7    1
    97    39    38   ar
    98    39    37   ar
    99    63    62    1
   100    47    46    2
   101    40    37   ar
   102    66    69    1
   103    49    48    1
   104    49    50   ar
   105    69    70    1
   106     9    12    1
   107     9    10    1
   108    38    36   ar
   109    37    35   ar
   110    48    45    1
   111    45    46    1
   112    45    44    1
   113    70    71   ar
   114    70    72   ar
   115     6     7    1
   116    33    32    2
   117    62    61    1
   118    36    35   ar
   119    35    34    1
   120    11    10    2
   121    44    32   am
   122    32    31    1
   123    34    31    1
   124    31    30    1
   125    60    58   am
   126    20    21    1
   127    20    17    1
   128    24    22   ar
   129    24    25   ar
   130    22    21   ar
   131    25    27   ar
   132    25    23   ar
   133    21    23   ar
   134    27    29   ar
   135    23    26   ar
   136    29    28   ar
   137    26    28   ar
   138    58    59    2
   139    58    57    1
   140    19    18    2
   141    57    56    1
   142    17    18    1
   143    17    16    1
   144    56    53    1
   145    54    53    1
   146    54    55    2
   147    53    52    1
