@<TRIPOS>MOLECULE
tmp/4wvbB00.pdb
 133 126 0 0 0
SMALL
GASTEIGER

@<TRIPOS>ATOM
      1  N         26.8060    5.0570    2.0110 N.3    40  LEU40      -0.1245
      2  CA        27.7310    4.8930    3.1230 C.3    40  LEU40       0.1561
      3  C         27.1520    3.9870    4.2030 C.2    40  LEU40       0.2260
      4  O         27.8780    3.2020    4.8020 O.2    40  LEU40      -0.2867
      5  CB        28.1220    6.2490    3.7360 C.3    40  LEU40       0.0270
      6  CG        28.9190    7.1920    2.8130 C.3    40  LEU40       0.0019
      7  CD1       29.0550    8.5340    3.5180 C.3    40  LEU40       0.0001
      8  CD2       30.2800    6.6120    2.4580 C.3    40  LEU40       0.0001
      9  N         32.7810   11.8280   -3.7620 N.3   106  THR106     -0.1218
     10  CA        33.3740   11.5920   -2.4600 C.3   106  THR106      0.1862
     11  C         33.0020   10.1960   -1.9310 C.2   106  THR106      0.2287
     12  O         33.8230    9.4690   -1.3560 O.2   106  THR106     -0.2866
     13  CB        32.9310   12.6910   -1.4660 C.3   106  THR106      0.1770
     14  OG1       33.4800   13.9330   -1.9060 O.3   106  THR106     -0.2211
     15  CG2       33.3910   12.3910   -0.0740 C.3   106  THR106      0.0375
     16  N         34.7170    7.4750   -4.0500 N.3   109  ARG109     -0.1231
     17  CA        36.1150    7.2920   -3.6650 C.3   109  ARG109      0.1694
     18  C         36.2360    6.4190   -2.3860 C.2   109  ARG109      0.2592
     19  O         37.0600    5.5390   -2.3470 O.2   109  ARG109     -0.2718
     20  CB        36.8290    8.6210   -3.4470 C.3   109  ARG109      0.0321
     21  CG        38.2750    8.4450   -3.0170 C.3   109  ARG109      0.0489
     22  CD        38.9340    9.7210   -2.5770 C.3   109  ARG109      0.2205
     23  NE        40.3060    9.4570   -2.1280 N.pl3 109  ARG109     -0.0865
     24  CZ        41.1520   10.3970   -1.7380 C.cat 109  ARG109      0.5346
     25  NH1       40.8190   11.6720   -1.7700 N.pl3 109  ARG109      0.1354
     26  NH2       42.3650   10.0610   -1.3340 N.pl3 109  ARG109      0.1354
     27  N         35.4210    6.6650   -1.3680 N.am  110  TYR110     -0.1976
     28  CA        35.4160    5.8540   -0.1270 C.3   110  TYR110      0.1639
     29  C         35.0720    4.3760   -0.4500 C.2   110  TYR110      0.2290
     30  O         35.7910    3.4580   -0.0440 O.2   110  TYR110     -0.2864
     31  CB        34.4250    6.3880    0.9100 C.3   110  TYR110      0.0560
     32  CG        34.3990    5.4970    2.1210 C.ar  110  TYR110     -0.0198
     33  CD1       35.3280    5.6260    3.1150 C.ar  110  TYR110     -0.0009
     34  CD2       33.4920    4.4440    2.1900 C.ar  110  TYR110     -0.0009
     35  CE1       35.3130    4.7530    4.2090 C.ar  110  TYR110      0.0417
     36  CE2       33.4960    3.5590    3.2460 C.ar  110  TYR110      0.0417
     37  CZ        34.3930    3.7100    4.2460 C.ar  110  TYR110      0.1957
     38  OH        34.3600    2.7820    5.2920 O.3   110  TYR110     -0.2866
     39  N         37.8000    1.3490    0.2260 N.3   114  LYS114     -0.1245
     40  CA        37.5160    0.5310    1.4160 C.3   114  LYS114      0.1561
     41  C         36.8010   -0.7890    1.1460 C.2   114  LYS114      0.2260
     42  O         36.7440   -1.6250    2.0510 O.2   114  LYS114     -0.2867
     43  CB        36.7290    1.3510    2.4300 C.3   114  LYS114      0.0271
     44  CG        37.5330    2.5040    3.0020 C.3   114  LYS114      0.0035
     45  CD        38.8030    2.0730    3.6910 C.3   114  LYS114      0.0206
     46  CE        39.5140    3.2890    4.2700 C.3   114  LYS114      0.1093
     47  NZ        40.9580    2.9830    4.3280 N.3   114  LYS114     -0.1314
     48  N         34.9790   19.5390   -2.7790 N.3   240  ARG240     -0.1245
     49  CA        35.4040   18.3000   -2.1320 C.3   240  ARG240      0.1563
     50  C         35.3290   17.1300   -3.1190 C.2   240  ARG240      0.2260
     51  O         36.2710   16.3150   -3.2430 O.2   240  ARG240     -0.2867
     52  CB        34.5620   18.0000   -0.8760 C.3   240  ARG240      0.0307
     53  CG        34.8710   16.6690   -0.2160 C.3   240  ARG240      0.0489
     54  CD        36.3680   16.4710    0.0670 C.3   240  ARG240      0.2205
     55  NE        36.5610   15.2010    0.7400 N.pl3 240  ARG240     -0.0865
     56  CZ        36.4010   14.9730    2.0390 C.cat 240  ARG240      0.5346
     57  NH1       36.1210   15.9520    2.8930 N.pl3 240  ARG240      0.1354
     58  NH2       36.5590   13.7350    2.4890 N.pl3 240  ARG240      0.1354
     59  N         38.2020   14.5790   -4.6010 N.3   244  ASP244     -0.1239
     60  CA        38.1120   13.1290   -4.5000 C.3   244  ASP244      0.1674
     61  C         38.1100   12.4510   -5.8910 C.2   244  ASP244      0.2266
     62  O         38.5950   11.3050   -6.0700 O.2   244  ASP244     -0.2867
     63  CB        36.9040   12.7710   -3.6210 C.3   244  ASP244      0.1410
     64  CG        37.1160   13.1560   -2.1910 C.2   244  ASP244      0.3668
     65  OD1       38.2620   13.0930   -1.7200 O.co2 244  ASP244     -0.2456
     66  OD2       36.1520   13.5340   -1.4910 O.co2 244  ASP244     -0.2456
     67  N         34.6670   21.0830    4.8330 N.3   304  PHE304     -0.1241
     68  CA        34.5660   19.7650    4.1770 C.3   304  PHE304      0.1605
     69  C         35.2780   19.7840    2.8090 C.2   304  PHE304      0.2264
     70  O         35.8210   18.7700    2.3820 O.2   304  PHE304     -0.2867
     71  CB        33.0710   19.4060    4.0490 C.3   304  PHE304      0.0534
     72  CG        32.7650   18.0380    3.5110 C.ar  304  PHE304     -0.0203
     73  CD1       33.0020   16.9130    4.2670 C.ar  304  PHE304     -0.0042
     74  CD2       32.1610   17.9000    2.2530 C.ar  304  PHE304     -0.0042
     75  CE1       32.6710   15.6520    3.7710 C.ar  304  PHE304     -0.0003
     76  CE2       31.7890   16.6450    1.7760 C.ar  304  PHE304     -0.0003
     77  CZ        32.0640   15.5380    2.5180 C.ar  304  PHE304     -0.0000
     78  N         27.3560   15.6140    9.9860 N.3   357  TRP357     -0.1241
     79  CA        28.4000   14.7020    9.5370 C.3   357  TRP357      0.1605
     80  C         29.4680   15.4110    8.6620 C.2   357  TRP357      0.2264
     81  O         30.6660   15.3440    8.9520 O.2   357  TRP357     -0.2867
     82  CB        27.8070   13.4960    8.8430 C.3   357  TRP357      0.0550
     83  CG        28.8470   12.5810    8.3520 C.ar  357  TRP357      0.0003
     84  CD1       29.6210   11.7460    9.1020 C.ar  357  TRP357      0.0946
     85  CD2       29.2770   12.4410    7.0120 C.ar  357  TRP357      0.0152
     86  NE1       30.5020   11.0710    8.2980 N.ar  357  TRP357     -0.2442
     87  CE2       30.3020   11.4860    7.0030 C.ar  357  TRP357      0.0810
     88  CE3       28.8680   13.0060    5.7920 C.ar  357  TRP357      0.0012
     89  CZ2       30.9550   11.1210    5.8440 C.ar  357  TRP357      0.0191
     90  CZ3       29.5250   12.6200    4.6350 C.ar  357  TRP357      0.0001
     91  CH2       30.5600   11.6860    4.6850 C.ar  357  TRP357      0.0015
     92  N         33.2860   16.2420    9.9100 N.3   361  GLU361     -0.1245
     93  CA        34.3780   15.7710    9.0560 C.3   361  GLU361      0.1567
     94  C         35.3690   16.9270    8.7820 C.2   361  GLU361      0.2260
     95  O         36.6030   16.7920    8.9390 O.2   361  GLU361     -0.2867
     96  CB        33.8190   15.2060    7.7480 C.3   361  GLU361      0.0388
     97  CG        33.3720   13.7510    7.8440 C.3   361  GLU361      0.1160
     98  CD        34.5040   12.7600    7.7670 C.2   361  GLU361      0.3649
     99  OE1       35.5460   13.0070    7.1040 O.co2 361  GLU361     -0.2457
    100  OE2       34.3430   11.6770    8.3470 O.co2 361  GLU361     -0.2457
    101  N         37.2110   18.1180   12.0260 N.3   364  ARG364     -0.1245
    102  CA        38.2400   17.1350   12.3460 C.3   364  ARG364      0.1563
    103  C         39.4730   17.3750   11.5080 C.2   364  ARG364      0.2260
    104  O         40.5980   17.3820   12.0350 O.2   364  ARG364     -0.2867
    105  CB        37.7310   15.7090   12.1630 C.3   364  ARG364      0.0307
    106  CG        38.7270   14.6140   12.5450 C.3   364  ARG364      0.0489
    107  CD        39.8180   14.3400   11.5170 C.3   364  ARG364      0.2205
    108  NE        39.1980   14.2750   10.1850 N.pl3 364  ARG364     -0.0865
    109  CZ        38.4840   13.2520    9.6940 C.cat 364  ARG364      0.5346
    110  NH1       38.3760   12.1110   10.3670 N.pl3 364  ARG364      0.1354
    111  NH2       37.9180   13.3580    8.4890 N.pl3 364  ARG364      0.1354
    112  N         27.3290    4.5600    9.5440 N.3   414  PHE414     -0.1241
    113  CA        28.6630    4.8890    9.0660 C.3   414  PHE414      0.1605
    114  C         29.5080    5.4900   10.1790 C.2   414  PHE414      0.2264
    115  O         30.6730    5.1180   10.3630 O.2   414  PHE414     -0.2867
    116  CB        28.5840    5.8330    7.8520 C.3   414  PHE414      0.0534
    117  CG        29.9190    6.0370    7.2130 C.ar  414  PHE414     -0.0203
    118  CD1       30.4830    4.9930    6.5230 C.ar  414  PHE414     -0.0042
    119  CD2       30.6200    7.2180    7.3480 C.ar  414  PHE414     -0.0042
    120  CE1       31.7140    5.1310    5.9320 C.ar  414  PHE414     -0.0003
    121  CE2       31.8630    7.3630    6.7680 C.ar  414  PHE414     -0.0003
    122  CZ        32.4020    6.3170    6.0530 C.ar  414  PHE414     -0.0000
    123  N         30.8880    2.8940   12.7450 N.3   417  ARG417     -0.1245
    124  CA        31.5360    1.7060   12.2080 C.3   417  ARG417      0.1563
    125  C         32.8250    1.3090   12.9260 C.2   417  ARG417      0.2260
    126  O         33.2640    0.1710   12.7350 O.2   417  ARG417     -0.2867
    127  CB        31.8690    1.9110   10.7340 C.3   417  ARG417      0.0307
    128  CG        32.9900    2.8940   10.4840 C.3   417  ARG417      0.0489
    129  CD        33.0550    3.2730    9.0040 C.3   417  ARG417      0.2205
    130  NE        34.2250    4.0870    8.7170 N.pl3 417  ARG417     -0.0865
    131  CZ        34.3720    5.3580    9.0580 C.cat 417  ARG417      0.5346
    132  NH1       33.4220    6.0170    9.7190 N.pl3 417  ARG417      0.1354
    133  NH2       35.4960    5.9750    8.7580 N.pl3 417  ARG417      0.1354
@<TRIPOS>BOND
     1    62    61    2
     2    61    60    1
     3    59    60    1
     4    60    63    1
     5    16    17    1
     6     9    10    1
     7    17    20    1
     8    17    18    1
     9    63    64    1
    10    20    21    1
    11    51    50    2
    12    50    49    1
    13    21    22    1
    14    48    49    1
    15    22    23    1
    16    10    11    1
    17    10    13    1
    18    18    19    2
    19    18    27   am
    20    64    65   ar
    21    64    66   ar
    22    49    52    1
    23    23    24    2
    24    11    12    2
    25    14    13    1
    26    25    24    1
    27    24    26    1
    28    13    15    1
    29    27    28    1
    30    52    53    1
    31    29    28    1
    32    29    30    2
    33    53    54    1
    34    28    31    1
    35    54    55    1
    36    39    40    1
    37    55    56    2
    38    31    32    1
    39    41    40    1
    40    41    42    2
    41    40    43    1
    42    76    74   ar
    43    76    77   ar
    44     1     2    1
    45    56    58    1
    46    56    57    1
    47    32    34   ar
    48    32    33   ar
    49    34    36   ar
    50    74    72   ar
    51    70    69    2
    52    43    44    1
    53     8     6    1
    54    77    75   ar
    55    69    68    1
    56     6     7    1
    57     6     5    1
    58    44    45    1
    59    33    35   ar
    60     2     5    1
    61     2     3    1
    62    36    37   ar
    63    72    71    1
    64    72    73   ar
    65    45    46    1
    66    75    73   ar
    67    71    68    1
    68    68    67    1
    69     3     4    2
    70    35    37   ar
    71    37    38    1
    72    46    47    1
    73    90    91   ar
    74    90    88   ar
    75    91    89   ar
    76    88    85   ar
    77    89    87   ar
    78   120   122   ar
    79   120   118   ar
    80   122   121   ar
    81   118   117   ar
    82   121   119   ar
    83    87    85   ar
    84    87    86   ar
    85    85    83   ar
    86    99    98   ar
    87   117   119   ar
    88   117   116    1
    89    96    97    1
    90    96    93    1
    91    98    97    1
    92    98   100   ar
    93   116   113    1
    94    86    84   ar
    95    83    82    1
    96    83    84   ar
    97   111   109    1
    98    80    81    2
    99    80    79    1
   100   130   129    1
   101   130   131    2
   102   133   131    1
   103    94    95    2
   104    94    93    1
   105    82    79    1
   106   129   128    1
   107    93    92    1
   108   131   132    1
   109   113   112    1
   110   113   114    1
   111    79    78    1
   112   109   108    2
   113   109   110    1
   114   114   115    2
   115   108   107    1
   116   128   127    1
   117   127   124    1
   118   103   104    2
   119   103   102    1
   120   107   106    1
   121   101   102    1
   122   105   102    1
   123   105   106    1
   124   124   123    1
   125   124   125    1
   126   126   125    2
