@<TRIPOS>MOLECULE
tmp/4wvbA01.pdb
 107 104 0 0 0
SMALL
GASTEIGER

@<TRIPOS>ATOM
      1  N         28.8800    9.0760  -26.3830 N.3    66  MET66      -0.1245
      2  CA        29.0810    8.1170  -27.4790 C.3    66  MET66       0.1570
      3  C         27.8760    7.9200  -28.3930 C.2    66  MET66       0.2261
      4  O         26.7510    7.7200  -27.9190 O.2    66  MET66      -0.2867
      5  CB        29.5080    6.7680  -26.8740 C.3    66  MET66       0.0387
      6  CG        29.8890    5.6880  -27.8740 C.3    66  MET66       0.0595
      7  SD        28.5360    4.5670  -28.2870 S.3    66  MET66      -0.1393
      8  CE        29.4720    3.3110  -29.1570 C.3    66  MET66       0.0692
      9  N         28.3700   -1.2320  -29.6830 N.3    96  GLY96      -0.1210
     10  CA        29.3490   -0.6370  -28.7780 C.3    96  GLY96       0.1956
     11  C         30.5340    0.0040  -29.4900 C.2    96  GLY96       0.2611
     12  O         31.5660    0.3030  -28.8680 O.2    96  GLY96      -0.2717
     13  N         30.3810    0.1940  -30.8030 N.am   97  ILE97      -0.1979
     14  CA        31.3660    0.8760  -31.6470 C.3    97  ILE97       0.1595
     15  C         30.6890    2.0270  -32.4030 C.2    97  ILE97       0.2287
     16  O         29.4770    2.1350  -32.3810 O.2    97  ILE97      -0.2864
     17  CB        32.0430   -0.0940  -32.6460 C.3    97  ILE97       0.0276
     18  CG1       31.0150   -0.7530  -33.5720 C.3    97  ILE97       0.0022
     19  CG2       32.9260   -1.0910  -31.8880 C.3    97  ILE97       0.0022
     20  CD1       31.6290   -1.5040  -34.7280 C.3    97  ILE97       0.0001
     21  N         33.4850   12.8230  -26.7730 N.3   137  TRP137     -0.1241
     22  CA        33.6850   11.3830  -26.5450 C.3   137  TRP137      0.1605
     23  C         34.7280   10.8550  -27.5240 C.2   137  TRP137      0.2264
     24  O         35.6600   10.1500  -27.1630 O.2   137  TRP137     -0.2867
     25  CB        32.3640   10.5980  -26.6980 C.3   137  TRP137      0.0550
     26  CG        32.6040    9.1400  -26.5590 C.ar  137  TRP137      0.0003
     27  CD1       32.7590    8.4490  -25.3930 C.ar  137  TRP137      0.0946
     28  CD2       32.8130    8.1960  -27.6180 C.ar  137  TRP137      0.0152
     29  NE1       33.0080    7.1240  -25.6640 N.ar  137  TRP137     -0.2442
     30  CE2       33.0590    6.9490  -27.0210 C.ar  137  TRP137      0.0810
     31  CE3       32.7870    8.2810  -29.0190 C.ar  137  TRP137      0.0012
     32  CZ2       33.2800    5.7990  -27.7690 C.ar  137  TRP137      0.0191
     33  CZ3       33.0100    7.1330  -29.7630 C.ar  137  TRP137      0.0001
     34  CH2       33.2600    5.9120  -29.1370 C.ar  137  TRP137      0.0015
     35  N         38.0470    9.4280  -25.7990 N.3   141  ALA141     -0.1231
     36  CA        38.1910    7.9790  -25.8670 C.3   141  ALA141      0.1694
     37  C         39.2400    7.5370  -26.8610 C.2   141  ALA141      0.2591
     38  O         39.9690    6.5500  -26.6270 O.2   141  ALA141     -0.2718
     39  CB        36.8530    7.3230  -26.1790 C.3   141  ALA141      0.0304
     40  N         39.2900    8.2330  -28.0040 N.am  142  ARG142     -0.1980
     41  CA        40.0680    7.7500  -29.1490 C.3   142  ARG142      0.1597
     42  C         41.2930    8.5680  -29.4890 C.2   142  ARG142      0.2287
     43  O         42.0420    8.2090  -30.4080 O.2   142  ARG142     -0.2864
     44  CB        39.1700    7.6230  -30.3930 C.3   142  ARG142      0.0334
     45  CG        37.9550    6.7180  -30.2620 C.3   142  ARG142      0.0492
     46  CD        38.3350    5.3250  -29.7500 C.3   142  ARG142      0.2205
     47  NE        37.1430    4.5020  -29.6510 N.pl3 142  ARG142     -0.0865
     48  CZ        36.5430    3.9320  -30.6860 C.cat 142  ARG142      0.5346
     49  NH1       37.0510    4.0920  -31.9190 N.pl3 142  ARG142      0.1354
     50  NH2       35.4590    3.1920  -30.4920 N.pl3 142  ARG142      0.1354
     51  N         39.1270    1.3110  -33.4920 N.3   153  VAL153     -0.1245
     52  CA        39.5270    0.0330  -32.8680 C.3   153  VAL153      0.1561
     53  C         38.8700   -1.1670  -33.5380 C.2   153  VAL153      0.2260
     54  O         39.1590   -2.3200  -33.1830 O.2   153  VAL153     -0.2867
     55  CB        39.2930    0.0520  -31.3250 C.3   153  VAL153      0.0252
     56  CG1       40.1730    1.0970  -30.6930 C.3   153  VAL153      0.0019
     57  CG2       37.8190    0.2970  -30.9720 C.3   153  VAL153      0.0019
     58  N         36.3310   -6.2300  -26.5030 N.3   188  PHE188     -0.1241
     59  CA        35.7730   -5.0050  -25.9520 C.3   188  PHE188      0.1605
     60  C         34.8500   -5.3090  -24.7680 C.2   188  PHE188      0.2264
     61  O         34.8550   -4.5790  -23.7710 O.2   188  PHE188     -0.2867
     62  CB        34.9930   -4.2060  -27.0050 C.3   188  PHE188      0.0534
     63  CG        35.7750   -3.8940  -28.2700 C.ar  188  PHE188     -0.0203
     64  CD1       37.1620   -3.8640  -28.2830 C.ar  188  PHE188     -0.0042
     65  CD2       35.0870   -3.6140  -29.4500 C.ar  188  PHE188     -0.0042
     66  CE1       37.8610   -3.5660  -29.4580 C.ar  188  PHE188     -0.0003
     67  CE2       35.7720   -3.3070  -30.6170 C.ar  188  PHE188     -0.0003
     68  CZ        37.1540   -3.2970  -30.6220 C.ar  188  PHE188     -0.0000
     69  N         33.9460   -2.5740  -21.9580 N.3   193  TYR193     -0.1241
     70  CA        33.8420   -1.3580  -22.7740 C.3   193  TYR193      0.1605
     71  C         34.5670   -0.1310  -22.1670 C.2   193  TYR193      0.2264
     72  O         34.2640    1.0140  -22.5040 O.2   193  TYR193     -0.2867
     73  CB        32.3670   -1.0770  -23.0950 C.3   193  TYR193      0.0534
     74  CG        31.7300   -2.2770  -23.7630 C.ar  193  TYR193     -0.0201
     75  CD1       31.9810   -2.5620  -25.0890 C.ar  193  TYR193     -0.0009
     76  CD2       30.9210   -3.1510  -23.0430 C.ar  193  TYR193     -0.0009
     77  CE1       31.4160   -3.6720  -25.6980 C.ar  193  TYR193      0.0417
     78  CE2       30.3460   -4.2670  -23.6350 C.ar  193  TYR193      0.0417
     79  CZ        30.6020   -4.5250  -24.9670 C.ar  193  TYR193      0.1957
     80  OH        30.0310   -5.6300  -25.5550 O.3   193  TYR193     -0.2866
     81  N         37.0190    2.5210  -22.1720 N.3   195  PRO195     -0.2116
     82  CA        37.7910    3.1730  -23.2500 C.3   195  PRO195      0.1372
     83  C         39.3010    3.2060  -23.0210 C.2   195  PRO195      0.2244
     84  O         40.0880    3.1040  -23.9690 O.2   195  PRO195     -0.2868
     85  CB        37.2190    4.5960  -23.2730 C.3   195  PRO195      0.0268
     86  CG        35.8340    4.4560  -22.7170 C.3   195  PRO195      0.0207
     87  CD        35.9660    3.4150  -21.6440 C.3   195  PRO195      0.0892
     88  N         40.6040   -0.4150  -23.5780 N.3   198  ILE198     -0.1231
     89  CA        40.5030   -0.8560  -24.9700 C.3   198  ILE198      0.1692
     90  C         41.4950   -0.0900  -25.8650 C.2   198  ILE198      0.2592
     91  O         42.0750   -0.6650  -26.7690 O.2   198  ILE198     -0.2718
     92  CB        39.0780   -0.7420  -25.5190 C.3   198  ILE198      0.0266
     93  CG1       38.1730   -1.7580  -24.8130 C.3   198  ILE198      0.0019
     94  CG2       39.0740   -1.0220  -27.0190 C.3   198  ILE198      0.0020
     95  CD1       36.6910   -1.4870  -24.9180 C.3   198  ILE198      0.0001
     96  N         41.6830    1.1950  -25.6100 N.am  199  TYR199     -0.1976
     97  CA        42.7020    1.9540  -26.3440 C.3   199  TYR199      0.1639
     98  C         44.0790    1.3390  -26.0700 C.2   199  TYR199      0.2290
     99  O         44.8720    1.1500  -26.9960 O.2   199  TYR199     -0.2864
    100  CB        42.6670    3.4480  -25.9850 C.3   199  TYR199      0.0560
    101  CG        43.6880    4.2470  -26.7610 C.ar  199  TYR199     -0.0198
    102  CD1       45.0050    4.2890  -26.3480 C.ar  199  TYR199     -0.0009
    103  CD2       43.3420    4.9340  -27.9270 C.ar  199  TYR199     -0.0009
    104  CE1       45.9650    4.9650  -27.0680 C.ar  199  TYR199      0.0417
    105  CE2       44.3090    5.6330  -28.6490 C.ar  199  TYR199      0.0417
    106  CZ        45.6060    5.6360  -28.2090 C.ar  199  TYR199      0.1957
    107  OH        46.5960    6.3130  -28.8770 O.3   199  TYR199     -0.2866
@<TRIPOS>BOND
     1    20    18    1
     2    18    17    1
     3    53    54    2
     4    53    52    1
     5    51    52    1
     6    52    55    1
     7    17    19    1
     8    17    14    1
     9    15    16    2
    10    15    14    1
    11    49    48    1
    12    14    13    1
    13    55    57    1
    14    55    56    1
    15    13    11   am
    16    48    50    1
    17    48    47    2
    18    68    67   ar
    19    68    66   ar
    20    67    65   ar
    21    43    42    2
    22    44    45    1
    23    44    41    1
    24    45    46    1
    25    33    34   ar
    26    33    31   ar
    27    46    47    1
    28     9    10    1
    29    11    12    2
    30    11    10    1
    31    42    41    1
    32    66    64   ar
    33    65    63   ar
    34     8     7    1
    35    41    40    1
    36    34    32   ar
    37    31    28   ar
    38   107   106    1
    39   105   106   ar
    40   105   103   ar
    41     3     4    2
    42     3     2    1
    43     7     6    1
    44    64    63   ar
    45    63    62    1
    46   106   104   ar
    47    40    37   am
    48   103   101   ar
    49     6     5    1
    50    32    30   ar
    51    28    30   ar
    52    28    26   ar
    53    23    24    2
    54    23    22    1
    55     2     5    1
    56     2     1    1
    57   104   102   ar
    58    30    29   ar
    59    94    92    1
    60    62    59    1
    61    99    98    2
    62    37    38    2
    63    37    36    1
    64    21    22    1
    65    91    90    2
    66   101   102   ar
    67   101   100    1
    68    25    26    1
    69    25    22    1
    70    26    27   ar
    71    58    59    1
    72    97    98    1
    73    97   100    1
    74    97    96    1
    75    39    36    1
    76    59    60    1
    77    36    35    1
    78    90    96   am
    79    90    89    1
    80    77    75   ar
    81    77    79   ar
    82    29    27   ar
    83    80    79    1
    84    92    89    1
    85    92    93    1
    86    75    74   ar
    87    89    88    1
    88    79    78   ar
    89    95    93    1
    90    60    61    2
    91    84    83    2
    92    74    73    1
    93    74    76   ar
    94    78    76   ar
    95    85    82    1
    96    85    86    1
    97    82    83    1
    98    82    81    1
    99    73    70    1
   100    70    71    1
   101    70    69    1
   102    86    87    1
   103    72    71    2
   104    81    87    1
