@<TRIPOS>MOLECULE
tmp/4wvbA00.pdb
 133 126 0 0 0
SMALL
GASTEIGER

@<TRIPOS>ATOM
      1  N         19.8250   14.4030  -45.3590 N.3    39  LEU39      -0.1245
      2  CA        19.9970   15.3290  -46.4830 C.3    39  LEU39       0.1561
      3  C         18.9470   15.0700  -47.5630 C.2    39  LEU39       0.2260
      4  O         18.4060   16.0250  -48.1730 O.2    39  LEU39      -0.2867
      5  CB        21.4220   15.2300  -47.0660 C.3    39  LEU39       0.0270
      6  CG        22.5890   15.7610  -46.2330 C.3    39  LEU39       0.0019
      7  CD1       23.8920   15.5330  -46.9510 C.3    39  LEU39       0.0001
      8  CD2       22.4150   17.2280  -45.8920 C.3    39  LEU39       0.0001
      9  N         28.1140   18.1630  -39.8860 N.3   105  THR105     -0.1218
     10  CA        28.0550   18.7910  -41.2020 C.3   105  THR105      0.1862
     11  C         26.5960   18.8180  -41.7440 C.2   105  THR105      0.2287
     12  O         26.1340   19.8370  -42.2840 O.2   105  THR105     -0.2866
     13  CB        29.0000   18.0400  -42.1580 C.3   105  THR105      0.1770
     14  OG1       30.3540   18.2210  -41.7410 O.3   105  THR105     -0.2211
     15  CG2       28.8600   18.5200  -43.6120 C.3   105  THR105      0.0375
     16  N         24.4920   21.3360  -39.5770 N.3   108  ARG108     -0.1231
     17  CA        24.7540   22.7120  -40.0230 C.3   108  ARG108      0.1694
     18  C         23.9240   23.0570  -41.2730 C.2   108  ARG108      0.2592
     19  O         23.3070   24.1290  -41.3490 O.2   108  ARG108     -0.2718
     20  CB        26.2210   22.9520  -40.3340 C.3   108  ARG108      0.0321
     21  CG        26.4990   24.3990  -40.7280 C.3   108  ARG108      0.0489
     22  CD        27.9230   24.6480  -41.1090 C.3   108  ARG108      0.2205
     23  NE        28.0850   26.0110  -41.6020 N.pl3 108  ARG108     -0.0865
     24  CZ        29.2140   26.5330  -42.0310 C.cat 108  ARG108      0.5346
     25  NH1       30.3400   25.8360  -42.0440 N.pl3 108  ARG108      0.1354
     26  NH2       29.2190   27.7880  -42.4410 N.pl3 108  ARG108      0.1354
     27  N         23.9250   22.1510  -42.2420 N.am  109  TYR109     -0.1976
     28  CA        23.1040   22.3490  -43.4520 C.3   109  TYR109      0.1639
     29  C         21.6230   22.5120  -43.0960 C.2   109  TYR109      0.2290
     30  O         20.9760   23.4820  -43.5160 O.2   109  TYR109     -0.2864
     31  CB        23.2600   21.2030  -44.4530 C.3   109  TYR109      0.0560
     32  CG        22.4020   21.5020  -45.6760 C.ar  109  TYR109     -0.0198
     33  CD1       22.8660   22.3340  -46.6880 C.ar  109  TYR109     -0.0009
     34  CD2       21.1030   21.0240  -45.7610 C.ar  109  TYR109     -0.0009
     35  CE1       22.0530   22.6410  -47.7900 C.ar  109  TYR109      0.0417
     36  CE2       20.2930   21.3370  -46.8470 C.ar  109  TYR109      0.0417
     37  CZ        20.7770   22.1410  -47.8450 C.ar  109  TYR109      0.1957
     38  OH        19.9370   22.4420  -48.9130 O.3   109  TYR109     -0.2866
     39  N         19.5640   26.0790  -43.8010 N.3   113  LYS113     -0.1245
     40  CA        18.6480   26.0580  -44.9430 C.3   113  LYS113      0.1561
     41  C         17.1980   25.8080  -44.6750 C.2   113  LYS113      0.2260
     42  O         16.3870   26.0150  -45.5900 O.2   113  LYS113     -0.2867
     43  CB        19.1580   25.0740  -45.9790 C.3   113  LYS113      0.0271
     44  CG        20.5190   25.4470  -46.5180 C.3   113  LYS113      0.0035
     45  CD        20.5430   26.7850  -47.2200 C.3   113  LYS113      0.0206
     46  CE        21.9060   26.9620  -47.8720 C.3   113  LYS113      0.1093
     47  NZ        22.2320   28.3790  -48.1020 N.3   113  LYS113     -0.1314
     48  N         36.1270   17.9510  -40.9560 N.3   217  ARG217     -0.1245
     49  CA        35.0580   18.7330  -41.5810 C.3   217  ARG217      0.1563
     50  C         33.9350   19.0210  -40.5890 C.2   217  ARG217      0.2260
     51  O         33.4420   20.1300  -40.4750 O.2   217  ARG217     -0.2867
     52  CB        34.4860   18.0050  -42.7940 C.3   217  ARG217      0.0307
     53  CG        33.3360   18.7020  -43.4990 C.3   217  ARG217      0.0489
     54  CD        33.5460   20.1670  -43.7960 C.3   217  ARG217      0.2205
     55  NE        32.3730   20.7220  -44.4580 N.pl3 217  ARG217     -0.0865
     56  CZ        32.1270   20.6810  -45.7850 C.cat 217  ARG217      0.5346
     57  NH1       32.9890   20.1140  -46.6220 N.pl3 217  ARG217      0.1354
     58  NH2       31.0050   21.2030  -46.2590 N.pl3 217  ARG217      0.1354
     59  N         32.3190   22.5750  -39.1050 N.3   221  ASP221     -0.1239
     60  CA        30.9170   22.8840  -39.2170 C.3   221  ASP221      0.1674
     61  C         30.2710   23.0670  -37.8340 C.2   221  ASP221      0.2266
     62  O         29.3840   23.8800  -37.6720 O.2   221  ASP221     -0.2867
     63  CB        30.2130   21.8190  -40.0550 C.3   221  ASP221      0.1410
     64  CG        30.6250   21.8960  -41.5160 C.2   221  ASP221      0.3668
     65  OD1       30.8920   23.0270  -41.9790 O.co2 221  ASP221     -0.2456
     66  OD2       30.6550   20.8470  -42.1950 O.co2 221  ASP221     -0.2456
     67  N         37.4650   17.2420  -48.5320 N.3   281  PHE281     -0.1241
     68  CA        36.1850   17.5270  -47.8790 C.3   281  PHE281      0.1605
     69  C         36.3960   18.2140  -46.5150 C.2   281  PHE281      0.2264
     70  O         35.5920   19.0090  -46.0860 O.2   281  PHE281     -0.2867
     71  CB        35.4200   16.1980  -47.7560 C.3   281  PHE281      0.0534
     72  CG        34.0160   16.2960  -47.2130 C.ar  281  PHE281     -0.0203
     73  CD1       32.9990   16.8780  -47.9340 C.ar  281  PHE281     -0.0042
     74  CD2       33.6970   15.7150  -45.9690 C.ar  281  PHE281     -0.0042
     75  CE1       31.7010   16.9160  -47.4550 C.ar  281  PHE281     -0.0003
     76  CE2       32.4120   15.7520  -45.4830 C.ar  281  PHE281     -0.0003
     77  CZ        31.4060   16.3570  -46.2100 C.ar  281  PHE281     -0.0000
     78  N         30.0910   11.7970  -53.5860 N.3   334  TRP334     -0.1241
     79  CA        29.5310   13.0580  -53.1760 C.3   334  TRP334      0.1605
     80  C         30.5320   13.8340  -52.3190 C.2   334  TRP334      0.2264
     81  O         30.8110   14.9820  -52.6240 O.2   334  TRP334     -0.2867
     82  CB        28.1980   12.8710  -52.4400 C.3   334  TRP334      0.0550
     83  CG        27.6520   14.1420  -51.9380 C.ar  334  TRP334      0.0003
     84  CD1       27.0830   15.1340  -52.6650 C.ar  334  TRP334      0.0946
     85  CD2       27.6490   14.5820  -50.5800 C.ar  334  TRP334      0.0152
     86  NE1       26.6940   16.1710  -51.8460 N.ar  334  TRP334     -0.2442
     87  CE2       27.0470   15.8560  -50.5590 C.ar  334  TRP334      0.0810
     88  CE3       28.0900   14.0080  -49.3740 C.ar  334  TRP334      0.0012
     89  CZ2       26.8930   16.5830  -49.3870 C.ar  334  TRP334      0.0191
     90  CZ3       27.9240   14.7200  -48.2200 C.ar  334  TRP334      0.0001
     91  CH2       27.3420   15.9950  -48.2280 C.ar  334  TRP334      0.0015
     92  N         32.3680   17.2800  -53.6230 N.3   338  GLU338     -0.1245
     93  CA        32.2790   18.4780  -52.7970 C.3   338  GLU338      0.1567
     94  C         33.6820   19.0410  -52.5320 C.2   338  GLU338      0.2260
     95  O         33.9290   20.2350  -52.6840 O.2   338  GLU338     -0.2867
     96  CB        31.5950   18.1390  -51.4570 C.3   338  GLU338      0.0388
     97  CG        30.0650   18.1050  -51.5210 C.3   338  GLU338      0.1160
     98  CD        29.4430   19.4870  -51.4820 C.2   338  GLU338      0.3649
     99  OE1       30.0350   20.4090  -50.8750 O.co2 338  GLU338     -0.2457
    100  OE2       28.3210   19.6400  -52.0210 O.co2 338  GLU338     -0.2457
    101  N         35.4090   20.4540  -55.7320 N.3   341  ARG341     -0.1245
    102  CA        34.7480   21.7280  -56.0880 C.3   341  ARG341      0.1563
    103  C         35.2960   22.8640  -55.2530 C.2   341  ARG341      0.2260
    104  O         35.6130   23.9520  -55.7590 O.2   341  ARG341     -0.2867
    105  CB        33.2340   21.6390  -55.9020 C.3   341  ARG341      0.0307
    106  CG        32.4400   22.8870  -56.3230 C.3   341  ARG341      0.0489
    107  CD        32.3810   24.0260  -55.2750 C.3   341  ARG341      0.2205
    108  NE        32.1910   23.5070  -53.9140 N.pl3 341  ARG341     -0.0865
    109  CZ        31.0370   23.0820  -53.3910 C.cat 341  ARG341      0.5346
    110  NH1       29.9020   23.1890  -54.0810 N.pl3 341  ARG341      0.1354
    111  NH2       31.0130   22.5650  -52.1440 N.pl3 341  ARG341      0.1354
    112  N         19.5850   14.9580  -52.8430 N.3   391  PHE391     -0.1241
    113  CA        20.3070   16.1430  -52.3720 C.3   391  PHE391      0.1605
    114  C         21.1810   16.7800  -53.4610 C.2   391  PHE391      0.2264
    115  O         21.1860   18.0030  -53.6450 O.2   391  PHE391     -0.2867
    116  CB        21.1420   15.8000  -51.1350 C.3   391  PHE391      0.0534
    117  CG        21.7480   17.0030  -50.5130 C.ar  391  PHE391     -0.0203
    118  CD1       20.9270   17.9130  -49.8690 C.ar  391  PHE391     -0.0042
    119  CD2       23.0930   17.2570  -50.6190 C.ar  391  PHE391     -0.0042
    120  CE1       21.4590   19.0610  -49.3110 C.ar  391  PHE391     -0.0003
    121  CE2       23.6420   18.4030  -50.0480 C.ar  391  PHE391     -0.0003
    122  CZ        22.8210   19.2930  -49.3900 C.ar  391  PHE391     -0.0000
    123  N         19.2790   18.9700  -56.0170 N.3   394  ARG394     -0.1245
    124  CA        18.3390   19.9210  -55.4450 C.3   394  ARG394      0.1563
    125  C         18.4020   21.2550  -56.1820 C.2   394  ARG394      0.2260
    126  O         17.4760   22.0580  -56.0490 O.2   394  ARG394     -0.2867
    127  CB        18.6750   20.1640  -53.9770 C.3   394  ARG394      0.0307
    128  CG        19.9120   21.0030  -53.7630 C.3   394  ARG394      0.0489
    129  CD        20.3610   20.9010  -52.3130 C.3   394  ARG394      0.2205
    130  NE        21.6000   21.6250  -52.0350 N.pl3 394  ARG394     -0.0865
    131  CZ        22.8310   21.1770  -52.2840 C.cat 394  ARG394      0.5346
    132  NH1       23.0370   19.9950  -52.8690 N.pl3 394  ARG394      0.1354
    133  NH2       23.8840   21.9250  -51.9410 N.pl3 394  ARG394      0.1354
@<TRIPOS>BOND
     1   106   105    1
     2   106   107    1
     3   125   126    2
     4   125   124    1
     5   102   105    1
     6   102   101    1
     7   102   103    1
     8   123   124    1
     9   104   103    2
    10   124   127    1
    11   107   108    1
    12   110   109    1
    13   127   128    1
    14   108   109    2
    15   128   129    1
    16   115   114    2
    17    92    93    1
    18    78    79    1
    19   114   113    1
    20   109   111    1
    21    79    82    1
    22    79    80    1
    23   132   131    1
    24   112   113    1
    25    93    94    1
    26    93    96    1
    27    95    94    2
    28    84    83   ar
    29    84    86   ar
    30    81    80    2
    31    82    83    1
    32   113   116    1
    33   129   130    1
    34   131   130    2
    35   131   133    1
    36   100    98   ar
    37    83    85   ar
    38    86    87   ar
    39    97    98    1
    40    97    96    1
    41    98    99   ar
    42   116   117    1
    43   119   117   ar
    44   119   121   ar
    45    85    87   ar
    46    85    88   ar
    47    87    89   ar
    48   117   118   ar
    49   121   122   ar
    50   118   120   ar
    51   122   120   ar
    52    89    91   ar
    53    88    90   ar
    54    38    37    1
    55    67    68    1
    56    91    90   ar
    57     4     3    2
    58    47    46    1
    59    73    75   ar
    60    73    72   ar
    61    68    71    1
    62    68    69    1
    63    46    45    1
    64    37    35   ar
    65    37    36   ar
    66    35    33   ar
    67    71    72    1
    68     3     2    1
    69    75    77   ar
    70    45    44    1
    71    72    74   ar
    72     5     2    1
    73     5     6    1
    74     7     6    1
    75    36    34   ar
    76    33    32   ar
    77    57    56    1
    78    44    43    1
    79    69    70    2
    80     2     1    1
    81    58    56    1
    82     6     8    1
    83    77    76   ar
    84    43    40    1
    85    74    76   ar
    86    56    55    2
    87    34    32   ar
    88    32    31    1
    89    42    41    2
    90    40    41    1
    91    40    39    1
    92    55    54    1
    93    31    28    1
    94    54    53    1
    95    15    13    1
    96    30    29    2
    97    53    52    1
    98    28    29    1
    99    28    27    1
   100    52    49    1
   101    26    24    1
   102    12    11    2
   103    27    18   am
   104    66    64   ar
   105    13    14    1
   106    13    10    1
   107    25    24    1
   108    24    23    2
   109    65    64   ar
   110    11    10    1
   111    23    22    1
   112    49    48    1
   113    49    50    1
   114    64    63    1
   115    19    18    2
   116    18    17    1
   117    10     9    1
   118    22    21    1
   119    21    20    1
   120    50    51    2
   121    20    17    1
   122    63    60    1
   123    17    16    1
   124    60    59    1
   125    60    61    1
   126    61    62    2
