@<TRIPOS>MOLECULE
tmp/4wvbB01.pdb
 107 104 0 0 0
SMALL
GASTEIGER

@<TRIPOS>ATOM
      1  N         24.2500   15.3180  -17.1620 N.3    67  MET67      -0.1245
      2  CA        23.4280   15.7740  -16.0580 C.3    67  MET67       0.1570
      3  C         22.8310   14.6760  -15.1710 C.2    67  MET67       0.2261
      4  O         22.3110   13.6650  -15.6610 O.2    67  MET67      -0.2867
      5  CB        22.3040   16.6590  -16.6190 C.3    67  MET67       0.0387
      6  CG        21.4500   17.2930  -15.5700 C.3    67  MET67       0.0595
      7  SD        19.9550   16.3490  -15.1940 S.3    67  MET67      -0.1393
      8  CE        19.1720   17.7130  -14.3390 C.3    67  MET67       0.0692
      9  N         14.3500   17.8650  -13.7960 N.3    97  GLY97      -0.1210
     10  CA        15.1710   18.6320  -14.7200 C.3    97  GLY97       0.1956
     11  C         16.1370   19.5850  -14.0030 C.2    97  GLY97       0.2611
     12  O         16.7640   20.4370  -14.6320 O.2    97  GLY97      -0.2717
     13  N         16.2480   19.4100  -12.6940 N.am   98  ILE98      -0.1979
     14  CA        17.1960   20.1760  -11.8630 C.3    98  ILE98       0.1595
     15  C         18.0930   19.1770  -11.1110 C.2    98  ILE98       0.2287
     16  O         17.7900   17.9880  -11.0530 O.2    98  ILE98      -0.2864
     17  CB        16.4770   21.1400  -10.9060 C.3    98  ILE98       0.0276
     18  CG1       15.5100   20.4100   -9.9840 C.3    98  ILE98       0.0022
     19  CG2       15.7520   22.2470  -11.6910 C.3    98  ILE98       0.0022
     20  CD1       15.0550   21.2080   -8.7980 C.3    98  ILE98       0.0001
     21  N         29.2090   18.5700  -16.8060 N.3   138  TRP138     -0.1241
     22  CA        27.9180   19.1940  -17.0400 C.3   138  TRP138      0.1605
     23  C         27.7280   20.3700  -16.0870 C.2   138  TRP138      0.2264
     24  O         27.3280   21.4660  -16.5180 O.2   138  TRP138     -0.2867
     25  CB        26.7640   18.1920  -16.9040 C.3   138  TRP138      0.0550
     26  CG        25.4710   18.8740  -17.0880 C.ar  138  TRP138      0.0003
     27  CD1       24.8770   19.2100  -18.2710 C.ar  138  TRP138      0.0946
     28  CD2       24.6500   19.4110  -16.0620 C.ar  138  TRP138      0.0152
     29  NE1       23.7100   19.8910  -18.0260 N.ar  138  TRP138     -0.2442
     30  CE2       23.5410   20.0240  -16.6830 C.ar  138  TRP138      0.0810
     31  CE3       24.7140   19.3850  -14.6680 C.ar  138  TRP138      0.0012
     32  CZ2       22.5260   20.6250  -15.9670 C.ar  138  TRP138      0.0191
     33  CZ3       23.6810   20.0020  -13.9470 C.ar  138  TRP138      0.0001
     34  CH2       22.6150   20.6130  -14.6090 C.ar  138  TRP138      0.0015
     35  N         27.3590   23.9350  -17.8060 N.3   142  ALA142     -0.1231
     36  CA        26.0380   24.5390  -17.7270 C.3   142  ALA142      0.1694
     37  C         25.9000   25.6840  -16.7220 C.2   142  ALA142      0.2591
     38  O         25.1960   26.6560  -16.9780 O.2   142  ALA142     -0.2718
     39  CB        24.9930   23.4860  -17.4400 C.3   142  ALA142      0.0304
     40  N         26.5640   25.5410  -15.5770 N.am  143  ARG143     -0.1980
     41  CA        26.3320   26.4150  -14.4190 C.3   143  ARG143      0.1597
     42  C         27.5210   27.3570  -14.1280 C.2   143  ARG143      0.2287
     43  O         27.4350   28.1990  -13.2460 O.2   143  ARG143     -0.2864
     44  CB        25.9900   25.6000  -13.2230 C.3   143  ARG143      0.0334
     45  CG        24.8020   24.6610  -13.3880 C.3   143  ARG143      0.0492
     46  CD        23.5900   25.4090  -13.8660 C.3   143  ARG143      0.2205
     47  NE        22.4110   24.5300  -13.9030 N.pl3 143  ARG143     -0.0865
     48  CZ        21.6960   24.1680  -12.8540 C.cat 143  ARG143      0.5346
     49  NH1       22.0160   24.5620  -11.6110 N.pl3 143  ARG143      0.1354
     50  NH2       20.6170   23.3890  -13.0630 N.pl3 143  ARG143      0.1354
     51  N         19.9410   27.4380  -10.1190 N.3   154  VAL154     -0.1245
     52  CA        18.8250   28.2260  -10.6750 C.3   154  VAL154      0.1561
     53  C         17.4880   27.9620   -9.9970 C.2   154  VAL154      0.2260
     54  O         16.4610   28.5630  -10.3590 O.2   154  VAL154     -0.2867
     55  CB        18.7420   28.0190  -12.2000 C.3   154  VAL154      0.0252
     56  CG1       20.0030   28.5240  -12.8610 C.3   154  VAL154      0.0019
     57  CG2       18.4760   26.5700  -12.5600 C.3   154  VAL154      0.0019
     58  N         11.8390   27.3790  -17.0300 N.3   211  PHE211     -0.1241
     59  CA        12.7440   26.3870  -17.5870 C.3   211  PHE211      0.1605
     60  C         12.0670   25.5920  -18.7190 C.2   211  PHE211      0.2264
     61  O         12.7000   25.2550  -19.7100 O.2   211  PHE211     -0.2867
     62  CB        13.2560   25.3770  -16.5270 C.3   211  PHE211      0.0534
     63  CG        13.8510   26.0080  -15.2680 C.ar  211  PHE211     -0.0203
     64  CD1       14.3870   27.2870  -15.2750 C.ar  211  PHE211     -0.0042
     65  CD2       13.8770   25.2760  -14.0860 C.ar  211  PHE211     -0.0042
     66  CE1       14.9200   27.8380  -14.0970 C.ar  211  PHE211     -0.0003
     67  CE2       14.3930   25.8220  -12.9150 C.ar  211  PHE211     -0.0003
     68  CZ        14.9130   27.1060  -12.9340 C.ar  211  PHE211     -0.0000
     69  N         14.5450   23.7690  -21.3330 N.3   216  TYR216     -0.1241
     70  CA        15.6890   23.3530  -20.5400 C.3   216  TYR216      0.1605
     71  C         17.0450   23.6050  -21.2300 C.2   216  TYR216      0.2264
     72  O         18.0060   22.9000  -20.9860 O.2   216  TYR216     -0.2867
     73  CB        15.4770   21.9030  -20.0450 C.3   216  TYR216      0.0534
     74  CG        14.5840   21.8540  -18.7970 C.ar  216  TYR216     -0.0201
     75  CD1       13.1960   21.9400  -18.8920 C.ar  216  TYR216     -0.0009
     76  CD2       15.1420   21.7730  -17.5200 C.ar  216  TYR216     -0.0009
     77  CE1       12.3890   21.9170  -17.7540 C.ar  216  TYR216      0.0417
     78  CE2       14.3520   21.7500  -16.3740 C.ar  216  TYR216      0.0417
     79  CZ        12.9780   21.8190  -16.4880 C.ar  216  TYR216      0.1957
     80  OH        12.2350   21.7920  -15.3190 O.3   216  TYR216     -0.2866
     81  N         20.4350   25.0940  -21.4390 N.3   218  PRO218     -0.2116
     82  CA        21.2250   25.6830  -20.3360 C.3   218  PRO218      0.1372
     83  C         21.6820   27.1330  -20.5670 C.2   218  PRO218      0.2244
     84  O         21.6780   27.9580  -19.6360 O.2   218  PRO218     -0.2868
     85  CB        22.4270   24.7350  -20.2230 C.3   218  PRO218      0.0268
     86  CG        21.9340   23.4330  -20.7650 C.3   218  PRO218      0.0207
     87  CD        21.0230   23.8170  -21.8930 C.3   218  PRO218      0.0892
     88  N         18.6600   29.4970  -19.9750 N.3   221  ILE221     -0.1231
     89  CA        18.2460   29.5400  -18.5870 C.3   221  ILE221      0.1692
     90  C         19.2930   30.2620  -17.7400 C.2   221  ILE221      0.2592
     91  O         18.9240   31.0200  -16.8650 O.2   221  ILE221     -0.2718
     92  CB        17.9290   28.1530  -18.0200 C.3   221  ILE221      0.0266
     93  CG1       16.6400   27.6490  -18.6710 C.3   221  ILE221      0.0019
     94  CG2       17.7180   28.2210  -16.5090 C.3   221  ILE221      0.0020
     95  CD1       16.4290   26.1680  -18.5490 C.3   221  ILE221      0.0001
     96  N         20.5680   30.0420  -18.0320 N.am  222  TYR222     -0.1976
     97  CA        21.6260   30.7690  -17.3250 C.3   222  TYR222      0.1639
     98  C         21.4590   32.2760  -17.5340 C.2   222  TYR222      0.2290
     99  O         21.5410   33.0450  -16.5960 O.2   222  TYR222     -0.2864
    100  CB        23.0110   30.3110  -17.7470 C.3   222  TYR222      0.0560
    101  CG        24.0800   30.9360  -16.8740 C.ar  222  TYR222     -0.0198
    102  CD1       24.5640   32.2200  -17.1250 C.ar  222  TYR222     -0.0009
    103  CD2       24.5580   30.2560  -15.7640 C.ar  222  TYR222     -0.0009
    104  CE1       25.5350   32.7890  -16.2940 C.ar  222  TYR222      0.0417
    105  CE2       25.5200   30.8140  -14.9470 C.ar  222  TYR222      0.0417
    106  CZ        25.9900   32.0640  -15.2040 C.ar  222  TYR222      0.1957
    107  OH        26.9560   32.5670  -14.3660 O.3   222  TYR222     -0.2866
@<TRIPOS>BOND
     1    87    81    1
     2    87    86    1
     3    81    82    1
     4    69    70    1
     5    71    72    2
     6    71    70    1
     7    86    85    1
     8    83    82    1
     9    83    84    2
    10    70    73    1
    11    82    85    1
    12    73    74    1
    13    88    89    1
    14    61    60    2
    15    75    74   ar
    16    75    77   ar
    17    74    76   ar
    18    60    59    1
    19    93    95    1
    20    93    92    1
    21    89    92    1
    22    89    90    1
    23    27    29   ar
    24    27    26   ar
    25    96    90   am
    26    96    97    1
    27    29    30   ar
    28    92    94    1
    29    35    36    1
    30    77    79   ar
    31   100    97    1
    32   100   101    1
    33    90    91    2
    34    36    39    1
    35    36    37    1
    36    59    58    1
    37    59    62    1
    38    98    97    1
    39    98    99    2
    40    76    78   ar
    41     1     2    1
    42   102   101   ar
    43   102   104   ar
    44    26    25    1
    45    26    28   ar
    46    22    25    1
    47    22    21    1
    48    22    23    1
    49    38    37    2
    50   101   103   ar
    51    37    40   am
    52    30    28   ar
    53    30    32   ar
    54     5     2    1
    55     5     6    1
    56    62    63    1
    57    24    23    2
    58    79    78   ar
    59    79    80    1
    60   104   106   ar
    61    28    31   ar
    62     2     3    1
    63    32    34   ar
    64   103   105   ar
    65     4     3    2
    66    40    41    1
    67     6     7    1
    68    64    63   ar
    69    64    66   ar
    70    63    65   ar
    71   106   105   ar
    72   106   107    1
    73     7     8    1
    74    10    11    1
    75    10     9    1
    76    31    33   ar
    77    12    11    2
    78    34    33   ar
    79    41    42    1
    80    41    44    1
    81    42    43    2
    82    66    68   ar
    83    65    67   ar
    84    11    13   am
    85    47    46    1
    86    47    48    2
    87    46    45    1
    88    45    44    1
    89    50    48    1
    90    68    67   ar
    91    56    55    1
    92    48    49    1
    93    13    14    1
    94    57    55    1
    95    55    52    1
    96    14    15    1
    97    14    17    1
    98    19    17    1
    99    15    16    2
   100    17    18    1
   101    52    51    1
   102    52    53    1
   103    54    53    2
   104    18    20    1
