@<TRIPOS>MOLECULE
tmp/4wvcB00.pdb
 150 152 0 0 0
SMALL
GASTEIGER

@<TRIPOS>ATOM
      1  N         15.5830   47.5040   24.8370 N.3    21  PRO21      -0.2116
      2  CA        15.8060   46.6870   23.6330 C.3    21  PRO21       0.1372
      3  C         14.8160   46.9630   22.5010 C.2    21  PRO21       0.2244
      4  O         15.2080   46.9460   21.3310 O.2    21  PRO21      -0.2868
      5  CB        15.6120   45.2500   24.1360 C.3    21  PRO21       0.0268
      6  CG        15.9400   45.3190   25.5860 C.3    21  PRO21       0.0207
      7  CD        15.5200   46.6810   26.0590 C.3    21  PRO21       0.0892
      8  N          9.9180   45.2400   24.8280 N.3    26  TYR26      -0.1241
      9  CA        10.9320   45.1230   25.8770 C.3    26  TYR26       0.1605
     10  C         11.0940   46.4880   26.5600 C.2    26  TYR26       0.2264
     11  O         12.0920   47.1780   26.3480 O.2    26  TYR26      -0.2867
     12  CB        12.2870   44.6720   25.2830 C.3    26  TYR26       0.0534
     13  CG        12.3020   43.3130   24.5910 C.ar   26  TYR26      -0.0201
     14  CD1       11.8720   42.1570   25.2500 C.ar   26  TYR26      -0.0009
     15  CD2       12.7680   43.1860   23.2800 C.ar   26  TYR26      -0.0009
     16  CE1       11.8830   40.9200   24.6090 C.ar   26  TYR26       0.0417
     17  CE2       12.7950   41.9660   22.6350 C.ar   26  TYR26       0.0417
     18  CZ        12.3460   40.8410   23.2980 C.ar   26  TYR26       0.1957
     19  OH        12.3740   39.6240   22.6570 O.3    26  TYR26      -0.2866
     20  N         17.5180   45.5110   29.9100 N.3    30  TRP30      -0.1241
     21  CA        18.0890   44.1720   29.8660 C.3    30  TRP30       0.1605
     22  C         19.6340   44.2150   30.0120 C.2    30  TRP30       0.2264
     23  O         20.3050   45.1650   29.5820 O.2    30  TRP30      -0.2867
     24  CB        17.6700   43.4450   28.5870 C.3    30  TRP30       0.0550
     25  CG        16.4630   42.5640   28.7210 C.ar   30  TRP30       0.0003
     26  CD1       16.4550   41.2030   28.7860 C.ar   30  TRP30       0.0946
     27  CD2       15.0930   42.9710   28.7630 C.ar   30  TRP30       0.0152
     28  NE1       15.1610   40.7240   28.8730 N.ar   30  TRP30      -0.2442
     29  CE2       14.3050   41.7940   28.8540 C.ar   30  TRP30       0.0810
     30  CE3       14.4510   44.2080   28.7250 C.ar   30  TRP30       0.0012
     31  CZ2       12.9060   41.8290   28.9200 C.ar   30  TRP30       0.0191
     32  CZ3       13.0670   44.2400   28.7840 C.ar   30  TRP30       0.0001
     33  CH2       12.3090   43.0610   28.8840 C.ar   30  TRP30       0.0015
     34  N         22.5160   42.0290   28.9630 N.3    32  TRP32      -0.1227
     35  CA        23.4640   41.9770   27.8340 C.3    32  TRP32       0.1737
     36  C         23.0430   42.8610   26.6980 C.2    32  TRP32       0.2595
     37  O         23.9020   43.2770   25.9250 O.2    32  TRP32      -0.2718
     38  CB        23.7640   40.5700   27.3300 C.3    32  TRP32       0.0564
     39  CG        22.7360   39.8650   26.4750 C.ar   32  TRP32       0.0003
     40  CD1       21.3820   40.0200   26.4890 C.ar   32  TRP32       0.0946
     41  CD2       22.9960   38.8000   25.5600 C.ar   32  TRP32       0.0152
     42  NE1       20.7830   39.1320   25.6260 N.ar   32  TRP32      -0.2442
     43  CE2       21.7530   38.3760   25.0350 C.ar   32  TRP32       0.0810
     44  CE3       24.1600   38.1710   25.1190 C.ar   32  TRP32       0.0012
     45  CZ2       21.6430   37.3630   24.0860 C.ar   32  TRP32       0.0191
     46  CZ3       24.0470   37.1580   24.1810 C.ar   32  TRP32       0.0001
     47  CH2       22.7980   36.7670   23.6770 C.ar   32  TRP32       0.0015
     48  N         21.7370   43.1510   26.5900 N.am   33  ASP33      -0.1974
     49  CA        21.2650   44.1420   25.6410 C.3    33  ASP33       0.1709
     50  C         22.0330   45.4250   25.9460 C.2    33  ASP33       0.2293
     51  O         22.6400   45.9970   25.0600 O.2    33  ASP33      -0.2864
     52  CB        19.7300   44.3620   25.6890 C.3    33  ASP33       0.1436
     53  CG        18.9250   43.1830   25.1120 C.2    33  ASP33       0.3671
     54  OD1       18.9690   42.0980   25.7390 O.co2  33  ASP33      -0.2456
     55  OD2       18.2200   43.3380   24.0570 O.co2  33  ASP33      -0.2456
     56  N         22.0320   37.2070   33.1410 N.3    92  GLN92      -0.1245
     57  CA        22.2060   37.0560   31.6890 C.3    92  GLN92       0.1566
     58  C         23.6950   36.9920   31.3110 C.2    92  GLN92       0.2260
     59  O         24.5630   37.2060   32.1700 O.2    92  GLN92      -0.2867
     60  CB        21.5230   38.2120   30.9550 C.3    92  GLN92       0.0367
     61  CG        20.3190   37.7900   30.1240 C.3    92  GLN92       0.0905
     62  CD        19.8070   38.9100   29.2410 C.2    92  GLN92       0.2608
     63  OE1       20.2990   40.0400   29.2820 O.2    92  GLN92      -0.2717
     64  NE2       18.7830   38.6000   28.4580 N.am   92  GLN92      -0.0878
     65  N         20.0580   34.1360   27.1190 N.3   152  GLY152     -0.1225
     66  CA        19.7810   35.2230   26.1960 C.3   152  GLY152      0.1811
     67  C         19.1630   34.7080   24.9070 C.2   152  GLY152      0.2280
     68  O         18.7870   35.4770   24.0520 O.2   152  GLY152     -0.2866
     69  N         16.3340   32.3580   24.1720 N.3   154  ASP154     -0.1239
     70  CA        15.2690   31.8020   25.0080 C.3   154  ASP154      0.1674
     71  C         14.6800   30.4760   24.5960 C.2   154  ASP154      0.2266
     72  O         14.4160   29.6300   25.4590 O.2   154  ASP154     -0.2867
     73  CB        14.1340   32.7910   25.0720 C.3   154  ASP154      0.1410
     74  CG        14.5910   34.1780   25.4250 C.2   154  ASP154      0.3668
     75  OD1       15.8090   34.4120   25.5760 O.co2 154  ASP154     -0.2456
     76  OD2       13.7040   35.0350   25.5680 O.co2 154  ASP154     -0.2456
     77  N         12.5260   32.9400   16.3170 N.3   338  TYR338     -0.1227
     78  CA        13.3350   33.4250   17.4390 C.3   338  TYR338      0.1736
     79  C         14.8120   32.9460   17.4570 C.2   338  TYR338      0.2595
     80  O         15.6370   33.4720   16.7180 O.2   338  TYR338     -0.2718
     81  CB        12.5850   33.1210   18.7560 C.3   338  TYR338      0.0548
     82  CG        12.7680   34.0930   19.9020 C.ar  338  TYR338     -0.0200
     83  CD1       13.1740   35.4080   19.6830 C.ar  338  TYR338     -0.0009
     84  CD2       12.4460   33.7140   21.2110 C.ar  338  TYR338     -0.0009
     85  CE1       13.3060   36.2930   20.7260 C.ar  338  TYR338      0.0417
     86  CE2       12.5520   34.6170   22.2590 C.ar  338  TYR338      0.0417
     87  CZ        12.9900   35.8960   21.9950 C.ar  338  TYR338      0.1957
     88  OH        13.1380   36.7800   23.0030 O.3   338  TYR338     -0.2866
     89  N         15.1450   31.9650   18.2870 N.am  339  TRP339     -0.1976
     90  CA        16.5030   31.4500   18.3560 C.3   339  TRP339      0.1640
     91  C         16.5340   30.0230   17.7950 C.2   339  TRP339      0.2290
     92  O         17.4770   29.2740   18.0620 O.2   339  TRP339     -0.2864
     93  CB        17.0180   31.4900   19.8050 C.3   339  TRP339      0.0576
     94  CG        17.2920   32.9050   20.3240 C.ar  339  TRP339      0.0006
     95  CD1       16.4540   33.6710   21.0460 C.ar  339  TRP339      0.0946
     96  CD2       18.4900   33.6820   20.1470 C.ar  339  TRP339      0.0152
     97  NE1       17.0400   34.8870   21.3360 N.ar  339  TRP339     -0.2442
     98  CE2       18.2910   34.9170   20.7880 C.ar  339  TRP339      0.0810
     99  CE3       19.7080   33.4490   19.5090 C.ar  339  TRP339      0.0012
    100  CZ2       19.2660   35.9160   20.8160 C.ar  339  TRP339      0.0191
    101  CZ3       20.6760   34.4520   19.5310 C.ar  339  TRP339      0.0001
    102  CH2       20.4480   35.6620   20.1880 C.ar  339  TRP339      0.0015
    103  N         21.0140   36.7540   13.8840 N.3   344  TRP344     -0.1241
    104  CA        21.0760   37.7860   14.9210 C.3   344  TRP344      0.1605
    105  C         22.3280   38.6170   14.7560 C.2   344  TRP344      0.2264
    106  O         23.3930   38.0550   14.4860 O.2   344  TRP344     -0.2867
    107  CB        21.1340   37.1250   16.2940 C.3   344  TRP344      0.0550
    108  CG        19.8440   36.5180   16.7370 C.ar  344  TRP344      0.0003
    109  CD1       19.3320   35.2930   16.3850 C.ar  344  TRP344      0.0946
    110  CD2       18.9150   37.0950   17.6340 C.ar  344  TRP344      0.0152
    111  NE1       18.1310   35.0770   17.0180 N.ar  344  TRP344     -0.2442
    112  CE2       17.8480   36.1700   17.7890 C.ar  344  TRP344      0.0810
    113  CE3       18.8780   38.3000   18.3390 C.ar  344  TRP344      0.0012
    114  CZ2       16.7590   36.4170   18.6140 C.ar  344  TRP344      0.0191
    115  CZ3       17.7850   38.5440   19.1570 C.ar  344  TRP344      0.0001
    116  CH2       16.7500   37.6030   19.2950 C.ar  344  TRP344      0.0015
    117  N         15.0270   42.4710   15.4330 N.3   382  GLU382     -0.1245
    118  CA        15.5680   41.5920   16.4570 C.3   382  GLU382      0.1567
    119  C         16.3700   40.4710   15.8080 C.2   382  GLU382      0.2260
    120  O         17.5070   40.2120   16.2020 O.2   382  GLU382     -0.2867
    121  CB        14.4250   41.0250   17.3170 C.3   382  GLU382      0.0388
    122  CG        14.8510   40.4850   18.6780 C.3   382  GLU382      0.1160
    123  CD        13.6720   40.1950   19.6230 C.2   382  GLU382      0.3649
    124  OE1       12.5470   40.6540   19.3220 O.co2 382  GLU382     -0.2457
    125  OE2       13.8530   39.5090   20.6630 O.co2 382  GLU382     -0.2457
    126  N         15.0640   47.5210   16.9010 N.3   397  PHE397     -0.1241
    127  CA        15.7980   46.7300   17.8990 C.3   397  PHE397      0.1605
    128  C         17.1940   47.2870   18.1930 C.2   397  PHE397      0.2264
    129  O         18.0600   47.2990   17.3350 O.2   397  PHE397     -0.2867
    130  CB        15.8720   45.2770   17.4710 C.3   397  PHE397      0.0534
    131  CG        16.2880   44.3660   18.5750 C.ar  397  PHE397     -0.0203
    132  CD1       15.3820   43.9850   19.5600 C.ar  397  PHE397     -0.0042
    133  CD2       17.5990   43.9130   18.6490 C.ar  397  PHE397     -0.0042
    134  CE1       15.7750   43.1500   20.5980 C.ar  397  PHE397     -0.0003
    135  CE2       17.9930   43.0770   19.6720 C.ar  397  PHE397     -0.0003
    136  CZ        17.0850   42.6950   20.6510 C.ar  397  PHE397     -0.0000
    137  N         20.2390   46.8150   19.8250 N.3   399  TRP399     -0.1241
    138  CA        21.6220   46.3380   19.6500 C.3   399  TRP399      0.1605
    139  C         21.9520   46.1120   18.1750 C.2   399  TRP399      0.2264
    140  O         23.1200   46.1320   17.8030 O.2   399  TRP399     -0.2867
    141  CB        22.0020   45.1490   20.5580 C.3   399  TRP399      0.0550
    142  CG        21.6260   43.7640   20.1460 C.ar  399  TRP399      0.0003
    143  CD1       21.5800   43.2370   18.8840 C.ar  399  TRP399      0.0946
    144  CD2       21.2820   42.7020   21.0320 C.ar  399  TRP399      0.0152
    145  NE1       21.1920   41.9190   18.9360 N.ar  399  TRP399     -0.2442
    146  CE2       21.0200   41.5650   20.2470 C.ar  399  TRP399      0.0810
    147  CE3       21.1760   42.6020   22.4200 C.ar  399  TRP399      0.0012
    148  CZ2       20.6360   40.3480   20.8020 C.ar  399  TRP399      0.0191
    149  CZ3       20.8010   41.3960   22.9730 C.ar  399  TRP399      0.0001
    150  CH2       20.5340   40.2830   22.1660 C.ar  399  TRP399      0.0015
@<TRIPOS>BOND
     1   103   104    1
     2   106   105    2
     3   105   104    1
     4   104   107    1
     5   117   118    1
     6   119   120    2
     7   119   118    1
     8   107   108    1
     9    77    78    1
    10   109   108   ar
    11   109   111   ar
    12   118   121    1
    13    80    79    2
    14   108   110   ar
    15   126   127    1
    16   111   112   ar
    17   121   122    1
    18   129   128    2
    19    78    79    1
    20    78    81    1
    21    79    89   am
    22   130   127    1
    23   130   131    1
    24   110   112   ar
    25   110   113   ar
    26   112   114   ar
    27    91    92    2
    28    91    90    1
    29   140   139    2
    30   127   128    1
    31   139   138    1
    32    89    90    1
    33   113   115   ar
    34    90    93    1
    35   131   133   ar
    36   131   132   ar
    37   114   116   ar
    38   133   135   ar
    39   122   123    1
    40    81    82    1
    41   143   145   ar
    42   143   142   ar
    43   145   146   ar
    44   115   116   ar
    45   124   123   ar
    46    99   101   ar
    47    99    96   ar
    48   101   102   ar
    49   132   134   ar
    50   123   125   ar
    51   138   137    1
    52   138   141    1
    53   135   136   ar
    54    83    82   ar
    55    83    85   ar
    56    93    94    1
    57    82    84   ar
    58   142   141    1
    59   142   144   ar
    60    96    94   ar
    61    96    98   ar
    62   102   100   ar
    63   146   148   ar
    64   146   144   ar
    65    94    95   ar
    66   134   136   ar
    67    85    87   ar
    68    98   100   ar
    69    98    97   ar
    70   148   150   ar
    71   144   147   ar
    72    95    97   ar
    73    84    86   ar
    74     4     3    2
    75    87    86   ar
    76    87    88    1
    77   150   149   ar
    78   147   149   ar
    79     3     2    1
    80    17    15   ar
    81    17    18   ar
    82    19    18    1
    83    15    13   ar
    84    18    16   ar
    85     2     5    1
    86     2     1    1
    87    47    45   ar
    88    47    46   ar
    89    68    67    2
    90    55    53   ar
    91    45    43   ar
    92     5     6    1
    93    69    70    1
    94    46    44   ar
    95    13    14   ar
    96    13    12    1
    97    71    70    1
    98    71    72    2
    99    16    14   ar
   100     8     9    1
   101     1     7    1
   102    67    66    1
   103    70    73    1
   104    43    41   ar
   105    43    42   ar
   106    51    50    2
   107    73    74    1
   108    53    52    1
   109    53    54   ar
   110    44    41   ar
   111    12     9    1
   112    74    76   ar
   113    74    75   ar
   114    41    39   ar
   115     6     7    1
   116    42    40   ar
   117    49    52    1
   118    49    50    1
   119    49    48    1
   120     9    10    1
   121    37    36    2
   122    66    65    1
   123    11    10    2
   124    39    40   ar
   125    39    38    1
   126    48    36   am
   127    36    35    1
   128    38    35    1
   129    35    34    1
   130    64    62   am
   131    24    25    1
   132    24    21    1
   133    25    27   ar
   134    25    26   ar
   135    30    27   ar
   136    30    32   ar
   137    27    29   ar
   138    32    33   ar
   139    26    28   ar
   140    29    28   ar
   141    29    31   ar
   142    33    31   ar
   143    62    63    2
   144    62    61    1
   145    23    22    2
   146    21    20    1
   147    21    22    1
   148    61    60    1
   149    60    57    1
   150    58    57    1
   151    58    59    2
   152    57    56    1
