@<TRIPOS>MOLECULE
tmp/4wvcB01.pdb
 151 151 0 0 0
SMALL
GASTEIGER

@<TRIPOS>ATOM
      1  N          9.9180   45.2400   24.8280 N.3    26  TYR26      -0.1241
      2  CA        10.9320   45.1230   25.8770 C.3    26  TYR26       0.1605
      3  C         11.0940   46.4880   26.5600 C.2    26  TYR26       0.2264
      4  O         12.0920   47.1780   26.3480 O.2    26  TYR26      -0.2867
      5  CB        12.2870   44.6720   25.2830 C.3    26  TYR26       0.0534
      6  CG        12.3020   43.3130   24.5910 C.ar   26  TYR26      -0.0201
      7  CD1       11.8720   42.1570   25.2500 C.ar   26  TYR26      -0.0009
      8  CD2       12.7680   43.1860   23.2800 C.ar   26  TYR26      -0.0009
      9  CE1       11.8830   40.9200   24.6090 C.ar   26  TYR26       0.0417
     10  CE2       12.7950   41.9660   22.6350 C.ar   26  TYR26       0.0417
     11  CZ        12.3460   40.8410   23.2980 C.ar   26  TYR26       0.1957
     12  OH        12.3740   39.6240   22.6570 O.3    26  TYR26      -0.2866
     13  N         17.5180   45.5110   29.9100 N.3    30  TRP30      -0.1241
     14  CA        18.0890   44.1720   29.8660 C.3    30  TRP30       0.1605
     15  C         19.6340   44.2150   30.0120 C.2    30  TRP30       0.2264
     16  O         20.3050   45.1650   29.5820 O.2    30  TRP30      -0.2867
     17  CB        17.6700   43.4450   28.5870 C.3    30  TRP30       0.0550
     18  CG        16.4630   42.5640   28.7210 C.ar   30  TRP30       0.0003
     19  CD1       16.4550   41.2030   28.7860 C.ar   30  TRP30       0.0946
     20  CD2       15.0930   42.9710   28.7630 C.ar   30  TRP30       0.0152
     21  NE1       15.1610   40.7240   28.8730 N.ar   30  TRP30      -0.2442
     22  CE2       14.3050   41.7940   28.8540 C.ar   30  TRP30       0.0810
     23  CE3       14.4510   44.2080   28.7250 C.ar   30  TRP30       0.0012
     24  CZ2       12.9060   41.8290   28.9200 C.ar   30  TRP30       0.0191
     25  CZ3       13.0670   44.2400   28.7840 C.ar   30  TRP30       0.0001
     26  CH2       12.3090   43.0610   28.8840 C.ar   30  TRP30       0.0015
     27  N         18.7830   40.0460   34.9520 N.3    69  HIS69      -0.1241
     28  CA        18.6320   40.1540   33.4860 C.3    69  HIS69       0.1621
     29  C         17.6820   41.2370   33.0410 C.2    69  HIS69       0.2264
     30  O         17.8530   41.7750   31.9500 O.2    69  HIS69      -0.2867
     31  CB        18.2800   38.8220   32.8360 C.3    69  HIS69       0.0745
     32  CG        16.8140   38.5520   32.6880 C.ar   69  HIS69       0.0817
     33  ND1       15.9320   38.5880   33.7430 N.ar   69  HIS69      -0.2268
     34  CD2       16.0890   38.1760   31.6060 C.ar   69  HIS69       0.1154
     35  CE1       14.7190   38.2780   33.3140 C.ar   69  HIS69       0.1986
     36  NE2       14.7860   38.0220   32.0200 N.ar   69  HIS69      -0.2212
     37  N          4.7520   44.1130   29.0840 N.3    79  TYR79      -0.1227
     38  CA         5.6440   42.9640   29.2090 C.3    79  TYR79       0.1736
     39  C          5.2350   41.9900   30.3020 C.2    79  TYR79       0.2595
     40  O          4.9190   42.3750   31.4070 O.2    79  TYR79      -0.2718
     41  CB         7.0700   43.4100   29.4770 C.3    79  TYR79       0.0548
     42  CG         8.0500   42.2440   29.5300 C.ar   79  TYR79      -0.0200
     43  CD1        8.2930   41.5710   30.7250 C.ar   79  TYR79      -0.0009
     44  CD2        8.7160   41.8050   28.3780 C.ar   79  TYR79      -0.0009
     45  CE1        9.1830   40.5100   30.7810 C.ar   79  TYR79       0.0417
     46  CE2        9.6020   40.7390   28.4190 C.ar   79  TYR79       0.0417
     47  CZ         9.8400   40.1030   29.6290 C.ar   79  TYR79       0.1957
     48  OH        10.7060   39.0330   29.6970 O.3    79  TYR79      -0.2866
     49  N          5.2410   40.7120   29.9480 N.am   80  PHE80      -0.1963
     50  CA         5.0540   39.6420   30.9070 C.3    80  PHE80       0.1756
     51  C          6.1520   38.5840   30.7090 C.2    80  PHE80       0.2461
     52  O          6.4430   38.1790   29.5650 O.2    80  PHE80      -0.2730
     53  CB         3.6770   39.0360   30.7510 C.3    80  PHE80       0.0574
     54  CG         3.4000   37.9160   31.7080 C.ar   80  PHE80      -0.0200
     55  CD1        2.9080   38.1790   32.9800 C.ar   80  PHE80      -0.0042
     56  CD2        3.6180   36.5950   31.3300 C.ar   80  PHE80      -0.0042
     57  CE1        2.6480   37.1430   33.8640 C.ar   80  PHE80      -0.0003
     58  CE2        3.3690   35.5500   32.2060 C.ar   80  PHE80      -0.0003
     59  CZ         2.8830   35.8220   33.4770 C.ar   80  PHE80      -0.0000
     60  N          6.7630   38.1180   31.8210 N.am   81  PRO81      -0.2727
     61  CA         6.4210   38.4460   33.2120 C.3    81  PRO81       0.1402
     62  C          7.1240   39.6880   33.7510 C.2    81  PRO81       0.2269
     63  O          8.3460   39.7630   33.7070 O.2    81  PRO81      -0.2865
     64  CB         6.8230   37.1720   33.9820 C.3    81  PRO81       0.0296
     65  CG         7.5800   36.2970   33.0140 C.3    81  PRO81       0.0237
     66  CD         7.8250   37.0940   31.7630 C.3    81  PRO81       0.0939
     67  N         22.0320   37.2070   33.1410 N.3    92  GLN92      -0.1245
     68  CA        22.2060   37.0560   31.6890 C.3    92  GLN92       0.1566
     69  C         23.6950   36.9920   31.3110 C.2    92  GLN92       0.2260
     70  O         24.5630   37.2060   32.1700 O.2    92  GLN92      -0.2867
     71  CB        21.5230   38.2120   30.9550 C.3    92  GLN92       0.0367
     72  CG        20.3190   37.7900   30.1240 C.3    92  GLN92       0.0905
     73  CD        19.8070   38.9100   29.2410 C.2    92  GLN92       0.2608
     74  OE1       20.2990   40.0400   29.2820 O.2    92  GLN92      -0.2717
     75  NE2       18.7830   38.6000   28.4580 N.am   92  GLN92      -0.0878
     76  N         16.0180   31.7390   29.7830 N.3   149  TRP149     -0.1241
     77  CA        16.2100   33.1960   29.5780 C.3   149  TRP149      0.1605
     78  C         17.5920   33.7520   29.9560 C.2   149  TRP149      0.2264
     79  O         18.0020   34.8280   29.4920 O.2   149  TRP149     -0.2867
     80  CB        15.1430   33.9810   30.3330 C.3   149  TRP149      0.0550
     81  CG        13.7090   33.8040   29.7920 C.ar  149  TRP149      0.0003
     82  CD1       13.3340   33.5500   28.4940 C.ar  149  TRP149      0.0946
     83  CD2       12.4880   33.9300   30.5340 C.ar  149  TRP149      0.0152
     84  NE1       11.9560   33.4890   28.3870 N.ar  149  TRP149     -0.2442
     85  CE2       11.4140   33.7310   29.6230 C.ar  149  TRP149      0.0810
     86  CE3       12.1960   34.1930   31.8810 C.ar  149  TRP149      0.0012
     87  CZ2       10.0840   33.7750   30.0210 C.ar  149  TRP149      0.0191
     88  CZ3       10.8760   34.2450   32.2700 C.ar  149  TRP149      0.0001
     89  CH2        9.8310   34.0340   31.3440 C.ar  149  TRP149      0.0015
     90  N         20.0580   34.1360   27.1190 N.3   152  GLY152     -0.1225
     91  CA        19.7810   35.2230   26.1960 C.3   152  GLY152      0.1811
     92  C         19.1630   34.7080   24.9070 C.2   152  GLY152      0.2280
     93  O         18.7870   35.4770   24.0520 O.2   152  GLY152     -0.2866
     94  N         16.3340   32.3580   24.1720 N.3   154  ASP154     -0.1239
     95  CA        15.2690   31.8020   25.0080 C.3   154  ASP154      0.1674
     96  C         14.6800   30.4760   24.5960 C.2   154  ASP154      0.2266
     97  O         14.4160   29.6300   25.4590 O.2   154  ASP154     -0.2867
     98  CB        14.1340   32.7910   25.0720 C.3   154  ASP154      0.1410
     99  CG        14.5910   34.1780   25.4250 C.2   154  ASP154      0.3668
    100  OD1       15.8090   34.4120   25.5760 O.co2 154  ASP154     -0.2456
    101  OD2       13.7040   35.0350   25.5680 O.co2 154  ASP154     -0.2456
    102  N          3.9780   39.5960   24.8090 N.3   178  ASP178     -0.1239
    103  CA         4.9020   39.6350   23.6500 C.3   178  ASP178      0.1674
    104  C          4.2040   39.4600   22.2630 C.2   178  ASP178      0.2266
    105  O          4.5340   40.1490   21.2960 O.2   178  ASP178     -0.2867
    106  CB         6.0300   38.6130   23.8320 C.3   178  ASP178      0.1410
    107  CG         5.5120   37.1660   23.9900 C.2   178  ASP178      0.3668
    108  OD1        4.7090   36.8860   24.9220 O.co2 178  ASP178     -0.2456
    109  OD2        5.9210   36.3170   23.1590 O.co2 178  ASP178     -0.2456
    110  N          7.6820   33.8560   17.8590 N.3   187  ARG187     -0.1231
    111  CA         7.9590   33.8490   19.3000 C.3   187  ARG187      0.1679
    112  C          7.8990   32.4230   19.8530 C.2   187  ARG187      0.2434
    113  O          7.5240   31.4940   19.1310 O.2   187  ARG187     -0.2733
    114  CB         6.9090   34.6830   19.9990 C.3   187  ARG187      0.0321
    115  CG         6.9310   36.1420   19.6020 C.3   187  ARG187      0.0489
    116  CD         8.1520   36.8290   20.1490 C.3   187  ARG187      0.2205
    117  NE         8.2630   36.6610   21.6000 N.pl3 187  ARG187     -0.0865
    118  CZ         9.2890   37.0900   22.3400 C.cat 187  ARG187      0.5346
    119  NH1       10.3170   37.7160   21.7770 N.pl3 187  ARG187      0.1354
    120  NH2        9.2880   36.8970   23.6620 N.pl3 187  ARG187      0.1354
    121  N          8.2370   32.2350   21.1440 N.am  188  PRO188     -0.2729
    122  CA         8.1090   30.8640   21.6620 C.3   188  PRO188      0.1401
    123  C          6.6430   30.3990   21.7640 C.2   188  PRO188      0.2269
    124  O          5.7370   31.2060   21.9350 O.2   188  PRO188     -0.2865
    125  CB         8.7720   30.9410   23.0420 C.3   188  PRO188      0.0296
    126  CG         9.6340   32.1670   22.9820 C.3   188  PRO188      0.0237
    127  CD         8.9080   33.1280   22.0980 C.3   188  PRO188      0.0939
    128  N          6.3490   28.7750   27.1790 N.3   193  TYR193     -0.1241
    129  CA         6.0820   29.7770   28.2440 C.3   193  TYR193      0.1605
    130  C          5.5010   29.2060   29.5670 C.2   193  TYR193      0.2264
    131  O          5.8380   29.6790   30.6550 O.2   193  TYR193     -0.2867
    132  CB         5.2130   30.9180   27.7380 C.3   193  TYR193      0.0534
    133  CG         5.9740   32.1580   27.3090 C.ar  193  TYR193     -0.0201
    134  CD1        6.7150   32.1740   26.1440 C.ar  193  TYR193     -0.0009
    135  CD2        5.8910   33.3340   28.0410 C.ar  193  TYR193     -0.0009
    136  CE1        7.3750   33.3280   25.7330 C.ar  193  TYR193      0.0417
    137  CE2        6.5460   34.4890   27.6480 C.ar  193  TYR193      0.0417
    138  CZ         7.2850   34.4890   26.4910 C.ar  193  TYR193      0.1957
    139  OH         7.9470   35.6300   26.0880 O.3   193  TYR193     -0.2866
    140  N         12.5260   32.9400   16.3170 N.3   338  TYR338     -0.1241
    141  CA        13.3350   33.4250   17.4390 C.3   338  TYR338      0.1605
    142  C         14.8120   32.9460   17.4570 C.2   338  TYR338      0.2264
    143  O         15.6370   33.4720   16.7180 O.2   338  TYR338     -0.2867
    144  CB        12.5850   33.1210   18.7560 C.3   338  TYR338      0.0534
    145  CG        12.7680   34.0930   19.9020 C.ar  338  TYR338     -0.0201
    146  CD1       13.1740   35.4080   19.6830 C.ar  338  TYR338     -0.0009
    147  CD2       12.4460   33.7140   21.2110 C.ar  338  TYR338     -0.0009
    148  CE1       13.3060   36.2930   20.7260 C.ar  338  TYR338      0.0417
    149  CE2       12.5520   34.6170   22.2590 C.ar  338  TYR338      0.0417
    150  CZ        12.9900   35.8960   21.9950 C.ar  338  TYR338      0.1957
    151  OH        13.1380   36.7800   23.0030 O.3   338  TYR338     -0.2866
@<TRIPOS>BOND
     1   140   141    1
     2   143   142    2
     3   141   142    1
     4   141   144    1
     5   110   111    1
     6   144   145    1
     7   113   112    2
     8   111   112    1
     9   111   114    1
    10   115   114    1
    11   115   116    1
    12   146   145   ar
    13   146   148   ar
    14   112   121   am
    15   145   147   ar
    16   116   117    1
    17   148   150   ar
    18   121   122    1
    19   121   127    1
    20   147   149   ar
    21   105   104    2
    22   117   118    2
    23   122   123    1
    24   122   125    1
    25   123   124    2
    26   119   118    1
    27   150   149   ar
    28   150   151    1
    29   127   126    1
    30   104   103    1
    31   118   120    1
    32    10     8   ar
    33    10    11   ar
    34    12    11    1
    35   126   125    1
    36   109   107   ar
    37     8     6   ar
    38    11     9   ar
    39   103   106    1
    40   103   102    1
    41   106   107    1
    42   107   108   ar
    43    93    92    2
    44    94    95    1
    45     6     7   ar
    46     6     5    1
    47    96    95    1
    48    96    97    2
    49     9     7   ar
    50     1     2    1
    51    92    91    1
    52    95    98    1
    53    98    99    1
    54     5     2    1
    55    99   101   ar
    56    99   100   ar
    57   136   134   ar
    58   136   138   ar
    59     2     3    1
    60   139   138    1
    61   134   133   ar
    62    91    90    1
    63     4     3    2
    64   138   137   ar
    65   128   129    1
    66   133   132    1
    67   133   135   ar
    68   137   135   ar
    69   132   129    1
    70   129   130    1
    71    44    46   ar
    72    44    42   ar
    73    84    82   ar
    74    84    85   ar
    75    46    47   ar
    76    75    73   am
    77    82    81   ar
    78    17    18    1
    79    17    14    1
    80    18    20   ar
    81    18    19   ar
    82    23    20   ar
    83    23    25   ar
    84    20    22   ar
    85    25    26   ar
    86    19    21   ar
    87    22    21   ar
    88    22    24   ar
    89    26    24   ar
    90    37    38    1
    91    38    41    1
    92    38    39    1
    93    73    74    2
    94    73    72    1
    95    41    42    1
    96    79    78    2
    97    42    43   ar
    98    52    51    2
    99   130   131    2
   100    77    76    1
   101    77    78    1
   102    77    80    1
   103    16    15    2
   104    85    87   ar
   105    85    83   ar
   106    47    48    1
   107    47    45   ar
   108    81    80    1
   109    81    83   ar
   110    14    13    1
   111    14    15    1
   112    49    39   am
   113    49    50    1
   114    87    89   ar
   115    72    71    1
   116    39    40    2
   117    83    86   ar
   118    51    50    1
   119    51    60   am
   120    43    45   ar
   121    53    50    1
   122    53    54    1
   123    71    68    1
   124    69    68    1
   125    69    70    2
   126    56    54   ar
   127    56    58   ar
   128    89    88   ar
   129    34    36   ar
   130    34    32   ar
   131    68    67    1
   132    54    55   ar
   133    66    60    1
   134    66    65    1
   135    60    61    1
   136    86    88   ar
   137    30    29    2
   138    36    35   ar
   139    58    59   ar
   140    32    31    1
   141    32    33   ar
   142    31    28    1
   143    55    57   ar
   144    65    64    1
   145    29    28    1
   146    61    62    1
   147    61    64    1
   148    35    33   ar
   149    59    57   ar
   150    28    27    1
   151    63    62    2
