@<TRIPOS>MOLECULE
tmp/4wvhA00.pdb
 127 125 0 0 0
SMALL
GASTEIGER

@<TRIPOS>ATOM
      1  N         -7.1840   14.8500  -12.6690 N.3   369  THR369     -0.1204
      2  CA        -7.3570   15.5110  -13.9540 C.3   369  THR369      0.1979
      3  C         -8.7380   15.1950  -14.5270 C.2   369  THR369      0.2460
      4  O         -9.1440   14.0330  -14.5380 O.2   369  THR369     -0.2732
      5  CB        -6.2940   15.0170  -14.9470 C.3   369  THR369      0.1783
      6  OG1       -5.0000   15.2670  -14.3960 O.3   369  THR369     -0.2211
      7  CG2       -6.4040   15.7300  -16.2930 C.3   369  THR369      0.0376
      8  N         -9.4630   16.2210  -15.0070 N.am  370  PRO370     -0.2717
      9  CA       -10.7510   15.9290  -15.6410 C.3   370  PRO370      0.1535
     10  C        -10.5910   15.2830  -17.0240 C.2   370  PRO370      0.2599
     11  O         -9.6470   15.5890  -17.7570 O.2   370  PRO370     -0.2715
     12  CB       -11.4370   17.3000  -15.7260 C.3   370  PRO370      0.0310
     13  CG       -10.3420   18.3020  -15.5940 C.3   370  PRO370      0.0237
     14  CD        -9.2760   17.6610  -14.7600 C.3   370  PRO370      0.0939
     15  N        -11.4810   14.3520  -17.3460 N.am  371  TYR371     -0.1960
     16  CA       -11.5180   13.7370  -18.6730 C.3   371  TYR371      0.1771
     17  C        -12.9560   13.6600  -19.1510 C.2   371  TYR371      0.2620
     18  O        -13.8800   13.6260  -18.3460 O.2   371  TYR371     -0.2715
     19  CB       -10.9410   12.3260  -18.6220 C.3   371  TYR371      0.0574
     20  CG        -9.4740   12.1860  -18.9690 C.ar  371  TYR371     -0.0198
     21  CD1       -8.4890   12.4310  -18.0300 C.ar  371  TYR371     -0.0009
     22  CD2       -9.0830   11.7510  -20.2240 C.ar  371  TYR371     -0.0009
     23  CE1       -7.1430   12.2770  -18.3390 C.ar  371  TYR371      0.0417
     24  CE2       -7.7470   11.5880  -20.5430 C.ar  371  TYR371      0.0417
     25  CZ        -6.7770   11.8550  -19.6020 C.ar  371  TYR371      0.1957
     26  OH        -5.4430   11.6870  -19.9300 O.3   371  TYR371     -0.2866
     27  N        -13.1390   13.6300  -20.4670 N.am  372  THR372     -0.1937
     28  CA       -14.4410   13.3910  -21.0580 C.3   372  THR372      0.2028
     29  C        -14.4140   12.0420  -21.7790 C.2   372  THR372      0.2642
     30  O        -13.5140   11.7810  -22.5720 O.2   372  THR372     -0.2714
     31  CB       -14.8200   14.5050  -22.0450 C.3   372  THR372      0.1808
     32  OG1      -14.8500   15.7490  -21.3520 O.3   372  THR372     -0.2208
     33  CG2      -16.1800   14.2540  -22.6410 C.3   372  THR372      0.0379
     34  N        -15.4100   11.2000  -21.5060 N.am  373  ILE373     -0.1963
     35  CA       -15.4980    9.8740  -22.1180 C.3   373  ILE373      0.1727
     36  C        -16.0670    9.9920  -23.5160 C.2   373  ILE373      0.2616
     37  O        -17.0400   10.7030  -23.7140 O.2   373  ILE373     -0.2715
     38  CB       -16.4080    8.9250  -21.3170 C.3   373  ILE373      0.0290
     39  CG1      -15.9720    8.8550  -19.8460 C.3   373  ILE373      0.0022
     40  CG2      -16.4340    7.5370  -21.9610 C.3   373  ILE373      0.0023
     41  CD1      -14.4870    8.6870  -19.6330 C.3   373  ILE373      0.0001
     42  N        -15.4500    9.2980  -24.4730 N.am  374  LYS374     -0.1963
     43  CA       -15.9220    9.2360  -25.8620 C.3   374  LYS374      0.1728
     44  C        -16.2370    7.7990  -26.2550 C.2   374  LYS374      0.2616
     45  O        -15.3950    6.9210  -26.1010 O.2   374  LYS374     -0.2715
     46  CB       -14.8480    9.7310  -26.8310 C.3   374  LYS374      0.0311
     47  CG       -14.3530   11.1390  -26.5990 C.3   374  LYS374      0.0038
     48  CD       -15.4930   12.1390  -26.5300 C.3   374  LYS374      0.0206
     49  CE       -15.0700   13.4800  -27.1000 C.3   374  LYS374      0.1093
     50  NZ       -15.7440   14.6130  -26.4120 N.3   374  LYS374     -0.1314
     51  N        -17.4340    7.5710  -26.7910 N.am  375  GLY375     -0.1955
     52  CA       -17.8200    6.2530  -27.2890 C.3   375  GLY375      0.1869
     53  C        -18.6410    5.4680  -26.2870 C.2   375  GLY375      0.2309
     54  O        -18.8160    5.8770  -25.1320 O.2   375  GLY375     -0.2863
     55  N        -18.2520    2.0010  -25.5810 N.3   377  SER377     -0.1202
     56  CA       -17.6640    0.6930  -25.2750 C.3   377  SER377      0.2020
     57  C        -17.4610    0.4160  -23.7760 C.2   377  SER377      0.2618
     58  O        -17.0890   -0.6980  -23.4120 O.2   377  SER377     -0.2717
     59  CB       -16.3630    0.4950  -26.0600 C.3   377  SER377      0.2103
     60  OG       -16.6210    0.0350  -27.3870 O.3   377  SER377     -0.2182
     61  N        -17.7150    1.4150  -22.9250 N.am  378  MET378     -0.1979
     62  CA       -17.8130    1.2200  -21.4710 C.3   378  MET378      0.1605
     63  C        -19.2600    1.3520  -20.9450 C.2   378  MET378      0.2287
     64  O        -19.5080    1.2470  -19.7380 O.2   378  MET378     -0.2864
     65  CB       -16.8800    2.1760  -20.7260 C.3   378  MET378      0.0413
     66  CG       -15.4070    1.7800  -20.8130 C.3   378  MET378      0.0598
     67  SD       -14.9280    0.3140  -19.8570 S.3   378  MET378     -0.1393
     68  CE       -15.4060    0.7600  -18.1860 C.3   378  MET378      0.0692
     69  N        -19.7470    3.7930  -17.9860 N.3   382  LEU382     -0.1245
     70  CA       -19.4390    5.1540  -18.3710 C.3   382  LEU382      0.1561
     71  C        -20.1370    5.3690  -19.6900 C.2   382  LEU382      0.2260
     72  O        -20.2320    4.4340  -20.4990 O.2   382  LEU382     -0.2867
     73  CB       -17.9350    5.3450  -18.5640 C.3   382  LEU382      0.0270
     74  CG       -17.0290    5.2200  -17.3400 C.3   382  LEU382      0.0019
     75  CD1      -15.5640    5.1850  -17.7390 C.3   382  LEU382      0.0001
     76  CD2      -17.2860    6.3720  -16.3870 C.3   382  LEU382      0.0001
     77  N         -7.4730    5.0050  -17.6680 N.3   406  VAL406     -0.1245
     78  CA        -7.1310    5.6950  -18.8820 C.3   406  VAL406      0.1561
     79  C         -5.7030    5.3150  -19.2440 C.2   406  VAL406      0.2260
     80  O         -4.8410    5.2470  -18.3710 O.2   406  VAL406     -0.2867
     81  CB        -7.2240    7.2130  -18.7080 C.3   406  VAL406      0.0252
     82  CG1       -6.7440    7.9090  -19.9750 C.3   406  VAL406      0.0019
     83  CG2       -8.6500    7.6070  -18.3700 C.3   406  VAL406      0.0019
     84  N         -4.1140    9.0660  -29.1880 N.3   413  ASP413     -0.1225
     85  CA        -5.3520    8.5700  -28.5790 C.3   413  ASP413      0.1805
     86  C         -5.1760    7.9700  -27.1900 C.2   413  ASP413      0.2598
     87  O         -4.3670    7.0580  -26.9950 O.2   413  ASP413     -0.2718
     88  CB        -5.9660    7.4970  -29.4760 C.3   413  ASP413      0.1424
     89  CG        -6.5180    8.0570  -30.7640 C.2   413  ASP413      0.3668
     90  OD1       -6.5650    9.2930  -30.9090 O.co2 413  ASP413     -0.2456
     91  OD2       -6.9250    7.2510  -31.6210 O.co2 413  ASP413     -0.2456
     92  N         -5.9600    8.4800  -26.2430 N.am  414  ASP414     -0.1960
     93  CA        -6.1250    7.8650  -24.9330 C.3   414  ASP414      0.1840
     94  C         -7.4050    7.0310  -24.9300 C.2   414  ASP414      0.2622
     95  O         -8.4320    7.4860  -25.4290 O.2   414  ASP414     -0.2715
     96  CB        -6.1980    8.9350  -23.8420 C.3   414  ASP414      0.1450
     97  CG        -4.8400    9.5440  -23.5260 C.2   414  ASP414      0.3671
     98  OD1       -3.8260    9.1060  -24.1050 O.co2 414  ASP414     -0.2456
     99  OD2       -4.7820   10.4560  -22.6810 O.co2 414  ASP414     -0.2456
    100  N         -7.3170    5.8040  -24.4010 N.am  415  TYR415     -0.1960
    101  CA        -8.4730    4.9240  -24.2030 C.3   415  TYR415      0.1771
    102  C         -8.8020    4.7700  -22.7160 C.2   415  TYR415      0.2619
    103  O         -8.0090    5.1400  -21.8550 O.2   415  TYR415     -0.2715
    104  CB        -8.2110    3.5220  -24.7490 C.3   415  TYR415      0.0574
    105  CG        -8.0700    3.3860  -26.2400 C.ar  415  TYR415     -0.0198
    106  CD1       -8.3190    4.4500  -27.1070 C.ar  415  TYR415     -0.0009
    107  CD2       -7.7000    2.1690  -26.7860 C.ar  415  TYR415     -0.0009
    108  CE1       -8.1880    4.2980  -28.4760 C.ar  415  TYR415      0.0417
    109  CE2       -7.5640    2.0000  -28.1480 C.ar  415  TYR415      0.0417
    110  CZ        -7.8120    3.0670  -28.9880 C.ar  415  TYR415      0.1957
    111  OH        -7.6830    2.8850  -30.3420 O.3   415  TYR415     -0.2866
    112  N         -9.9750    4.2100  -22.4340 N.am  416  VAL416     -0.1963
    113  CA       -10.3890    3.8940  -21.0680 C.3   416  VAL416      0.1727
    114  C        -11.0660    2.5210  -21.0550 C.2   416  VAL416      0.2616
    115  O        -11.9850    2.2640  -21.8300 O.2   416  VAL416     -0.2715
    116  CB       -11.2940    4.9960  -20.4540 C.3   416  VAL416      0.0290
    117  CG1      -12.4980    5.2910  -21.3240 C.3   416  VAL416      0.0023
    118  CG2      -11.7400    4.6120  -19.0480 C.3   416  VAL416      0.0023
    119  N        -10.5560    1.6290  -20.2130 N.am  417  LYS417     -0.1977
    120  CA       -11.0490    0.2560  -20.1110 C.3   417  LYS417      0.1596
    121  C        -10.8100   -0.2180  -18.6830 C.2   417  LYS417      0.2287
    122  O        -10.0970    0.4320  -17.9170 O.2   417  LYS417     -0.2864
    123  CB       -10.3020   -0.6900  -21.0740 C.3   417  LYS417      0.0298
    124  CG       -10.2800   -0.3120  -22.5560 C.3   417  LYS417      0.0038
    125  CD       -11.6040   -0.6000  -23.2460 C.3   417  LYS417      0.0206
    126  CE       -11.6080   -0.0270  -24.6500 C.3   417  LYS417      0.1093
    127  NZ       -12.8600   -0.3380  -25.3860 N.3   417  LYS417     -0.1314
@<TRIPOS>BOND
     1    91    89   ar
     2    90    89   ar
     3    89    88    1
     4   111   110    1
     5    88    85    1
     6    84    85    1
     7   110   108   ar
     8   110   109   ar
     9    85    86    1
    10   108   106   ar
    11   109   107   ar
    12    60    59    1
    13    52    51    1
    14    52    53    1
    15    86    87    2
    16    86    92   am
    17   106   105   ar
    18    49    48    1
    19    49    50    1
    20    46    47    1
    21    46    43    1
    22    51    44   am
    23   107   105   ar
    24    47    48    1
    25    53    54    2
    26    44    45    2
    27    44    43    1
    28    92    93    1
    29   105   104    1
    30    59    56    1
    31    43    42    1
    32    55    56    1
    33    95    94    2
    34   127   126    1
    35    56    57    1
    36    93    94    1
    37    93    96    1
    38    94   100   am
    39   104   101    1
    40   126   125    1
    41    42    36   am
    42   100   101    1
    43   101   102    1
    44    98    97   ar
    45    96    97    1
    46    57    58    2
    47    57    61   am
    48    37    36    2
    49    97    99   ar
    50    36    35    1
    51   125   124    1
    52    61    62    1
    53   102   112   am
    54   102   103    2
    55    33    31    1
    56    30    29    2
    57   124   123    1
    58   112   113    1
    59    35    34    1
    60    35    38    1
    61    31    32    1
    62    31    28    1
    63    40    38    1
    64   115   114    2
    65    29    34   am
    66    29    28    1
    67    62    63    1
    68    62    65    1
    69   117   116    1
    70    38    39    1
    71   123   120    1
    72   113   114    1
    73   113   116    1
    74    28    27    1
    75   114   119   am
    76    63    64    2
    77    66    65    1
    78    66    67    1
    79    24    22   ar
    80    24    25   ar
    81    72    71    2
    82    27    17   am
    83   116   118    1
    84    22    20   ar
    85   119   120    1
    86   120   121    1
    87    82    81    1
    88    26    25    1
    89    67    68    1
    90    39    41    1
    91    71    70    1
    92    25    23   ar
    93    79    78    1
    94    79    80    2
    95    17    16    1
    96    17    18    2
    97    20    19    1
    98    20    21   ar
    99    78    81    1
   100    78    77    1
   101    81    83    1
   102   121   122    2
   103    16    19    1
   104    16    15    1
   105    73    70    1
   106    73    74    1
   107    70    69    1
   108    23    21   ar
   109    11    10    2
   110    75    74    1
   111    15    10   am
   112    74    76    1
   113    10     9    1
   114     7     5    1
   115    12     9    1
   116    12    13    1
   117     9     8    1
   118    13    14    1
   119     8    14    1
   120     8     3   am
   121     5     6    1
   122     5     2    1
   123     4     3    2
   124     3     2    1
   125     2     1    1
