@<TRIPOS>MOLECULE
tmp/4wviA00.pdb
 175 172 0 0 0
SMALL
GASTEIGER

@<TRIPOS>ATOM
      1  N          7.3130   29.5220   12.7510 N.3    67  ALA67      -0.1231
      2  CA         6.5330   29.8240   13.9610 C.3    67  ALA67       0.1694
      3  C          6.2100   28.5890   14.8110 C.2    67  ALA67       0.2592
      4  O          6.3470   28.6260   16.0460 O.2    67  ALA67      -0.2718
      5  CB         5.2420   30.5390   13.6120 C.3    67  ALA67       0.0304
      6  N          5.7520   27.5180   14.1550 N.am   68  CYS68      -0.1956
      7  CA         5.5010   26.2200   14.8120 C.3    68  CYS68       0.1843
      8  C          6.7390   25.6600   15.5260 C.2    68  CYS68       0.2626
      9  O          6.6300   24.9800   16.5420 O.2    68  CYS68      -0.2714
     10  CB         5.0180   25.1990   13.7810 C.3    68  CYS68       0.0997
     11  SG         4.6460   23.5590   14.4500 S.3    68  CYS68      -0.0797
     12  N          7.9110   25.9450   14.9800 N.am   69  SER69      -0.1936
     13  CA         9.1660   25.5500   15.6010 C.3    69  SER69       0.2055
     14  C          9.6480   26.5490   16.6640 C.2    69  SER69       0.2643
     15  O         10.7340   26.3850   17.1990 O.2    69  SER69      -0.2714
     16  CB        10.2390   25.3750   14.5280 C.3    69  SER69       0.2130
     17  OG         9.8770   24.3210   13.6460 O.3    69  SER69      -0.2179
     18  N          8.8600   27.5830   16.9480 N.am   70  GLY70      -0.1954
     19  CA         9.1990   28.5530   17.9850 C.3    70  GLY70       0.1869
     20  C         10.3120   29.5220   17.6230 C.2    70  GLY70       0.2309
     21  O         10.9060   30.1510   18.5120 O.2    70  GLY70      -0.2863
     22  N         -0.5670   33.4550   11.6710 N.3    95  TYR95      -0.1227
     23  CA        -0.4900   32.0350   11.9360 C.3    95  TYR95       0.1736
     24  C         -0.9590   31.7670   13.3640 C.2    95  TYR95       0.2595
     25  O         -0.4370   32.3720   14.2980 O.2    95  TYR95      -0.2718
     26  CB         0.9440   31.5530   11.7840 C.3    95  TYR95       0.0548
     27  CG         1.0650   30.0870   12.0540 C.ar   95  TYR95      -0.0200
     28  CD1        0.5800   29.1570   11.1430 C.ar   95  TYR95      -0.0009
     29  CD2        1.6140   29.6240   13.2460 C.ar   95  TYR95      -0.0009
     30  CE1        0.6650   27.8020   11.3920 C.ar   95  TYR95       0.0417
     31  CE2        1.7000   28.2670   13.5090 C.ar   95  TYR95       0.0417
     32  CZ         1.2220   27.3630   12.5810 C.ar   95  TYR95       0.1957
     33  OH         1.3120   26.0190   12.8350 O.3    95  TYR95      -0.2866
     34  N         -1.9260   30.8580   13.5110 N.am   96  ASN96      -0.1974
     35  CA        -2.5850   30.5580   14.7990 C.3    96  ASN96       0.1688
     36  C         -3.0710   31.8130   15.5110 C.2    96  ASN96       0.2292
     37  O         -2.9250   31.9410   16.7160 O.2    96  ASN96      -0.2864
     38  CB        -1.6600   29.7470   15.7240 C.3    96  ASN96       0.1181
     39  CG        -1.5080   28.3030   15.2820 C.2    96  ASN96       0.2629
     40  OD1       -2.2770   27.8030   14.4610 O.2    96  ASN96      -0.2716
     41  ND2       -0.5010   27.6220   15.8270 N.am   96  ASN96      -0.0877
     42  N          2.8500   24.5810    8.3950 N.3   330  PRO330     -0.2116
     43  CA         4.1350   23.8830    8.5200 C.3   330  PRO330      0.1372
     44  C          4.3800   22.8390    7.4370 C.2   330  PRO330      0.2244
     45  O          5.5250   22.5990    7.0520 O.2   330  PRO330     -0.2868
     46  CB         4.0250   23.2230    9.8970 C.3   330  PRO330      0.0268
     47  CG         3.1930   24.1860   10.6740 C.3   330  PRO330      0.0207
     48  CD         2.1710   24.7100    9.6940 C.3   330  PRO330      0.0892
     49  N          7.5920   14.8910   12.4610 N.3   369  THR369     -0.1204
     50  CA         7.7430   15.6590   13.6900 C.3   369  THR369      0.1979
     51  C          9.0590   15.2740   14.3850 C.2   369  THR369      0.2460
     52  O          9.4070   14.0950   14.4290 O.2   369  THR369     -0.2732
     53  CB         6.5170   15.4560   14.6000 C.3   369  THR369      0.1783
     54  OG1        6.4970   16.4700   15.6140 O.3   369  THR369     -0.2211
     55  CG2        6.5310   14.1160   15.2540 C.3   369  THR369      0.0376
     56  N          9.8180   16.2670   14.8910 N.am  370  PRO370     -0.2717
     57  CA        11.0730   15.8940   15.5510 C.3   370  PRO370      0.1535
     58  C         10.8600   15.2730   16.9310 C.2   370  PRO370      0.2599
     59  O          9.8860   15.5980   17.6250 O.2   370  PRO370     -0.2715
     60  CB        11.8390   17.2220   15.6380 C.3   370  PRO370      0.0310
     61  CG        10.7780   18.2860   15.5860 C.3   370  PRO370      0.0237
     62  CD         9.7260   17.7240   14.6700 C.3   370  PRO370      0.0939
     63  N         11.7300   14.3290   17.2850 N.am  371  TYR371     -0.1960
     64  CA        11.8110   13.7940   18.6490 C.3   371  TYR371      0.1771
     65  C         13.2600   13.7510   19.0940 C.2   371  TYR371      0.2620
     66  O         14.1830   13.7740   18.2630 O.2   371  TYR371     -0.2715
     67  CB        11.2560   12.3820   18.7150 C.3   371  TYR371      0.0574
     68  CG         9.8090   12.2670   19.0810 C.ar  371  TYR371     -0.0198
     69  CD1        8.8140   12.4110   18.1220 C.ar  371  TYR371     -0.0009
     70  CD2        9.4300   11.9590   20.3760 C.ar  371  TYR371     -0.0009
     71  CE1        7.4790   12.2700   18.4520 C.ar  371  TYR371      0.0417
     72  CE2        8.0990   11.8140   20.7100 C.ar  371  TYR371      0.0417
     73  CZ         7.1320   11.9720   19.7460 C.ar  371  TYR371      0.1957
     74  OH         5.8120   11.8280   20.0890 O.3   371  TYR371     -0.2866
     75  N         13.4400   13.6720   20.4050 N.am  372  THR372     -0.1937
     76  CA        14.7310   13.4460   21.0210 C.3   372  THR372      0.2028
     77  C         14.6910   12.1040   21.7440 C.2   372  THR372      0.2642
     78  O         13.7370   11.8150   22.4480 O.2   372  THR372     -0.2714
     79  CB        15.0700   14.5450   22.0370 C.3   372  THR372      0.1808
     80  OG1       14.9680   15.8220   21.4010 O.3   372  THR372     -0.2208
     81  CG2       16.4810   14.3680   22.5290 C.3   372  THR372      0.0379
     82  N         15.7260   11.2890   21.5680 N.am  373  ILE373     -0.1963
     83  CA        15.7840    9.9650   22.1950 C.3   373  ILE373      0.1727
     84  C         16.3410   10.0830   23.5960 C.2   373  ILE373      0.2616
     85  O         17.2860   10.8210   23.8160 O.2   373  ILE373     -0.2715
     86  CB        16.6490    8.9930   21.3750 C.3   373  ILE373      0.0290
     87  CG1       16.1190    8.8810   19.9420 C.3   373  ILE373      0.0022
     88  CG2       16.6870    7.6130   22.0320 C.3   373  ILE373      0.0023
     89  CD1       14.6270    8.6350   19.8380 C.3   373  ILE373      0.0001
     90  N         15.7480    9.3730   24.5520 N.am  374  LYS374     -0.1963
     91  CA        16.2930    9.3140   25.9130 C.3   374  LYS374      0.1728
     92  C         16.5810    7.8600   26.2990 C.2   374  LYS374      0.2616
     93  O         15.7240    6.9980   26.1740 O.2   374  LYS374     -0.2715
     94  CB        15.3440    9.9560   26.9380 C.3   374  LYS374      0.0311
     95  CG        15.1150   11.4420   26.6930 C.3   374  LYS374      0.0038
     96  CD        16.3470   12.2360   27.1010 C.3   374  LYS374      0.0206
     97  CE        16.0370   13.7260   26.9630 C.3   374  LYS374      0.1093
     98  NZ        17.2640   14.4880   26.5980 N.3   374  LYS374     -0.1314
     99  N         17.7910    7.5900   26.7670 N.am  375  GLY375     -0.1955
    100  CA        18.1160    6.2720   27.3060 C.3   375  GLY375      0.1869
    101  C         18.8940    5.4240   26.3160 C.2   375  GLY375      0.2309
    102  O         19.0860    5.8270   25.1480 O.2   375  GLY375     -0.2863
    103  N         18.4170    1.9520   25.6330 N.3   377  SER377     -0.1202
    104  CA        17.8410    0.6570   25.2520 C.3   377  SER377      0.2020
    105  C         17.6770    0.4010   23.7510 C.2   377  SER377      0.2618
    106  O         17.3440   -0.7040   23.3690 O.2   377  SER377     -0.2717
    107  CB        16.5560    0.4110   26.0420 C.3   377  SER377      0.2103
    108  OG        16.9080    0.2150   27.4250 O.3   377  SER377     -0.2182
    109  N         17.9630    1.3980   22.9130 N.am  378  MET378     -0.1979
    110  CA        18.0810    1.2060   21.4640 C.3   378  MET378      0.1605
    111  C         19.5210    1.3250   20.9570 C.2   378  MET378      0.2287
    112  O         19.7550    1.2800   19.7530 O.2   378  MET378     -0.2864
    113  CB        17.1840    2.1980   20.7220 C.3   378  MET378      0.0413
    114  CG        15.7040    1.8260   20.7770 C.3   378  MET378      0.0598
    115  SD        15.2050    0.3810   19.7990 S.3   378  MET378     -0.1393
    116  CE        15.7680    0.8510   18.1590 C.3   378  MET378      0.0692
    117  N         20.0210    3.8720   18.0130 N.3   382  LEU382     -0.1245
    118  CA        19.7210    5.2270   18.4610 C.3   382  LEU382      0.1561
    119  C         20.4280    5.4310   19.7760 C.2   382  LEU382      0.2260
    120  O         20.5260    4.4900   20.5830 O.2   382  LEU382     -0.2867
    121  CB        18.2300    5.3980   18.6690 C.3   382  LEU382      0.0270
    122  CG        17.3760    5.2440   17.4110 C.3   382  LEU382      0.0019
    123  CD1       15.9140    5.2420   17.7970 C.3   382  LEU382      0.0001
    124  CD2       17.6910    6.3680   16.4380 C.3   382  LEU382      0.0001
    125  N          7.7880    5.0380   17.5490 N.3   406  VAL406     -0.1245
    126  CA         7.4840    5.7670   18.7630 C.3   406  VAL406      0.1561
    127  C          6.0420    5.4710   19.1330 C.2   406  VAL406      0.2260
    128  O          5.1690    5.4770   18.2700 O.2   406  VAL406     -0.2867
    129  CB         7.6610    7.2780   18.5650 C.3   406  VAL406      0.0252
    130  CG1        7.1680    8.0290   19.7930 C.3   406  VAL406      0.0019
    131  CG2        9.1230    7.5830   18.2990 C.3   406  VAL406      0.0019
    132  N          4.2900    9.2430   29.1070 N.3   413  ASP413     -0.1225
    133  CA         5.5450    8.7790   28.5090 C.3   413  ASP413      0.1805
    134  C          5.3750    8.1850   27.1060 C.2   413  ASP413      0.2598
    135  O          4.5070    7.3440   26.8830 O.2   413  ASP413     -0.2718
    136  CB         6.2050    7.7370   29.4270 C.3   413  ASP413      0.1424
    137  CG         7.1590    8.3560   30.4520 C.2   413  ASP413      0.3668
    138  OD1        7.0950    9.5780   30.6900 O.co2 413  ASP413     -0.2456
    139  OD2        7.9880    7.6090   31.0170 O.co2 413  ASP413     -0.2456
    140  N          6.2200    8.6320   26.1770 N.am  414  ASP414     -0.1960
    141  CA         6.3980    7.9770   24.8800 C.3   414  ASP414      0.1840
    142  C          7.6720    7.1360   24.9090 C.2   414  ASP414      0.2622
    143  O          8.6700    7.5530   25.4790 O.2   414  ASP414     -0.2715
    144  CB         6.5170    9.0150   23.7640 C.3   414  ASP414      0.1450
    145  CG         5.1970    9.6950   23.4440 C.2   414  ASP414      0.3671
    146  OD1        4.1400    9.2540   23.9440 O.co2 414  ASP414     -0.2456
    147  OD2        5.2260   10.6740   22.6650 O.co2 414  ASP414     -0.2456
    148  N          7.6200    5.9540   24.2990 N.am  415  TYR415     -0.1960
    149  CA         8.7570    5.0470   24.1910 C.3   415  TYR415      0.1771
    150  C          9.1060    4.8490   22.7140 C.2   415  TYR415      0.2619
    151  O          8.3050    5.1760   21.8380 O.2   415  TYR415     -0.2715
    152  CB         8.4210    3.6620   24.7540 C.3   415  TYR415      0.0574
    153  CG         8.2780    3.5290   26.2600 C.ar  415  TYR415     -0.0198
    154  CD1        8.5430    4.5850   27.1290 C.ar  415  TYR415     -0.0009
    155  CD2        7.9120    2.3030   26.8180 C.ar  415  TYR415     -0.0009
    156  CE1        8.4110    4.4350   28.5060 C.ar  415  TYR415      0.0417
    157  CE2        7.7750    2.1440   28.1880 C.ar  415  TYR415      0.0417
    158  CZ         8.0320    3.2140   29.0260 C.ar  415  TYR415      0.1957
    159  OH         7.9040    3.0460   30.3850 O.3   415  TYR415     -0.2866
    160  N         10.2840    4.2850   22.4550 N.am  416  VAL416     -0.1963
    161  CA        10.6900    3.9230   21.0920 C.3   416  VAL416      0.1727
    162  C         11.3410    2.5470   21.1040 C.2   416  VAL416      0.2616
    163  O         12.2850    2.2980   21.8660 O.2   416  VAL416     -0.2715
    164  CB        11.6030    4.9890   20.4170 C.3   416  VAL416      0.0290
    165  CG1       12.7970    5.3350   21.2610 C.3   416  VAL416      0.0023
    166  CG2       12.0500    4.5370   19.0270 C.3   416  VAL416      0.0023
    167  N         10.7790    1.6480   20.3060 N.am  417  LYS417     -0.1977
    168  CA        11.2740    0.2870   20.1760 C.3   417  LYS417      0.1596
    169  C         11.0740   -0.1800   18.7380 C.2   417  LYS417      0.2287
    170  O         10.4230    0.4960   17.9390 O.2   417  LYS417     -0.2864
    171  CB        10.5340   -0.6700   21.1200 C.3   417  LYS417      0.0298
    172  CG        10.5270   -0.3080   22.5950 C.3   417  LYS417      0.0038
    173  CD        11.8630   -0.5470   23.2850 C.3   417  LYS417      0.0206
    174  CE        11.8280    0.0810   24.6700 C.3   417  LYS417      0.1093
    175  NZ        12.9890   -0.2700   25.5260 N.3   417  LYS417     -0.1314
@<TRIPOS>BOND
     1    45    44    2
     2    44    43    1
     3    42    43    1
     4    42    48    1
     5    43    46    1
     6    48    47    1
     7    46    47    1
     8    28    30   ar
     9    28    27   ar
    10    30    32   ar
    11    22    23    1
    12    26    23    1
    13    26    27    1
    14    23    24    1
    15    27    29   ar
    16    49    50    1
    17    32    33    1
    18    32    31   ar
    19     1     2    1
    20    29    31   ar
    21    24    34   am
    22    24    25    2
    23    34    35    1
    24     5     2    1
    25    17    16    1
    26    50    51    1
    27    50    53    1
    28    10    11    1
    29    10     7    1
    30     2     3    1
    31     6     3   am
    32     6     7    1
    33    51    52    2
    34    51    56   am
    35    40    39    2
    36    16    13    1
    37    53    55    1
    38    53    54    1
    39    62    56    1
    40    62    61    1
    41    35    36    1
    42    35    38    1
    43     3     4    2
    44     7     8    1
    45    56    57    1
    46    12     8   am
    47    12    13    1
    48    39    38    1
    49    39    41   am
    50    36    37    2
    51     8     9    2
    52    57    60    1
    53    57    58    1
    54    61    60    1
    55    13    14    1
    56   124   122    1
    57    14    18   am
    58    14    15    2
    59    58    63   am
    60    58    59    2
    61    18    19    1
    62    63    64    1
    63   122   123    1
    64   122   121    1
    65   125   126    1
    66    20    19    1
    67    20    21    2
    68   170   169    2
    69   117   118    1
    70    69    71   ar
    71    69    68   ar
    72   116   115    1
    73    66    65    2
    74   128   127    2
    75   131   129    1
    76    71    73   ar
    77   118   121    1
    78   118   119    1
    79   129   126    1
    80   129   130    1
    81    64    67    1
    82    64    65    1
    83    67    68    1
    84   169   168    1
    85   126   127    1
    86   166   164    1
    87    68    70   ar
    88    65    75   am
    89    73    74    1
    90    73    72   ar
    91   112   111    2
    92   119   120    2
    93   115   114    1
    94    89    87    1
    95    87    86    1
    96   168   167    1
    97   168   171    1
    98   167   162   am
    99    70    72   ar
   100    75    76    1
   101   164   161    1
   102   164   165    1
   103   113   114    1
   104   113   110    1
   105   111   110    1
   106    76    77    1
   107    76    79    1
   108   161   162    1
   109   161   160    1
   110   162   163    2
   111   171   172    1
   112    86    88    1
   113    86    83    1
   114    80    79    1
   115   110   109    1
   116    82    77   am
   117    82    83    1
   118    77    78    2
   119   151   150    2
   120    79    81    1
   121    83    84    1
   122   160   150   am
   123   172   173    1
   124   147   145   ar
   125   150   149    1
   126   109   105   am
   127   173   174    1
   128   106   105    2
   129   145   144    1
   130   145   146   ar
   131    84    85    2
   132    84    90   am
   133   105   104    1
   134   144   141    1
   135   149   148    1
   136   149   152    1
   137   148   142   am
   138    90    91    1
   139   174   175    1
   140   152   153    1
   141   141   142    1
   142   141   140    1
   143   142   143    2
   144   102   101    2
   145   104   103    1
   146   104   107    1
   147    91    92    1
   148    91    94    1
   149   107   108    1
   150    93    92    2
   151   140   134   am
   152   153   155   ar
   153   153   154   ar
   154    92    99   am
   155   101   100    1
   156    98    97    1
   157    95    94    1
   158    95    96    1
   159    99   100    1
   160   155   157   ar
   161   135   134    2
   162    97    96    1
   163   134   133    1
   164   154   156   ar
   165   157   158   ar
   166   156   158   ar
   167   133   132    1
   168   133   136    1
   169   158   159    1
   170   136   137    1
   171   137   138   ar
   172   137   139   ar
