@<TRIPOS>MOLECULE
tmp/4wviA01.pdb
 188 184 0 0 0
SMALL
GASTEIGER

@<TRIPOS>ATOM
      1  N         16.9470   36.7010    0.1420 N.3     9  ASN9       -0.1240
      2  CA        17.3760   35.8440   -0.9500 C.3     9  ASN9        0.1653
      3  C         18.2160   36.5780   -1.9940 C.2     9  ASN9        0.2266
      4  O         18.0240   37.7650   -2.2490 O.2     9  ASN9       -0.2867
      5  CB        16.1850   35.1450   -1.6150 C.3     9  ASN9        0.1155
      6  CG        16.5860   33.8340   -2.2670 C.2     9  ASN9        0.2627
      7  OD1       17.3580   33.0590   -1.7030 O.2     9  ASN9       -0.2716
      8  ND2       16.0640   33.5760   -3.4410 N.am    9  ASN9       -0.0877
      9  N         18.2500   36.6540   -5.1080 N.3    11  ASP11      -0.1225
     10  CA        17.5750   37.2090   -6.2850 C.3    11  ASP11       0.1805
     11  C         16.8450   38.5310   -5.9990 C.2    11  ASP11       0.2597
     12  O         16.2950   39.1390   -6.9110 O.2    11  ASP11      -0.2718
     13  CB        16.6360   36.1690   -6.9540 C.3    11  ASP11       0.1424
     14  CG        15.5440   35.6090   -6.0250 C.2    11  ASP11       0.3668
     15  OD1       15.3320   36.0870   -4.8830 O.co2  11  ASP11      -0.2456
     16  OD2       14.8740   34.6340   -6.4550 O.co2  11  ASP11      -0.2456
     17  N         16.8720   38.9860   -4.7460 N.am   12  LYS12      -0.1979
     18  CA        16.1630   40.2000   -4.3310 C.3    12  LYS12       0.1596
     19  C         17.1240   41.4000   -4.2430 C.2    12  LYS12       0.2287
     20  O         18.3380   41.2600   -4.4090 O.2    12  LYS12      -0.2864
     21  CB        15.4750   39.9600   -2.9930 C.3    12  LYS12       0.0298
     22  CG        14.5100   38.7640   -2.9590 C.3    12  LYS12       0.0038
     23  CD        13.5300   38.8060   -4.1170 C.3    12  LYS12       0.0206
     24  CE        12.2350   38.0610   -3.8360 C.3    12  LYS12       0.1093
     25  NZ        12.3720   36.5970   -3.9000 N.3    12  LYS12      -0.1314
     26  N         16.5530   29.6830    3.4110 N.3    41  GLU41      -0.1245
     27  CA        15.2710   29.2430    3.9520 C.3    41  GLU41       0.1567
     28  C         15.3820   27.8850    4.6240 C.2    41  GLU41       0.2260
     29  O         14.5720   27.5690    5.4920 O.2    41  GLU41      -0.2867
     30  CB        14.1560   29.2370    2.8780 C.3    41  GLU41       0.0388
     31  CG        14.1130   28.0380    1.9330 C.3    41  GLU41       0.1160
     32  CD        15.1940   28.0570    0.8650 C.2    41  GLU41       0.3649
     33  OE1       16.1240   28.8950    0.9310 O.co2  41  GLU41      -0.2457
     34  OE2       15.0980   27.2420   -0.0740 O.co2  41  GLU41      -0.2457
     35  N         11.5980   36.1110    3.5110 N.3    58  TRP58      -0.1227
     36  CA        11.2300   35.0480    2.5770 C.3    58  TRP58       0.1737
     37  C          9.7460   35.2220    2.2380 C.2    58  TRP58       0.2595
     38  O          9.0300   36.0090    2.8760 O.2    58  TRP58      -0.2718
     39  CB        11.4880   33.6550    3.1800 C.3    58  TRP58       0.0564
     40  CG        11.5300   32.5720    2.1390 C.ar   58  TRP58       0.0003
     41  CD1       10.5230   31.7160    1.8060 C.ar   58  TRP58       0.0946
     42  CD2       12.6140   32.2750    1.2520 C.ar   58  TRP58       0.0152
     43  NE1       10.9150   30.8900    0.7760 N.ar   58  TRP58      -0.2442
     44  CE2       12.2000   31.2060    0.4260 C.ar   58  TRP58       0.0810
     45  CE3       13.8990   32.7860    1.0920 C.ar   58  TRP58       0.0012
     46  CZ2       13.0180   30.6620   -0.5510 C.ar   58  TRP58       0.0191
     47  CZ3       14.7180   32.2310    0.1140 C.ar   58  TRP58       0.0001
     48  CH2       14.2770   31.1890   -0.6910 C.ar   58  TRP58       0.0015
     49  N          9.2790   34.5200    1.2110 N.am   59  ALA59      -0.1980
     50  CA         7.8730   34.4690    0.9590 C.3    59  ALA59       0.1597
     51  C          7.1850   33.8950    2.1910 C.2    59  ALA59       0.2287
     52  O          7.7660   33.0880    2.9250 O.2    59  ALA59      -0.2864
     53  CB         7.5870   33.6260   -0.2790 C.3    59  ALA59       0.0319
     54  N          5.0930   31.6510    2.8040 N.3    61  ASP61      -0.1225
     55  CA         4.7630   30.2380    2.9290 C.3    61  ASP61       0.1805
     56  C          5.6450   29.4960    3.9470 C.2    61  ASP61       0.2597
     57  O          5.1790   28.5410    4.5580 O.2    61  ASP61      -0.2718
     58  CB         4.7870   29.5100    1.5680 C.3    61  ASP61       0.1424
     59  CG         6.1790   29.4130    0.9630 C.2    61  ASP61       0.3668
     60  OD1        6.8010   30.4720    0.7440 O.co2  61  ASP61      -0.2456
     61  OD2        6.6300   28.2780    0.6730 O.co2  61  ASP61      -0.2456
     62  N          6.8950   29.9280    4.1260 N.am   62  ARG62      -0.1979
     63  CA         7.8260   29.2220    5.0310 C.3    62  ARG62       0.1597
     64  C          7.6460   29.5720    6.5070 C.2    62  ARG62       0.2287
     65  O          8.1990   28.8810    7.3710 O.2    62  ARG62      -0.2864
     66  CB         9.2790   29.5040    4.6500 C.3    62  ARG62       0.0334
     67  CG         9.7060   28.8960    3.3270 C.3    62  ARG62       0.0492
     68  CD        10.3450   27.5450    3.4850 C.3    62  ARG62       0.2205
     69  NE        10.4340   26.8700    2.1900 N.pl3  62  ARG62      -0.0865
     70  CZ        10.9400   25.6580    2.0220 C.cat  62  ARG62       0.5346
     71  NH1       10.9530   25.1210    0.8150 N.pl3  62  ARG62       0.1354
     72  NH2       11.4350   24.9830    3.0600 N.pl3  62  ARG62       0.1354
     73  N          4.2310   38.8080   -4.8900 N.3   107  GLU107     -0.1245
     74  CA         4.9960   38.2660   -5.9990 C.3   107  GLU107      0.1567
     75  C          4.1610   37.2150   -6.7480 C.2   107  GLU107      0.2260
     76  O          3.7040   36.2300   -6.1560 O.2   107  GLU107     -0.2867
     77  CB         6.2300   37.5330   -5.4600 C.3   107  GLU107      0.0388
     78  CG         7.0610   38.2960   -4.4510 C.3   107  GLU107      0.1160
     79  CD         8.2600   37.4950   -3.9370 C.2   107  GLU107      0.3649
     80  OE1        8.2240   36.2570   -3.9320 O.co2 107  GLU107     -0.2457
     81  OE2        9.2580   38.1050   -3.5220 O.co2 107  GLU107     -0.2457
     82  N         13.2670   28.1440  -15.2000 N.3   146  ASN146     -0.1240
     83  CA        13.8480   27.2950  -14.1880 C.3   146  ASN146      0.1653
     84  C         13.0220   26.0330  -13.9520 C.2   146  ASN146      0.2266
     85  O         11.9840   26.0900  -13.3250 O.2   146  ASN146     -0.2867
     86  CB        13.9890   28.0560  -12.8670 C.3   146  ASN146      0.1155
     87  CG        14.7550   27.2730  -11.8040 C.2   146  ASN146      0.2627
     88  OD1       15.2690   26.1850  -12.0530 O.2   146  ASN146     -0.2716
     89  ND2       14.8150   27.8290  -10.6010 N.am  146  ASN146     -0.0877
     90  N         13.0370   24.2180   -9.8190 N.3   149  GLU149     -0.1231
     91  CA        12.2690   24.6600   -8.6690 C.3   149  GLU149      0.1684
     92  C         10.7910   24.6030   -9.0390 C.2   149  GLU149      0.2434
     93  O         10.3720   25.2120  -10.0220 O.2   149  GLU149     -0.2733
     94  CB        12.6750   26.0770   -8.2550 C.3   149  GLU149      0.0402
     95  CG        13.9760   26.1380   -7.4670 C.3   149  GLU149      0.1161
     96  CD        13.8760   25.4880   -6.1030 C.2   149  GLU149      0.3649
     97  OE1       12.7550   25.3610   -5.5570 O.co2 149  GLU149     -0.2457
     98  OE2       14.9240   25.0830   -5.5580 O.co2 149  GLU149     -0.2457
     99  N         10.0000   23.8740   -8.2540 N.am  150  PRO150     -0.2718
    100  CA         8.6150   23.6480   -8.6460 C.3   150  PRO150      0.1535
    101  C          7.7540   24.9020   -8.6560 C.2   150  PRO150      0.2599
    102  O          6.7030   24.9130   -9.2890 O.2   150  PRO150     -0.2715
    103  CB         8.1180   22.6480   -7.6180 C.3   150  PRO150      0.0310
    104  CG         9.0410   22.7750   -6.4640 C.3   150  PRO150      0.0237
    105  CD        10.3560   23.1710   -7.0140 C.3   150  PRO150      0.0939
    106  N          8.1960   25.9570   -7.9740 N.am  151  TYR151     -0.1960
    107  CA         7.5250   27.2470   -8.0370 C.3   151  TYR151      0.1771
    108  C          7.2180   27.6370   -9.4710 C.2   151  TYR151      0.2619
    109  O          6.1560   28.1770   -9.7380 O.2   151  TYR151     -0.2715
    110  CB         8.4140   28.3140   -7.3980 C.3   151  TYR151      0.0574
    111  CG         7.8460   29.7150   -7.3110 C.ar  151  TYR151     -0.0198
    112  CD1        6.8240   30.0270   -6.4350 C.ar  151  TYR151     -0.0009
    113  CD2        8.3980   30.7380   -8.0510 C.ar  151  TYR151     -0.0009
    114  CE1        6.3300   31.3210   -6.3400 C.ar  151  TYR151      0.0417
    115  CE2        7.9230   32.0290   -7.9600 C.ar  151  TYR151      0.0417
    116  CZ         6.8870   32.3130   -7.1080 C.ar  151  TYR151      0.1957
    117  OH         6.4240   33.6120   -7.0490 O.3   151  TYR151     -0.2866
    118  N          8.1530   27.3590  -10.3870 N.am  152  PHE152     -0.1974
    119  CA         8.0610   27.8590  -11.7560 C.3   152  PHE152      0.1639
    120  C          7.2040   26.9570  -12.6440 C.2   152  PHE152      0.2290
    121  O          6.6420   27.4280  -13.6330 O.2   152  PHE152     -0.2864
    122  CB         9.4610   27.9750  -12.3730 C.3   152  PHE152      0.0560
    123  CG        10.3100   29.0150  -11.7280 C.ar  152  PHE152     -0.0200
    124  CD1       11.0110   28.7340  -10.5560 C.ar  152  PHE152     -0.0042
    125  CD2       10.3690   30.2880  -12.2500 C.ar  152  PHE152     -0.0042
    126  CE1       11.7850   29.7080   -9.9500 C.ar  152  PHE152     -0.0003
    127  CE2       11.1430   31.2570  -11.6370 C.ar  152  PHE152     -0.0003
    128  CZ        11.8450   30.9650  -10.4910 C.ar  152  PHE152     -0.0000
    129  N         17.7900   28.3030  -12.9920 N.3   206  TYR206     -0.1241
    130  CA        17.5020   29.7390  -12.9610 C.3   206  TYR206      0.1605
    131  C         18.4940   30.5210  -13.8190 C.2   206  TYR206      0.2264
    132  O         18.0960   31.3100  -14.6780 O.2   206  TYR206     -0.2867
    133  CB        17.4940   30.2800  -11.5210 C.3   206  TYR206      0.0534
    134  CG        16.9410   31.6810  -11.4290 C.ar  206  TYR206     -0.0201
    135  CD1       17.7700   32.8000  -11.5700 C.ar  206  TYR206     -0.0009
    136  CD2       15.5750   31.9000  -11.2400 C.ar  206  TYR206     -0.0009
    137  CE1       17.2530   34.0870  -11.5140 C.ar  206  TYR206      0.0417
    138  CE2       15.0530   33.1780  -11.1680 C.ar  206  TYR206      0.0417
    139  CZ        15.8770   34.2670  -11.3110 C.ar  206  TYR206      0.1957
    140  OH        15.3320   35.5460  -11.2520 O.3   206  TYR206     -0.2866
    141  N         11.4330   40.6080   -9.6660 N.3   226  TRP226     -0.1241
    142  CA        12.8460   40.7680   -9.2970 C.3   226  TRP226      0.1605
    143  C         13.7780   40.5890  -10.4980 C.2   226  TRP226      0.2264
    144  O         14.9040   41.1200  -10.5080 O.2   226  TRP226     -0.2867
    145  CB        13.2150   39.7770   -8.1840 C.3   226  TRP226      0.0550
    146  CG        12.9230   38.3660   -8.5710 C.ar  226  TRP226      0.0003
    147  CD1       13.6850   37.5540   -9.3530 C.ar  226  TRP226      0.0946
    148  CD2       11.7530   37.6260   -8.2420 C.ar  226  TRP226      0.0152
    149  NE1       13.0640   36.3420   -9.5180 N.ar  226  TRP226     -0.2442
    150  CE2       11.8760   36.3610   -8.8410 C.ar  226  TRP226      0.0810
    151  CE3       10.6130   37.9070   -7.4880 C.ar  226  TRP226      0.0012
    152  CZ2       10.9010   35.3730   -8.7120 C.ar  226  TRP226      0.0191
    153  CZ3        9.6480   36.9290   -7.3550 C.ar  226  TRP226      0.0001
    154  CH2        9.8010   35.6690   -7.9690 C.ar  226  TRP226      0.0015
    155  N          3.1810   34.5000   -3.6610 N.3   256  GLY256     -0.1225
    156  CA         3.9240   34.7210   -2.4590 C.3   256  GLY256      0.1811
    157  C          3.8400   36.1610   -1.9920 C.2   256  GLY256      0.2280
    158  O          3.7120   37.0900   -2.7810 O.2   256  GLY256     -0.2866
    159  N          6.3490   38.3570   -0.0140 N.3   258  LEU258     -0.1245
    160  CA         7.6620   38.5530    0.5760 C.3   258  LEU258      0.1561
    161  C          7.4090   39.1750    1.9420 C.2   258  LEU258      0.2260
    162  O          6.7080   40.1710    2.0360 O.2   258  LEU258     -0.2867
    163  CB         8.5130   39.4870   -0.2660 C.3   258  LEU258      0.0270
    164  CG         9.8990   39.7770    0.3110 C.3   258  LEU258      0.0019
    165  CD1       10.7350   38.5100    0.3770 C.3   258  LEU258      0.0001
    166  CD2       10.6010   40.8420   -0.5120 C.3   258  LEU258      0.0001
    167  N         -0.2390   31.1930   -1.3680 N.3   326  MET326     -0.1245
    168  CA         0.3170   29.9770   -0.8100 C.3   326  MET326      0.1570
    169  C         -0.1860   29.7780    0.6010 C.2   326  MET326      0.2261
    170  O         -0.3450   30.7490    1.3360 O.2   326  MET326     -0.2867
    171  CB         1.8240   30.0450   -0.7680 C.3   326  MET326      0.0387
    172  CG         2.4330   29.9020   -2.1470 C.3   326  MET326      0.0595
    173  SD         4.2260   29.8450   -2.0520 S.3   326  MET326     -0.1393
    174  CE         4.6570   31.5240   -1.8350 C.3   326  MET326      0.0692
    175  N          6.5760   21.1890   -0.9880 N.3   336  TRP336     -0.1241
    176  CA         7.4940   21.7000   -2.0010 C.3   336  TRP336      0.1605
    177  C          8.5820   20.6840   -2.3350 C.2   336  TRP336      0.2264
    178  O          8.9140   20.4810   -3.4870 O.2   336  TRP336     -0.2867
    179  CB         8.1320   23.0180   -1.5600 C.3   336  TRP336      0.0550
    180  CG         7.2480   24.2190   -1.7020 C.ar  336  TRP336      0.0003
    181  CD1        6.9270   25.1020   -0.7260 C.ar  336  TRP336      0.0946
    182  CD2        6.6210   24.6960   -2.9000 C.ar  336  TRP336      0.0152
    183  NE1        6.1280   26.1010   -1.2330 N.ar  336  TRP336     -0.2442
    184  CE2        5.9350   25.8820   -2.5690 C.ar  336  TRP336      0.0810
    185  CE3        6.5850   24.2460   -4.2220 C.ar  336  TRP336      0.0012
    186  CZ2        5.2210   26.6230   -3.5140 C.ar  336  TRP336      0.0191
    187  CZ3        5.8800   24.9690   -5.1510 C.ar  336  TRP336      0.0001
    188  CH2        5.1960   26.1500   -4.7940 C.ar  336  TRP336      0.0015
@<TRIPOS>BOND
     1    82    83    1
     2   132   131    2
     3    83    84    1
     4    83    86    1
     5    84    85    2
     6   131   130    1
     7   121   120    2
     8   129   130    1
     9   130   133    1
    10    86    87    1
    11   120   119    1
    12   122   119    1
    13   122   123    1
    14   125   123   ar
    15   125   127   ar
    16    88    87    2
    17    87    89   am
    18   119   118    1
    19   123   124   ar
    20   127   128   ar
    21   135   137   ar
    22   135   134   ar
    23   133   134    1
    24   137   139   ar
    25   134   136   ar
    26   139   140    1
    27   139   138   ar
    28   136   138   ar
    29   124   126   ar
    30   144   143    2
    31   143   142    1
    32   128   126   ar
    33   118   108   am
    34    93    92    2
    35    90    91    1
    36   109   108    2
    37   141   142    1
    38   149   147   ar
    39   149   150   ar
    40   108   107    1
    41   147   146   ar
    42   142   145    1
    43   102   101    2
    44    92    91    1
    45    92    99   am
    46   150   152   ar
    47   150   148   ar
    48   152   154   ar
    49    91    94    1
    50   101   100    1
    51   101   106   am
    52   100    99    1
    53   100   103    1
    54   146   148   ar
    55   146   145    1
    56    94    95    1
    57    99   105    1
    58   148   151   ar
    59   113   115   ar
    60   113   111   ar
    61   107   106    1
    62   107   110    1
    63   154   153   ar
    64   115   116   ar
    65   103   104    1
    66   151   153   ar
    67    95    96    1
    68   110   111    1
    69   111   112   ar
    70   116   117    1
    71   116   114   ar
    72   105   104    1
    73    13    10    1
    74    13    14    1
    75    12    11    2
    76    75    76    2
    77    75    74    1
    78    16    14   ar
    79   112   114   ar
    80    10    11    1
    81    10     9    1
    82    96    98   ar
    83    96    97   ar
    84    14    15   ar
    85    74    77    1
    86    74    73    1
    87    11    17   am
    88    77    78    1
    89   187   188   ar
    90   187   185   ar
    91   188   186   ar
    92    17    18    1
    93    78    79    1
    94    20    19    2
    95    18    19    1
    96    18    21    1
    97   185   182   ar
    98    23    24    1
    99    23    22    1
   100    79    80   ar
   101    79    81   ar
   102    25    24    1
   103   155   156    1
   104   186   184   ar
   105   178   177    2
   106     8     6   am
   107    21    22    1
   108   182   184   ar
   109   182   180   ar
   110   158   157    2
   111   184   183   ar
   112   156   157    1
   113   177   176    1
   114     6     7    2
   115     6     5    1
   116     4     3    2
   117   172   173    1
   118   172   171    1
   119   173   174    1
   120   176   179    1
   121   176   175    1
   122     3     2    1
   123   180   179    1
   124   180   181   ar
   125     5     2    1
   126   167   168    1
   127   183   181   ar
   128     2     1    1
   129   168   171    1
   130   168   169    1
   131    48    46   ar
   132    48    47   ar
   133    46    44   ar
   134   166   164    1
   135    53    50    1
   136   163   164    1
   137   163   160    1
   138    34    32   ar
   139   159   160    1
   140    47    45   ar
   141   164   165    1
   142    44    43   ar
   143    44    42   ar
   144   160   161    1
   145   169   170    2
   146    61    59   ar
   147    60    59   ar
   148    43    41   ar
   149    71    70    1
   150    32    33   ar
   151    32    31    1
   152    50    49    1
   153    50    51    1
   154    59    58    1
   155    45    42   ar
   156    49    37   am
   157    42    40   ar
   158    58    55    1
   159    41    40   ar
   160    31    30    1
   161   161   162    2
   162    70    69    2
   163    70    72    1
   164    40    39    1
   165    69    68    1
   166    51    52    2
   167    37    36    1
   168    37    38    2
   169    36    39    1
   170    36    35    1
   171    54    55    1
   172    30    27    1
   173    55    56    1
   174    67    68    1
   175    67    66    1
   176    26    27    1
   177    56    62   am
   178    56    57    2
   179    27    28    1
   180    62    63    1
   181    28    29    2
   182    66    63    1
   183    63    64    1
   184    64    65    2
