@<TRIPOS>MOLECULE
tmp/4wvoA00.pdb
 198 188 0 0 0
SMALL
GASTEIGER

@<TRIPOS>ATOM
      1  N         10.1920   18.5670  208.8470 N.3    57  ARG57      -0.1231
      2  CA         8.8610   18.7430  208.3300 C.3    57  ARG57       0.1694
      3  C          8.8340   18.3200  206.9010 C.2    57  ARG57       0.2592
      4  O          9.8230   18.3590  206.2520 O.2    57  ARG57      -0.2718
      5  CB         8.4090   20.1860  208.4790 C.3    57  ARG57       0.0321
      6  CG         7.9760   20.5180  209.8820 C.3    57  ARG57       0.0489
      7  CD         7.6240   21.9530  210.0790 C.3    57  ARG57       0.2205
      8  NE         6.2000   22.1350  210.0550 N.pl3  57  ARG57      -0.0865
      9  CZ         5.3770   21.7080  210.9920 C.cat  57  ARG57       0.5346
     10  NH1        4.1020   21.9190  210.8670 N.pl3  57  ARG57       0.1354
     11  NH2        5.8280   21.0770  212.0340 N.pl3  57  ARG57       0.1354
     12  N          7.6720   17.9160  206.4360 N.am   58  HIS58      -0.1962
     13  CA         7.5010   17.4010  205.1050 C.3    58  HIS58       0.1787
     14  C          7.1270   18.4480  204.1100 C.2    58  HIS58       0.2620
     15  O          6.8780   19.5610  204.4580 O.2    58  HIS58      -0.2715
     16  CB         6.4310   16.3400  205.1110 C.3    58  HIS58       0.0785
     17  CG         6.9040   15.0200  205.6050 C.ar   58  HIS58       0.0821
     18  ND1        6.3220   14.3750  206.6610 N.ar   58  HIS58      -0.2267
     19  CD2        7.8960   14.2210  205.1760 C.ar   58  HIS58       0.1154
     20  CE1        6.9380   13.2360  206.8640 C.ar   58  HIS58       0.1986
     21  NE2        7.8950   13.1200  205.9730 N.ar   58  HIS58      -0.2212
     22  N          7.0910   18.0520  202.8610 N.am   59  PHE59      -0.1960
     23  CA         6.5710   18.8390  201.7770 C.3    59  PHE59       0.1771
     24  C          7.3580   20.0780  201.4050 C.2    59  PHE59       0.2619
     25  O          6.8930   20.8690  200.6540 O.2    59  PHE59      -0.2715
     26  CB         5.1210   19.2050  202.0150 C.3    59  PHE59       0.0574
     27  CG         4.2790   18.0890  202.4890 C.ar   59  PHE59      -0.0200
     28  CD1        4.0500   17.0020  201.7040 C.ar   59  PHE59      -0.0042
     29  CD2        3.6820   18.1460  203.7210 C.ar   59  PHE59      -0.0042
     30  CE1        3.2710   15.9870  202.1470 C.ar   59  PHE59      -0.0003
     31  CE2        2.8980   17.1280  204.1700 C.ar   59  PHE59      -0.0003
     32  CZ         2.6950   16.0470  203.3750 C.ar   59  PHE59      -0.0000
     33  N          8.5560   20.2250  201.9110 N.am   60  ILE60      -0.1977
     34  CA         9.3500   21.3780  201.5820 C.3    60  ILE60       0.1596
     35  C         10.4310   21.0670  200.5630 C.2    60  ILE60       0.2287
     36  O         11.3060   20.2790  200.8000 O.2    60  ILE60      -0.2864
     37  CB        10.0030   21.9830  202.8140 C.3    60  ILE60       0.0276
     38  CG1        8.9600   22.3790  203.8220 C.3    60  ILE60       0.0022
     39  CG2       10.8110   23.1900  202.4450 C.3    60  ILE60       0.0022
     40  CD1        9.4650   22.3920  205.2300 C.3    60  ILE60       0.0001
     41  N         10.1100   33.1810  206.4170 N.3    73  ARG73      -0.1245
     42  CA        10.7230   32.2330  205.5370 C.3    73  ARG73       0.1563
     43  C          9.9210   32.0730  204.2760 C.2    73  ARG73       0.2260
     44  O          8.7260   32.1250  204.2960 O.2    73  ARG73      -0.2867
     45  CB        10.9710   30.8990  206.2220 C.3    73  ARG73       0.0307
     46  CG         9.7770   30.2230  206.8030 C.3    73  ARG73       0.0489
     47  CD        10.1880   29.0310  207.6320 C.3    73  ARG73       0.2205
     48  NE         9.0370   28.2730  208.0440 N.pl3  73  ARG73      -0.0865
     49  CZ         8.9740   27.5100  209.1120 C.cat  73  ARG73       0.5346
     50  NH1       10.0000   27.3740  209.9060 N.pl3  73  ARG73       0.1354
     51  NH2        7.8650   26.8840  209.3700 N.pl3  73  ARG73       0.1354
     52  N          9.0620   29.5290  201.3490 N.3    75  ILE75      -0.1245
     53  CA         9.0840   28.1440  200.9920 C.3    75  ILE75       0.1561
     54  C          8.4640   27.8980  199.6330 C.2    75  ILE75       0.2260
     55  O          7.5250   28.5120  199.2560 O.2    75  ILE75      -0.2867
     56  CB         8.4070   27.3130  202.0890 C.3    75  ILE75       0.0252
     57  CG1        9.3340   27.2110  203.2620 C.3    75  ILE75       0.0019
     58  CG2        8.0440   25.9180  201.6330 C.3    75  ILE75       0.0019
     59  CD1        8.6440   27.2120  204.5870 C.3    75  ILE75       0.0001
     60  N          6.9180   24.4850  197.9900 N.3    77  VAL77      -0.1245
     61  CA         6.5180   23.1580  198.3400 C.3    77  VAL77       0.1561
     62  C          6.7370   22.2080  197.1940 C.2    77  VAL77       0.2260
     63  O          6.8070   22.6110  196.0810 O.2    77  VAL77      -0.2867
     64  CB         5.0700   23.1140  198.8570 C.3    77  VAL77       0.0252
     65  CG1        4.7670   24.3110  199.6930 C.3    77  VAL77       0.0019
     66  CG2        4.0670   23.0210  197.7610 C.3    77  VAL77       0.0019
     67  N          0.6860   19.0880  195.2510 N.3    81  LEU81      -0.1231
     68  CA        -0.0580   19.6090  196.4100 C.3    81  LEU81       0.1678
     69  C         -0.9920   20.7830  196.0500 C.2    81  LEU81       0.2434
     70  O         -0.8020   21.4480  195.0260 O.2    81  LEU81      -0.2733
     71  CB         0.9150   20.0590  197.5090 C.3    81  LEU81       0.0284
     72  CG         1.8270   19.0710  198.2500 C.3    81  LEU81       0.0019
     73  CD1        2.6120   19.7880  199.3750 C.3    81  LEU81       0.0001
     74  CD2        1.0530   17.9160  198.8160 C.3    81  LEU81       0.0001
     75  N         -1.9990   21.0490  196.9100 N.am   82  PRO82      -0.2718
     76  CA        -2.8510   22.2290  196.7590 C.3    82  PRO82       0.1535
     77  C         -2.1600   23.5220  197.2160 C.2    82  PRO82       0.2598
     78  O         -2.8060   24.3850  197.8110 O.2    82  PRO82      -0.2715
     79  CB        -4.0500   21.9050  197.6600 C.3    82  PRO82       0.0310
     80  CG        -3.4900   21.0620  198.7210 C.3    82  PRO82       0.0237
     81  CD        -2.4490   20.2060  198.0350 C.3    82  PRO82       0.0939
     82  N         -0.8680   23.6450  196.9280 N.am   83  ALA83      -0.1978
     83  CA        -0.0880   24.8200  197.2850 C.3    83  ALA83       0.1597
     84  C          1.1790   24.8470  196.4450 C.2    83  ALA83       0.2287
     85  O          1.6860   23.7900  196.0650 O.2    83  ALA83      -0.2864
     86  CB         0.2510   24.8130  198.7640 C.3    83  ALA83       0.0319
     87  N          3.6260   27.8150  197.0410 N.3    85  THR85      -0.1203
     88  CA         4.5470   28.5580  197.8880 C.3    85  THR85       0.1994
     89  C          3.9450   28.7490  199.2690 C.2    85  THR85       0.2618
     90  O          2.7250   28.6760  199.4410 O.2    85  THR85      -0.2717
     91  CB         4.8780   29.9440  197.3020 C.3    85  THR85       0.1784
     92  OG1        3.6610   30.6540  197.0630 O.3    85  THR85      -0.2211
     93  CG2        5.6230   29.8060  195.9840 C.3    85  THR85       0.0376
     94  N          4.7950   29.0030  200.2520 N.am   86  SER86      -0.1951
     95  CA         4.2970   29.3560  201.5730 C.3    86  SER86       0.1924
     96  C          5.2230   30.4210  202.1920 C.2    86  SER86       0.2314
     97  O          6.4560   30.2780  202.1970 O.2    86  SER86      -0.2863
     98  CB         4.1810   28.1020  202.4560 C.3    86  SER86       0.2116
     99  OG         3.4830   28.3650  203.6590 O.3    86  SER86      -0.2180
    100  N          5.9780   32.2310  205.6160 N.3    88  GLU88      -0.1245
    101  CA         5.7100   31.9440  207.0120 C.3    88  GLU88       0.1567
    102  C          6.5420   32.8520  207.9060 C.2    88  GLU88       0.2260
    103  O          7.6350   33.2440  207.5220 O.2    88  GLU88      -0.2867
    104  CB         5.9850   30.4600  207.2780 C.3    88  GLU88       0.0388
    105  CG         5.1860   29.5850  206.3160 C.3    88  GLU88       0.1160
    106  CD         5.3720   28.0960  206.5230 C.2    88  GLU88       0.3649
    107  OE1        6.2290   27.7070  207.3530 O.co2  88  GLU88      -0.2457
    108  OE2        4.6480   27.3220  205.8480 O.co2  88  GLU88      -0.2457
    109  N          4.8660   29.4390  214.6480 N.3   102  ALA102     -0.1231
    110  CA         4.8840   30.1550  213.3840 C.3   102  ALA102      0.1694
    111  C          3.4780   30.3580  212.8360 C.2   102  ALA102      0.2593
    112  O          2.5240   29.6850  213.2410 O.2   102  ALA102     -0.2718
    113  CB         5.7670   29.4080  212.3420 C.3   102  ALA102      0.0304
    114  N          3.3840   31.2850  211.8920 N.am  103  SER103     -0.1938
    115  CA         2.1490   31.6390  211.2140 C.3   103  SER103      0.2055
    116  C          2.3670   31.6080  209.7110 C.2   103  SER103      0.2642
    117  O          3.3640   32.1240  209.2170 O.2   103  SER103     -0.2714
    118  CB         1.6860   33.0410  211.6360 C.3   103  SER103      0.2130
    119  OG         1.2560   33.0490  212.9840 O.3   103  SER103     -0.2179
    120  N          1.4290   31.0300  208.9750 N.am  104  ILE104     -0.1977
    121  CA         1.4550   31.1640  207.5160 C.3   104  ILE104      0.1596
    122  C          0.8120   32.5010  207.1280 C.2   104  ILE104      0.2287
    123  O         -0.3920   32.6830  207.3090 O.2   104  ILE104     -0.2864
    124  CB         0.7210   29.9830  206.8280 C.3   104  ILE104      0.0276
    125  CG1        1.4320   28.6540  207.1510 C.3   104  ILE104      0.0022
    126  CG2        0.6380   30.2010  205.3340 C.3   104  ILE104      0.0022
    127  CD1        0.6630   27.4380  206.7120 C.3   104  ILE104      0.0001
    128  N         -1.8820   29.2170  198.1770 N.3   109  HIS109     -0.1241
    129  CA        -2.5670   28.1150  198.8520 C.3   109  HIS109      0.1621
    130  C         -3.8340   28.6480  199.5170 C.2   109  HIS109      0.2264
    131  O         -4.1050   29.8550  199.4830 O.2   109  HIS109     -0.2867
    132  CB        -1.6860   27.5020  199.9410 C.3   109  HIS109      0.0745
    133  CG        -1.2010   28.5030  200.9350 C.ar  109  HIS109      0.0817
    134  ND1       -2.0160   29.0220  201.9170 N.ar  109  HIS109     -0.2268
    135  CD2       -0.0120   29.1360  201.0540 C.ar  109  HIS109      0.1154
    136  CE1       -1.3390   29.9110  202.6190 C.ar  109  HIS109      0.1986
    137  NE2       -0.1180   29.9990  202.1200 N.ar  109  HIS109     -0.2212
    138  N         -4.8800   28.1360  202.8330 N.3   111  LEU111     -0.1245
    139  CA        -4.8810   28.3010  204.2910 C.3   111  LEU111      0.1561
    140  C         -4.8860   29.7800  204.6620 C.2   111  LEU111      0.2260
    141  O         -4.0040   30.5380  204.2470 O.2   111  LEU111     -0.2867
    142  CB        -3.6780   27.6230  204.9290 C.3   111  LEU111      0.0270
    143  CG        -3.5580   26.1160  204.7180 C.3   111  LEU111      0.0019
    144  CD1       -2.2960   25.6260  205.3820 C.3   111  LEU111      0.0001
    145  CD2       -4.7750   25.3760  205.2590 C.3   111  LEU111      0.0001
    146  N         -3.5660   30.3920  209.4350 N.3   114  TYR114     -0.1241
    147  CA        -2.9300   29.2600  210.1040 C.3   114  TYR114      0.1605
    148  C         -1.8450   29.7640  211.0670 C.2   114  TYR114      0.2264
    149  O         -1.0260   30.6040  210.7130 O.2   114  TYR114     -0.2867
    150  CB        -2.3140   28.2720  209.0890 C.3   114  TYR114      0.0534
    151  CG        -1.8370   26.9730  209.7260 C.ar  114  TYR114     -0.0201
    152  CD1       -0.5820   26.8860  210.3370 C.ar  114  TYR114     -0.0009
    153  CD2       -2.6470   25.8490  209.7440 C.ar  114  TYR114     -0.0009
    154  CE1       -0.1530   25.7160  210.9360 C.ar  114  TYR114      0.0417
    155  CE2       -2.2210   24.6700  210.3430 C.ar  114  TYR114      0.0417
    156  CZ        -0.9750   24.6120  210.9390 C.ar  114  TYR114      0.1957
    157  OH        -0.5550   23.4410  211.5280 O.3   114  TYR114     -0.2866
    158  N          0.7150   28.0010  214.2670 N.3   116  SER116     -0.1217
    159  CA         1.0080   26.8330  215.0820 C.3   116  SER116      0.1889
    160  C          1.9150   27.1840  216.2610 C.2   116  SER116      0.2288
    161  O          2.5880   28.2120  216.2510 O.2   116  SER116     -0.2866
    162  CB         1.6270   25.7220  214.2350 C.3   116  SER116      0.2089
    163  OG         2.9280   26.0570  213.7810 O.3   116  SER116     -0.2183
    164  N         -7.2130   17.8770  207.0980 N.3   153  LEU153     -0.1231
    165  CA        -6.0380   18.2350  206.3660 C.3   153  LEU153      0.1693
    166  C         -4.9090   18.5960  207.2980 C.2   153  LEU153      0.2591
    167  O         -3.8370   18.0750  207.1940 O.2   153  LEU153     -0.2718
    168  CB        -6.3470   19.4040  205.4790 C.3   153  LEU153      0.0284
    169  CG        -5.2060   20.0340  204.7270 C.3   153  LEU153      0.0019
    170  CD1       -4.2560   19.0350  204.1360 C.3   153  LEU153      0.0001
    171  CD2       -5.7600   20.9290  203.6490 C.3   153  LEU153      0.0001
    172  N         -5.1790   19.4880  208.2240 N.am  154  ALA154     -0.1980
    173  CA        -4.1940   19.9480  209.1580 C.3   154  ALA154      0.1597
    174  C         -3.7000   18.8850  210.1090 C.2   154  ALA154      0.2287
    175  O         -2.5400   18.8160  210.3680 O.2   154  ALA154     -0.2864
    176  CB        -4.7230   21.1270  209.9220 C.3   154  ALA154      0.0319
    177  N         -1.2590   16.6220  208.2410 N.3   157  VAL157     -0.1231
    178  CA         0.0390   17.2420  208.0580 C.3   157  VAL157      0.1692
    179  C          0.8000   17.2510  209.3840 C.2   157  VAL157      0.2591
    180  O          1.9440   16.8060  209.4430 O.2   157  VAL157     -0.2718
    181  CB        -0.1010   18.6720  207.4990 C.3   157  VAL157      0.0266
    182  CG1        1.2350   19.3970  207.5220 C.3   157  VAL157      0.0020
    183  CG2       -0.7080   18.6510  206.0740 C.3   157  VAL157      0.0020
    184  N          0.1580   17.7160  210.4560 N.am  158  VAL158     -0.1980
    185  CA         0.8700   17.9020  211.7210 C.3   158  VAL158      0.1595
    186  C          1.3210   16.5530  212.2990 C.2   158  VAL158      0.2287
    187  O          2.4430   16.4320  212.7710 O.2   158  VAL158     -0.2864
    188  CB         0.0120   18.6800  212.7620 C.3   158  VAL158      0.0276
    189  CG1        0.6570   18.6500  214.1690 C.3   158  VAL158      0.0022
    190  CG2       -0.2080   20.1150  212.3190 C.3   158  VAL158      0.0022
    191  N          4.3410   15.3230  210.3920 N.3   161  ASN161     -0.1240
    192  CA         5.5300   16.1060  210.6950 C.3   161  ASN161      0.1653
    193  C          6.0620   15.7350  212.0700 C.2   161  ASN161      0.2266
    194  O          7.2690   15.7580  212.2990 O.2   161  ASN161     -0.2867
    195  CB         5.2420   17.6080  210.6020 C.3   161  ASN161      0.1155
    196  CG         5.1270   18.0820  209.1700 C.2   161  ASN161      0.2627
    197  OD1        5.6580   17.4470  208.2490 O.2   161  ASN161     -0.2716
    198  ND2        4.4480   19.2040  208.9660 N.am  161  ASN161     -0.0877
@<TRIPOS>BOND
     1    70    69    2
     2    67    68    1
     3    93    91    1
     4    69    68    1
     5    69    75   am
     6    85    84    2
     7    63    62    2
     8    68    71    1
     9    84    83    1
    10    76    75    1
    11    76    77    1
    12    76    79    1
    13    75    81    1
    14    82    77   am
    15    82    83    1
    16    87    88    1
    17    92    91    1
    18    62    61    1
    19    77    78    2
    20    83    86    1
    21    91    88    1
    22    71    72    1
    23    79    80    1
    24    66    64    1
    25    88    89    1
    26    60    61    1
    27    81    80    1
    28   128   129    1
    29    72    74    1
    30    72    73    1
    31    61    64    1
    32   129   130    1
    33   129   132    1
    34    64    65    1
    35    55    54    2
    36    89    90    2
    37    89    94   am
    38   131   130    2
    39    54    53    1
    40   132   133    1
    41    94    95    1
    42    35    36    2
    43    35    34    1
    44    25    24    2
    45   133   135   ar
    46   133   134   ar
    47    53    52    1
    48    53    56    1
    49   135   137   ar
    50    24    23    1
    51    24    33   am
    52    95    96    1
    53    95    98    1
    54    34    33    1
    55    34    37    1
    56    58    56    1
    57    28    30   ar
    58    28    27   ar
    59    23    26    1
    60    23    22    1
    61   134   136   ar
    62    26    27    1
    63    56    57    1
    64   137   136   ar
    65    30    32   ar
    66    96    97    2
    67    39    37    1
    68    98    99    1
    69    27    29   ar
    70    37    38    1
    71   138   139    1
    72    22    14   am
    73    57    59    1
    74    32    31   ar
    75   171   169    1
    76    29    31   ar
    77    38    40    1
    78    14    15    2
    79    14    13    1
    80   170   169    1
    81   141   140    2
    82    43    44    2
    83    43    42    1
    84   139   140    1
    85   139   142    1
    86   143   142    1
    87   143   145    1
    88   143   144    1
    89   169   168    1
    90    13    16    1
    91    13    12    1
    92    16    17    1
    93    19    17   ar
    94    19    21   ar
    95   126   124    1
    96   168   165    1
    97    42    45    1
    98    42    41    1
    99    17    18   ar
   100   100   101    1
   101   108   106   ar
   102    21    20   ar
   103   183   181    1
   104    45    46    1
   105     4     3    2
   106   105   106    1
   107   105   104    1
   108   165   164    1
   109   165   166    1
   110    12     3   am
   111   106   107   ar
   112    18    20   ar
   113   127   125    1
   114    46    47    1
   115   124   125    1
   116   124   121    1
   117     3     2    1
   118   101   104    1
   119   101   102    1
   120   122   123    2
   121   122   121    1
   122   167   166    2
   123   166   172   am
   124   181   182    1
   125   181   178    1
   126   121   120    1
   127   103   102    2
   128    47    48    1
   129    48    49    2
   130   178   177    1
   131   178   179    1
   132   172   173    1
   133   197   196    2
   134     2     5    1
   135     2     1    1
   136     5     6    1
   137   198   196   am
   138   120   116   am
   139   150   151    1
   140   150   147    1
   141    49    51    1
   142    49    50    1
   143   173   176    1
   144   173   174    1
   145   196   195    1
   146   117   116    2
   147   179   180    2
   148   179   184   am
   149   146   147    1
   150   116   115    1
   151   151   153   ar
   152   151   152   ar
   153   153   155   ar
   154     6     7    1
   155     8     7    1
   156     8     9    2
   157   147   148    1
   158   174   175    2
   159   152   154   ar
   160   155   156   ar
   161   191   192    1
   162   184   185    1
   163   195   192    1
   164   192   193    1
   165   149   148    2
   166    10     9    1
   167   154   156   ar
   168   156   157    1
   169     9    11    1
   170   115   118    1
   171   115   114    1
   172   118   119    1
   173   185   186    1
   174   185   188    1
   175   114   111   am
   176   193   194    2
   177   186   187    2
   178   190   188    1
   179   113   110    1
   180   188   189    1
   181   111   112    2
   182   111   110    1
   183   110   109    1
   184   163   162    1
   185   162   159    1
   186   158   159    1
   187   159   160    1
   188   161   160    2
