@<TRIPOS>MOLECULE
tmp/4wvpA00.pdb
 215 210 0 0 0
SMALL
GASTEIGER

@<TRIPOS>ATOM
      1  N        -41.2680   86.7820    2.9050 N.3    25  PHE25      -0.1227
      2  CA       -40.9740   88.0470    2.2200 C.3    25  PHE25       0.1736
      3  C        -42.1990   88.7990    1.6930 C.2    25  PHE25       0.2595
      4  O        -42.0830   89.9800    1.4130 O.2    25  PHE25      -0.2718
      5  CB       -39.9580   87.8400    1.0860 C.3    25  PHE25       0.0547
      6  CG       -40.4950   87.1010   -0.0800 C.ar   25  PHE25      -0.0202
      7  CD1      -40.5900   85.7160   -0.0900 C.ar   25  PHE25      -0.0042
      8  CD2      -40.9390   87.7940   -1.2290 C.ar   25  PHE25      -0.0042
      9  CE1      -41.1180   85.0240   -1.1910 C.ar   25  PHE25      -0.0003
     10  CE2      -41.4740   87.0770   -2.3100 C.ar   25  PHE25      -0.0003
     11  CZ       -41.5400   85.7110   -2.3020 C.ar   25  PHE25      -0.0000
     12  N        -43.3330   88.1400    1.5320 N.am   26  CYS26      -0.1970
     13  CA       -44.5370   88.7900    1.0270 C.3    26  CYS26       0.1712
     14  C        -45.7180   87.9750    1.4720 C.2    26  CYS26       0.2296
     15  O        -45.5900   86.7840    1.7890 O.2    26  CYS26      -0.2864
     16  CB       -44.5380   88.8640   -0.4960 C.3    26  CYS26       0.0983
     17  SG       -43.7500   90.3570   -1.1840 S.3    26  CYS26      -0.0798
     18  N        -45.1380   92.6630   -7.9030 N.3    41  HIS41      -0.1241
     19  CA       -43.7500   93.0500   -7.6560 C.3    41  HIS41       0.1621
     20  C        -43.0040   92.0900   -6.7060 C.2    41  HIS41       0.2264
     21  O        -41.7560   92.0860   -6.6950 O.2    41  HIS41      -0.2867
     22  CB       -43.6920   94.4950   -7.1490 C.3    41  HIS41       0.0745
     23  CG       -43.9220   94.6430   -5.6700 C.ar   41  HIS41       0.0817
     24  ND1      -45.0840   95.1540   -5.1150 N.ar   41  HIS41      -0.2268
     25  CD2      -43.0950   94.3890   -4.6250 C.ar   41  HIS41       0.1154
     26  CE1      -44.9750   95.1630   -3.8010 C.ar   41  HIS41       0.1986
     27  NE2      -43.7560   94.7530   -3.4840 N.ar   41  HIS41      -0.2212
     28  N        -48.3490   94.2410  -14.8790 N.3    80  TYR80      -0.1241
     29  CA       -47.6250   95.0010  -13.8860 C.3    80  TYR80       0.1605
     30  C        -46.6600   96.0140  -14.5420 C.2    80  TYR80       0.2264
     31  O        -45.8460   95.6640  -15.4390 O.2    80  TYR80      -0.2867
     32  CB       -46.8330   94.0450  -12.9560 C.3    80  TYR80       0.0534
     33  CG       -45.8970   94.7560  -11.9780 C.ar   80  TYR80      -0.0201
     34  CD1      -46.3660   95.7360  -11.1600 C.ar   80  TYR80      -0.0009
     35  CD2      -44.5490   94.4440  -11.9350 C.ar   80  TYR80      -0.0009
     36  CE1      -45.5380   96.4220  -10.2570 C.ar   80  TYR80       0.0417
     37  CE2      -43.6760   95.1170  -11.0640 C.ar   80  TYR80       0.0417
     38  CZ       -44.1790   96.1060  -10.2390 C.ar   80  TYR80       0.1957
     39  OH       -43.3970   96.8320   -9.3480 O.3    80  TYR80      -0.2866
     40  N        -43.8220   98.5100  -13.3300 N.3    82  PRO82      -0.2102
     41  CA       -42.9730   98.8930  -12.2040 C.3    82  PRO82       0.1504
     42  C        -42.5270  100.3610  -12.1830 C.2    82  PRO82       0.2576
     43  O        -41.9320  100.7820  -11.1880 O.2    82  PRO82      -0.2718
     44  CB       -41.7500   97.9880  -12.4010 C.3    82  PRO82       0.0282
     45  CG       -41.6590   97.8180  -13.8720 C.3    82  PRO82       0.0208
     46  CD       -43.1060   97.6900  -14.3180 C.3    82  PRO82       0.0893
     47  N        -42.7870  101.1060  -13.2420 N.am   83  VAL83      -0.1966
     48  CA       -42.4510  102.5440  -13.2950 C.3    83  VAL83       0.1727
     49  C        -43.5510  103.3290  -12.5910 C.2    83  VAL83       0.2616
     50  O        -43.2730  104.1950  -11.7650 O.2    83  VAL83      -0.2715
     51  CB       -42.2510  103.0490  -14.7310 C.3    83  VAL83       0.0290
     52  CG1      -41.9450  104.5520  -14.7200 C.3    83  VAL83       0.0023
     53  CG2      -41.1260  102.2910  -15.4440 C.3    83  VAL83       0.0023
     54  N        -44.8050  103.0400  -12.9220 N.am   84  ASN84      -0.1958
     55  CA       -45.9210  103.7430  -12.3490 C.3    84  ASN84       0.1819
     56  C        -46.5940  103.0030  -11.1870 C.2    84  ASN84       0.2621
     57  O        -47.4970  103.5340  -10.5640 O.2    84  ASN84      -0.2715
     58  CB       -46.9640  104.0630  -13.3970 C.3    84  ASN84       0.1195
     59  CG       -46.4320  104.9900  -14.4380 C.2    84  ASN84       0.2630
     60  OD1      -46.1130  106.1500  -14.1440 O.2    84  ASN84      -0.2716
     61  ND2      -46.2670  104.4960  -15.6310 N.am   84  ASN84      -0.0877
     62  N        -46.1500  101.7920  -10.9340 N.am   85  LEU85      -0.1977
     63  CA       -46.6670  100.9210   -9.8560 C.3    85  LEU85       0.1596
     64  C        -48.1540  100.6490  -10.0480 C.2    85  LEU85       0.2287
     65  O        -48.9840  100.8170   -9.1550 O.2    85  LEU85      -0.2864
     66  CB       -46.3510  101.4720   -8.4830 C.3    85  LEU85       0.0297
     67  CG       -44.8660  101.5870   -8.2130 C.3    85  LEU85       0.0022
     68  CD1      -44.6240  102.0480   -6.7790 C.3    85  LEU85       0.0001
     69  CD2      -44.0750  100.3290   -8.4610 C.3    85  LEU85       0.0001
     70  N        -50.4840   95.9060   -9.8530 N.3    88  ASP88      -0.1239
     71  CA       -49.5880   95.1490   -8.9920 C.3    88  ASP88       0.1674
     72  C        -50.2810   93.9310   -8.3920 C.2    88  ASP88       0.2266
     73  O        -50.5870   93.8470   -7.1980 O.2    88  ASP88      -0.2867
     74  CB       -48.9810   96.0720   -7.9120 C.3    88  ASP88       0.1410
     75  CG       -47.7960   95.4690   -7.2160 C.2    88  ASP88       0.3668
     76  OD1      -47.2800   94.4040   -7.6680 O.co2  88  ASP88      -0.2456
     77  OD2      -47.3370   96.0970   -6.1750 O.co2  88  ASP88      -0.2456
     78  N        -54.4980  112.4760   -2.1820 N.3   151  LEU151     -0.1231
     79  CA       -53.1970  111.8950   -2.5110 C.3   151  LEU151      0.1693
     80  C        -53.3540  110.4390   -2.9410 C.2   151  LEU151      0.2592
     81  O        -52.3940  109.6770   -2.8300 O.2   151  LEU151     -0.2718
     82  CB       -52.1660  112.0760   -1.3610 C.3   151  LEU151      0.0284
     83  CG       -51.7350  113.5230   -1.0460 C.3   151  LEU151      0.0019
     84  CD1      -50.6580  113.5180    0.0060 C.3   151  LEU151      0.0001
     85  CD2      -51.2570  114.2850   -2.2780 C.3   151  LEU151      0.0001
     86  N        -54.5500  110.0770   -3.4390 N.am  152  CYS152     -0.1956
     87  CA       -54.7460  108.7480   -4.1330 C.3   152  CYS152      0.1843
     88  C        -54.9580  108.9760   -5.6220 C.2   152  CYS152      0.2625
     89  O        -54.7980  110.0840   -6.1310 O.2   152  CYS152     -0.2714
     90  CB       -55.9100  107.8800   -3.5990 C.3   152  CYS152      0.0997
     91  SG       -55.7700  106.0250   -3.8530 S.3   152  CYS152     -0.0797
     92  N        -55.2380  107.8910   -6.3200 N.am  153  ARG153     -0.1977
     93  CA       -55.5200  107.9230   -7.7550 C.3   153  ARG153      0.1597
     94  C        -56.4900  106.7520   -8.0100 C.2   153  ARG153      0.2287
     95  O        -56.5930  105.8290   -7.2060 O.2   153  ARG153     -0.2864
     96  CB       -54.2550  107.7920   -8.6000 C.3   153  ARG153      0.0334
     97  CG       -53.4460  106.5690   -8.3170 C.3   153  ARG153      0.0492
     98  CD       -52.1620  106.5090   -9.1450 C.3   153  ARG153      0.2205
     99  NE       -51.4870  105.2660   -8.7820 N.pl3 153  ARG153     -0.0865
    100  CZ       -50.2900  104.8900   -9.2160 C.cat 153  ARG153      0.5346
    101  NH1      -49.6420  105.6440  -10.0810 N.pl3 153  ARG153      0.1354
    102  NH2      -49.7800  103.7270   -8.8050 N.pl3 153  ARG153      0.1354
    103  N        -55.6520  102.8710   -7.6390 N.3   156  ASN156     -0.1240
    104  CA       -55.3270  102.2570   -6.3480 C.3   156  ASN156      0.1653
    105  C        -56.4630  102.4530   -5.3460 C.2   156  ASN156      0.2266
    106  O        -57.3150  103.3320   -5.4990 O.2   156  ASN156     -0.2867
    107  CB       -54.0180  102.8410   -5.7350 C.3   156  ASN156      0.1155
    108  CG       -52.7470  102.3020   -6.4040 C.2   156  ASN156      0.2627
    109  OD1      -52.0480  103.0340   -7.0820 O.2   156  ASN156     -0.2716
    110  ND2      -52.4380  101.0510   -6.1720 N.am  156  ASN156     -0.0877
    111  N        -56.4760  103.5080   -1.6220 N.3   158  CYS158     -0.1235
    112  CA       -55.5210  104.0680   -0.6880 C.3   158  CYS158      0.1677
    113  C        -56.1230  104.1770    0.6950 C.2   158  CYS158      0.2270
    114  O        -57.3440  104.4390    0.8700 O.2   158  CYS158     -0.2867
    115  CB       -55.0810  105.4590   -1.0730 C.3   158  CYS158      0.0956
    116  SG       -54.1540  105.4950   -2.6070 S.3   158  CYS158     -0.0801
    117  N        -49.0130   99.9120    6.6600 N.3   168  VAL168     -0.1231
    118  CA       -48.3040   98.6920    6.2050 C.3   168  VAL168      0.1692
    119  C        -46.8350   98.9780    6.0630 C.2   168  VAL168      0.2592
    120  O        -46.3930  100.1490    6.0290 O.2   168  VAL168     -0.2718
    121  CB       -48.8980   98.1310    4.8850 C.3   168  VAL168      0.0266
    122  CG1      -50.4300   97.8730    5.0270 C.3   168  VAL168      0.0020
    123  CG2      -48.5960   99.0280    3.7110 C.3   168  VAL168      0.0020
    124  N        -46.0380   97.9350    5.9350 N.am  169  CYS169     -0.1956
    125  CA       -44.5870   98.1300    5.8280 C.3   169  CYS169      0.1843
    126  C        -44.0010   96.9740    5.0550 C.2   169  CYS169      0.2625
    127  O        -44.7170   96.0600    4.5790 O.2   169  CYS169     -0.2714
    128  CB       -43.9620   98.2940    7.2260 C.3   169  CYS169      0.0997
    129  SG       -42.3210   99.0970    7.2200 S.3   169  CYS169     -0.0797
    130  N        -42.6860   97.0110    4.8950 N.am  170  PHE170     -0.1960
    131  CA       -41.9930   95.9900    4.1040 C.3   170  PHE170      0.1771
    132  C        -42.2450   94.5830    4.6070 C.2   170  PHE170      0.2620
    133  O        -42.1420   94.3240    5.7870 O.2   170  PHE170     -0.2715
    134  CB       -40.5110   96.3090    4.0680 C.3   170  PHE170      0.0574
    135  CG       -40.2420   97.6610    3.5000 C.ar  170  PHE170     -0.0200
    136  CD1      -40.3870   97.8830    2.1470 C.ar  170  PHE170     -0.0042
    137  CD2      -39.8910   98.7200    4.3100 C.ar  170  PHE170     -0.0042
    138  CE1      -40.2290   99.1630    1.6210 C.ar  170  PHE170     -0.0003
    139  CE2      -39.7080   99.9850    3.7910 C.ar  170  PHE170     -0.0003
    140  CZ       -39.8970  100.2090    2.4530 C.ar  170  PHE170     -0.0000
    141  N        -42.5900   93.6880    3.6820 N.am  171  GLY171     -0.1954
    142  CA       -43.0450   92.3290    4.0260 C.3   171  GLY171      0.1869
    143  C        -44.5470   92.1740    4.0380 C.2   171  GLY171      0.2309
    144  O        -45.0600   91.0450    4.0400 O.2   171  GLY171     -0.2863
    145  N        -46.4140   93.5370    1.5570 N.3   173  SER173     -0.1217
    146  CA       -46.8860   93.5160    0.1470 C.3   173  SER173      0.1889
    147  C        -47.5090   92.1830   -0.1810 C.2   173  SER173      0.2288
    148  O        -47.0350   91.1320    0.2970 O.2   173  SER173     -0.2866
    149  CB       -45.7370   93.7220   -0.8060 C.3   173  SER173      0.2089
    150  OG       -45.1660   95.0150   -0.6940 O.3   173  SER173     -0.2183
    151  N        -51.8390   94.7020   -0.6940 N.3   187  ALA187     -0.1231
    152  CA       -50.8450   95.7210   -0.3090 C.3   187  ALA187      0.1694
    153  C        -49.7540   95.8530   -1.3620 C.2   187  ALA187      0.2593
    154  O        -49.1700   94.8520   -1.7870 O.2   187  ALA187     -0.2718
    155  CB       -50.2700   95.3800    1.0370 C.3   187  ALA187      0.0304
    156  N        -49.4980   97.0930   -1.8150 N.am  188  SER188     -0.1938
    157  CA       -48.6120   97.3850   -2.9530 C.3   188  SER188      0.2055
    158  C        -47.4180   98.2530   -2.5790 C.2   188  SER188      0.2643
    159  O        -46.2650   97.8010   -2.6840 O.2   188  SER188     -0.2714
    160  CB       -49.3950   97.9280   -4.1470 C.3   188  SER188      0.2130
    161  OG       -48.5630   98.1910   -5.2510 O.3   188  SER188     -0.2179
    162  N        -47.6570   99.4960   -2.1850 N.am  189  PHE189     -0.1959
    163  CA       -46.5450  100.4420   -1.9390 C.3   189  PHE189      0.1771
    164  C        -46.9010  101.5060   -0.9280 C.2   189  PHE189      0.2619
    165  O        -48.0580  101.8460   -0.7160 O.2   189  PHE189     -0.2715
    166  CB       -46.0110  101.0730   -3.2230 C.3   189  PHE189      0.0574
    167  CG       -46.9570  101.9710   -3.9390 C.ar  189  PHE189     -0.0200
    168  CD1      -47.8210  101.4740   -4.9180 C.ar  189  PHE189     -0.0042
    169  CD2      -46.9670  103.3470   -3.6880 C.ar  189  PHE189     -0.0042
    170  CE1      -48.6860  102.3190   -5.6120 C.ar  189  PHE189     -0.0003
    171  CE2      -47.8180  104.1820   -4.3940 C.ar  189  PHE189     -0.0003
    172  CZ       -48.6920  103.6770   -5.3460 C.ar  189  PHE189     -0.0000
    173  N        -45.8770  101.9800   -0.2710 N.am  190  VAL190     -0.1963
    174  CA       -45.9720  103.1410    0.6030 C.3   190  VAL190      0.1727
    175  C        -45.2310  104.3090   -0.0340 C.2   190  VAL190      0.2616
    176  O        -44.5410  104.1560   -1.0460 O.2   190  VAL190     -0.2715
    177  CB       -45.3350  102.8310    1.9830 C.3   190  VAL190      0.0290
    178  CG1      -46.0660  101.6700    2.6680 C.3   190  VAL190      0.0023
    179  CG2      -43.8400  102.5200    1.8920 C.3   190  VAL190      0.0023
    180  N        -45.3800  105.4730    0.5960 N.am  191  ARG191     -0.1963
    181  CA       -44.6710  106.6680    0.1830 C.3   191  ARG191      0.1729
    182  C        -44.0430  107.3420    1.3740 C.2   191  ARG191      0.2617
    183  O        -44.6920  107.4990    2.4030 O.2   191  ARG191     -0.2715
    184  CB       -45.6380  107.6440   -0.4970 C.3   191  ARG191      0.0348
    185  CG       -45.8410  107.3190   -1.9510 C.3   191  ARG191      0.0492
    186  CD       -46.9690  108.1740   -2.5590 C.3   191  ARG191      0.2205
    187  NE       -48.2470  107.7150   -2.0410 N.pl3 191  ARG191     -0.0865
    188  CZ       -49.4060  108.3640   -2.1840 C.cat 191  ARG191      0.5346
    189  NH1      -49.4660  109.5240   -2.8200 N.pl3 191  ARG191      0.1354
    190  NH2      -50.5360  107.8570   -1.6900 N.pl3 191  ARG191      0.1354
    191  N        -42.7850  107.6970    1.2440 N.am  192  GLY192     -0.1940
    192  CA       -42.1190  108.4630    2.2800 C.3   192  GLY192      0.2014
    193  C        -41.8400  107.6510    3.5220 C.2   192  GLY192      0.2639
    194  O        -41.9340  108.1910    4.6540 O.2   192  GLY192     -0.2714
    195  N        -41.4740  106.3930    3.3220 N.am  193  GLY193     -0.1954
    196  CA       -41.2790  105.4170    4.4060 C.3   193  GLY193      0.1869
    197  C        -42.5980  104.8630    4.9280 C.2   193  GLY193      0.2309
    198  O        -43.6750  105.3340    4.5660 O.2   193  GLY193     -0.2863
    199  N        -48.7550  110.2690    3.8150 N.3   199  TYR199     -0.1241
    200  CA       -49.0890  109.6750    2.5460 C.3   199  TYR199      0.1605
    201  C        -49.8720  108.3850    2.7410 C.2   199  TYR199      0.2264
    202  O        -49.4300  107.4940    3.4270 O.2   199  TYR199     -0.2867
    203  CB       -47.8220  109.3990    1.6960 C.3   199  TYR199      0.0534
    204  CG       -46.9750  110.5940    1.5360 C.ar  199  TYR199     -0.0201
    205  CD1      -47.3910  111.7020    0.8210 C.ar  199  TYR199     -0.0009
    206  CD2      -45.7240  110.6350    2.1010 C.ar  199  TYR199     -0.0009
    207  CE1      -46.6240  112.8080    0.7380 C.ar  199  TYR199      0.0417
    208  CE2      -44.9350  111.7290    2.0010 C.ar  199  TYR199      0.0417
    209  CZ       -45.3840  112.8390    1.3340 C.ar  199  TYR199      0.1957
    210  OH       -44.5610  113.9570    1.2650 O.3   199  TYR199     -0.2866
    211  N        -50.9360  102.3950   -0.4670 N.3   202  ALA202     -0.1245
    212  CA       -51.5500  102.0430   -1.7390 C.3   202  ALA202      0.1562
    213  C        -51.6570  100.5300   -1.8990 C.2   202  ALA202      0.2260
    214  O        -50.6850   99.7650   -1.6620 O.2   202  ALA202     -0.2867
    215  CB       -50.7520  102.6440   -2.8820 C.3   202  ALA202      0.0290
@<TRIPOS>BOND
     1    61    59   am
     2    53    51    1
     3    31    30    2
     4    28    29    1
     5    51    52    1
     6    51    48    1
     7    30    29    1
     8    59    60    2
     9    59    58    1
    10    46    45    1
    11    46    40    1
    12    29    32    1
    13    45    44    1
    14    58    55    1
    15    40    41    1
    16    48    47    1
    17    48    49    1
    18    47    42   am
    19    32    33    1
    20    54    49   am
    21    54    55    1
    22    49    50    2
    23    44    41    1
    24    55    56    1
    25    41    42    1
    26    42    43    2
    27    33    35   ar
    28    33    34   ar
    29    35    37   ar
    30    56    62   am
    31    56    57    2
    32    34    36   ar
    33    37    38   ar
    34    62    63    1
    35    36    38   ar
    36    38    39    1
    37   101   100    1
    38    64    63    1
    39    64    65    2
    40    63    66    1
    41    70    71    1
    42   100   102    1
    43   100    99    2
    44    98    99    1
    45    98    97    1
    46    71    72    1
    47    71    74    1
    48    96    97    1
    49    96    93    1
    50    66    67    1
    51    69    67    1
    52    72    73    2
    53    67    68    1
    54    94    93    1
    55    94    95    2
    56    74    75    1
    57    18    19    1
    58    93    92    1
    59    76    75   ar
    60    19    22    1
    61    19    20    1
    62   103   104    1
    63    75    77   ar
    64    22    23    1
    65   109   108    2
    66    20    21    2
    67   108   110   am
    68   108   107    1
    69   104   107    1
    70   104   105    1
    71    92    88   am
    72    89    88    2
    73    23    24   ar
    74    23    25   ar
    75    88    87    1
    76   170   172   ar
    77   170   168   ar
    78   106   105    2
    79   172   171   ar
    80   161   160    1
    81    24    26   ar
    82   168   167   ar
    83    25    27   ar
    84   171   169   ar
    85   160   157    1
    86    87    90    1
    87    87    86    1
    88   167   169   ar
    89   167   166    1
    90    91    90    1
    91    91   116    1
    92    26    27   ar
    93    86    80   am
    94   166   163    1
    95   157   158    1
    96   157   156    1
    97    80    81    2
    98    80    79    1
    99   215   212    1
   100   189   188    1
   101   159   158    2
   102   116   115    1
   103   158   162   am
   104   186   187    1
   105   186   185    1
   106    79    78    1
   107    79    82    1
   108    10    11   ar
   109    10     8   ar
   110    11     9   ar
   111    85    83    1
   112   162   163    1
   113   188   187    2
   114   188   190    1
   115   185   184    1
   116   163   164    1
   117   213   212    1
   118   213   214    2
   119   156   153   am
   120   154   153    2
   121   212   211    1
   122   111   112    1
   123   153   152    1
   124    82    83    1
   125     8     6   ar
   126     9     7   ar
   127    17    16    1
   128   115   112    1
   129   176   175    2
   130    83    84    1
   131   164   165    2
   132   164   173   am
   133   149   150    1
   134   149   146    1
   135   151   152    1
   136   112   113    1
   137   184   181    1
   138    16    13    1
   139   152   155    1
   140   173   174    1
   141   147   146    1
   142   147   148    2
   143     7     6   ar
   144     6     5    1
   145   175   180   am
   146   175   174    1
   147   146   145    1
   148   181   180    1
   149   181   182    1
   150   174   177    1
   151   113   114    2
   152   207   205   ar
   153   207   209   ar
   154   205   204   ar
   155    13    14    1
   156    13    12    1
   157     5     2    1
   158   191   182   am
   159   191   192    1
   160   210   209    1
   161   209   208   ar
   162   182   183    2
   163     4     3    2
   164    14    15    2
   165    12     3   am
   166   204   203    1
   167   204   206   ar
   168   138   136   ar
   169   138   140   ar
   170     3     2    1
   171   203   200    1
   172   179   177    1
   173   177   178    1
   174   208   206   ar
   175   136   135   ar
   176     2     1    1
   177   192   193    1
   178   140   139   ar
   179   200   201    1
   180   200   199    1
   181   201   202    2
   182   195   193   am
   183   195   196    1
   184   135   134    1
   185   135   137   ar
   186   193   194    2
   187   141   142    1
   188   141   132   am
   189   123   121    1
   190   139   137   ar
   191   142   143    1
   192   143   144    2
   193   134   131    1
   194   131   132    1
   195   131   130    1
   196   196   197    1
   197   198   197    2
   198   127   126    2
   199   132   133    2
   200   121   122    1
   201   121   118    1
   202   130   126   am
   203   126   125    1
   204   125   124    1
   205   125   128    1
   206   124   119   am
   207   120   119    2
   208   119   118    1
   209   118   117    1
   210   129   128    1
