@<TRIPOS>MOLECULE
tmp/4wvsA00.pdb
 133 131 0 0 0
SMALL
GASTEIGER

@<TRIPOS>ATOM
      1  N          2.3030 -854.4140   11.5560 N.3    40  THR40      -0.1218
      2  CA         1.9230 -855.7580   12.0350 C.3    40  THR40       0.1862
      3  C          2.8920 -856.8220   11.4870 C.2    40  THR40       0.2287
      4  O          2.6770 -858.0060   11.7520 O.2    40  THR40      -0.2866
      5  CB         0.5220 -856.1570   11.5450 C.3    40  THR40       0.1770
      6  OG1        0.5820 -856.3680   10.1360 O.3    40  THR40      -0.2211
      7  CG2       -0.5700 -855.1750   11.9510 C.3    40  THR40       0.0375
      8  N          0.4180 -853.9500    5.9980 N.3    45  GLN45      -0.1231
      9  CA        -0.6890 -853.8670    6.9470 C.3    45  GLN45       0.1698
     10  C         -0.2590 -853.2140    8.2490 C.2    45  GLN45       0.2592
     11  O          0.6540 -853.6990    8.9230 O.2    45  GLN45      -0.2718
     12  CB        -1.2620 -855.2810    7.1540 C.3    45  GLN45       0.0381
     13  CG        -1.7590 -855.9040    5.8230 C.3    45  GLN45       0.0905
     14  CD        -2.3850 -857.2770    6.0080 C.2    45  GLN45       0.2608
     15  OE1       -2.5390 -857.7940    7.1220 O.2    45  GLN45      -0.2717
     16  NE2       -2.6810 -857.9320    4.9140 N.am   45  GLN45      -0.0878
     17  N         -0.9290 -852.0970    8.5830 N.am   46  VAL46      -0.1980
     18  CA        -0.7030 -851.3130    9.7900 C.3    46  VAL46       0.1595
     19  C         -1.9430 -851.2850   10.6760 C.2    46  VAL46       0.2287
     20  O         -3.0560 -851.4460   10.1810 O.2    46  VAL46      -0.2864
     21  CB        -0.2120 -849.8650    9.4970 C.3    46  VAL46       0.0276
     22  CG1        1.1000 -849.8570    8.6930 C.3    46  VAL46       0.0022
     23  CG2       -1.3110 -849.0480    8.7950 C.3    46  VAL46       0.0022
     24  N         -7.9120 -849.7380   14.5810 N.3    53  GLY53      -0.1210
     25  CA        -8.2480 -849.7620   13.1590 C.3    53  GLY53       0.1956
     26  C         -7.0940 -850.2810   12.3160 C.2    53  GLY53       0.2612
     27  O         -5.9460 -849.8890   12.5350 O.2    53  GLY53      -0.2717
     28  N         -7.3870 -851.1950   11.3750 N.am   54  LYS54      -0.1965
     29  CA        -6.4080 -851.8250   10.5030 C.3    54  LYS54       0.1728
     30  C         -6.4430 -851.2390    9.0890 C.2    54  LYS54       0.2616
     31  O         -7.5230 -851.1300    8.5010 O.2    54  LYS54      -0.2715
     32  CB        -6.6440 -853.3550   10.4400 C.3    54  LYS54       0.0311
     33  CG        -6.3880 -854.1080   11.7510 C.3    54  LYS54       0.0038
     34  CD        -6.8970 -855.5300   11.6190 C.3    54  LYS54       0.0206
     35  CE        -7.3280 -856.1650   12.9220 C.3    54  LYS54       0.1093
     36  NZ        -7.7830 -857.5850   12.7210 N.3    54  LYS54      -0.1314
     37  N         -5.2700 -850.8970    8.5250 N.am   55  LEU55      -0.1963
     38  CA        -5.1980 -850.3400    7.1530 C.3    55  LEU55       0.1728
     39  C         -4.1870 -851.0300    6.2830 C.2    55  LEU55       0.2616
     40  O         -3.0920 -851.3000    6.7400 O.2    55  LEU55      -0.2715
     41  CB        -4.9300 -848.8250    7.1600 C.3    55  LEU55       0.0311
     42  CG        -6.0570 -847.9540    7.7010 C.3    55  LEU55       0.0022
     43  CD1       -5.5150 -846.5980    8.1660 C.3    55  LEU55       0.0001
     44  CD2       -7.1900 -847.7910    6.6580 C.3    55  LEU55       0.0001
     45  N         -4.5520 -851.3230    5.0190 N.am   56  LYS56      -0.1963
     46  CA        -3.6580 -852.0000    4.0650 C.3    56  LYS56       0.1728
     47  C         -3.7880 -851.4180    2.6660 C.2    56  LYS56       0.2616
     48  O         -4.5620 -850.4850    2.4860 O.2    56  LYS56      -0.2715
     49  CB        -3.9500 -853.5060    4.0270 C.3    56  LYS56       0.0311
     50  CG        -5.3250 -853.9020    3.5020 C.3    56  LYS56       0.0038
     51  CD        -5.4670 -855.4510    3.5860 C.3    56  LYS56       0.0206
     52  CE        -6.8750 -855.9260    3.2560 C.3    56  LYS56       0.1093
     53  NZ        -7.1870 -855.8010    1.8110 N.3    56  LYS56      -0.1314
     54  N         -3.0700 -852.0020    1.6720 N.am   57  ASN57      -0.1958
     55  CA        -3.1330 -851.5940    0.2450 C.3    57  ASN57       0.1819
     56  C         -2.9020 -850.1000    0.0790 C.2    57  ASN57       0.2621
     57  O         -3.6970 -849.3960   -0.5520 O.2    57  ASN57      -0.2715
     58  CB        -4.4760 -852.0380   -0.3840 C.3    57  ASN57       0.1195
     59  CG        -4.7150 -853.5200   -0.2300 C.2    57  ASN57       0.2630
     60  OD1       -5.8260 -853.9670   -0.0020 O.2    57  ASN57      -0.2716
     61  ND2       -3.6600 -854.2880   -0.2090 N.am   57  ASN57      -0.0877
     62  N         -1.8330 -849.6110    0.7250 N.am   58  TRP58      -0.1960
     63  CA        -1.4570 -848.2090    0.6760 C.3    58  TRP58       0.1771
     64  C         -1.0660 -847.8620   -0.7710 C.2    58  TRP58       0.2619
     65  O         -0.4930 -848.6840   -1.4770 O.2    58  TRP58      -0.2715
     66  CB        -0.2990 -847.9370    1.6440 C.3    58  TRP58       0.0590
     67  CG        -0.7080 -848.0160    3.0930 C.ar   58  TRP58       0.0006
     68  CD1       -0.7160 -849.1290    3.8810 C.ar   58  TRP58       0.0946
     69  CD2       -1.2790 -846.9590    3.8820 C.ar   58  TRP58       0.0152
     70  NE1       -1.2170 -848.8270    5.1290 N.ar   58  TRP58      -0.2442
     71  CE2       -1.6090 -847.5090    5.1450 C.ar   58  TRP58       0.0810
     72  CE3       -1.6170 -845.6120    3.6170 C.ar   58  TRP58       0.0012
     73  CZ2       -2.1670 -846.7450    6.1640 C.ar   58  TRP58       0.0191
     74  CZ3       -2.1320 -844.8510    4.6360 C.ar   58  TRP58       0.0001
     75  CH2       -2.3870 -845.4090    5.9040 C.ar   58  TRP58       0.0015
     76  N         -1.3990 -846.6530   -1.2060 N.am   59  GLU59      -0.1977
     77  CA        -1.1300 -846.2310   -2.5600 C.3    59  GLU59       0.1602
     78  C         -0.3620 -844.9410   -2.5620 C.2    59  GLU59       0.2287
     79  O         -0.5770 -844.1230   -1.6560 O.2    59  GLU59      -0.2864
     80  CB        -2.4600 -846.0320   -3.3120 C.3    59  GLU59       0.0415
     81  CG        -3.0210 -847.3540   -3.8200 C.3    59  GLU59       0.1163
     82  CD        -4.3560 -847.3410   -4.5410 C.2    59  GLU59       0.3649
     83  OE1       -4.8290 -846.2450   -4.9130 O.co2  59  GLU59      -0.2457
     84  OE2       -4.9150 -848.4390   -4.7670 O.co2  59  GLU59      -0.2457
     85  N         -1.6670 -841.4800   -1.0150 N.3    62  ASP62      -0.1239
     86  CA        -2.3610 -841.5470    0.2830 C.3    62  ASP62       0.1674
     87  C         -1.6090 -840.7450    1.3470 C.2    62  ASP62       0.2266
     88  O         -0.3550 -840.6680    1.3570 O.2    62  ASP62      -0.2867
     89  CB        -2.4710 -842.9940    0.8140 C.3    62  ASP62       0.1410
     90  CG        -3.4680 -843.9500    0.1610 C.2    62  ASP62       0.3668
     91  OD1       -4.3620 -843.4780   -0.5660 O.co2  62  ASP62      -0.2456
     92  OD2       -3.3840 -845.1650    0.4310 O.co2  62  ASP62      -0.2456
     93  N         -6.2160 -841.0340    5.4610 N.3    67  GLU67      -0.1245
     94  CA        -6.8030 -842.3800    5.3590 C.3    67  GLU67       0.1567
     95  C         -7.3090 -842.8760    6.7220 C.2    67  GLU67       0.2260
     96  O         -8.3730 -843.5000    6.8120 O.2    67  GLU67      -0.2867
     97  CB        -5.8030 -843.4040    4.7790 C.3    67  GLU67       0.0388
     98  CG        -5.4240 -843.1220    3.3340 C.3    67  GLU67       0.1160
     99  CD        -6.6190 -843.1500    2.3980 C.2    67  GLU67       0.3649
    100  OE1       -7.2020 -844.2430    2.2400 O.co2  67  GLU67      -0.2457
    101  OE2       -7.0560 -842.0690    1.9390 O.co2  67  GLU67      -0.2457
    102  N        -10.5550 -840.7030    7.7620 N.3    70  ARG70      -0.1231
    103  CA       -11.7080 -840.9710    6.9080 C.3    70  ARG70       0.1694
    104  C        -12.2910 -842.3950    7.1400 C.2    70  ARG70       0.2592
    105  O        -13.5100 -842.5500    7.1360 O.2    70  ARG70      -0.2718
    106  CB       -11.4070 -840.6500    5.4220 C.3    70  ARG70       0.0321
    107  CG       -10.7550 -841.7500    4.5820 C.3    70  ARG70       0.0489
    108  CD       -10.8290 -841.4160    3.0900 C.3    70  ARG70       0.2205
    109  NE        -9.9680 -842.2940    2.2830 N.pl3  70  ARG70      -0.0865
    110  CZ       -10.4070 -843.2490    1.4630 C.cat  70  ARG70       0.5346
    111  NH1      -11.7130 -843.4580    1.3120 N.pl3  70  ARG70       0.1354
    112  NH2       -9.5450 -844.0080    0.7950 N.pl3  70  ARG70       0.1354
    113  N        -11.4440 -843.4000    7.4210 N.am   71  HIS71      -0.1962
    114  CA       -11.9130 -844.7700    7.6680 C.3    71  HIS71       0.1787
    115  C        -12.3050 -845.0380    9.1080 C.2    71  HIS71       0.2620
    116  O        -13.1760 -845.8650    9.3660 O.2    71  HIS71      -0.2715
    117  CB       -10.8820 -845.8020    7.1820 C.3    71  HIS71       0.0785
    118  CG       -10.6770 -845.7410    5.6890 C.ar   71  HIS71       0.0821
    119  ND1      -11.7560 -845.8020    4.8000 N.ar   71  HIS71      -0.2267
    120  CD2       -9.5310 -845.6090    4.9740 C.ar   71  HIS71       0.1154
    121  CE1      -11.2300 -845.7430    3.5840 C.ar   71  HIS71       0.1986
    122  NE2       -9.8920 -845.6460    3.6330 N.ar   71  HIS71      -0.2212
    123  N        -11.6800 -844.3250   10.0580 N.am   72  PHE72      -0.1974
    124  CA       -11.9850 -844.5430   11.4730 C.3    72  PHE72       0.1639
    125  C        -12.3840 -843.2270   12.1360 C.2    72  PHE72       0.2290
    126  O        -11.6040 -842.6730   12.9050 O.2    72  PHE72      -0.2864
    127  CB       -10.8240 -845.2980   12.1970 C.3    72  PHE72       0.0560
    128  CG       -10.4710 -846.5930   11.4950 C.ar   72  PHE72      -0.0200
    129  CD1      -11.3360 -847.6810   11.5280 C.ar   72  PHE72      -0.0042
    130  CD2       -9.3160 -846.6950   10.7230 C.ar   72  PHE72      -0.0042
    131  CE1      -11.0290 -848.8680   10.8400 C.ar   72  PHE72      -0.0003
    132  CE2       -9.0110 -847.8750   10.0420 C.ar   72  PHE72      -0.0003
    133  CZ        -9.8850 -848.9410   10.0770 C.ar   72  PHE72      -0.0000
@<TRIPOS>BOND
     1    83    82   ar
     2    84    82   ar
     3    82    81    1
     4    81    80    1
     5    80    77    1
     6    78    77    1
     7    78    79    2
     8    77    76    1
     9    65    64    2
    10    76    64   am
    11    85    86    1
    12    64    63    1
    13    91    90   ar
    14    57    56    2
    15    58    59    1
    16    58    55    1
    17    59    61   am
    18    59    60    2
    19    56    55    1
    20    56    62   am
    21    90    92   ar
    22    90    89    1
    23    55    54    1
    24    86    89    1
    25    86    87    1
    26    63    62    1
    27    63    66    1
    28   112   110    1
    29   111   110    1
    30    87    88    2
    31   110   109    2
    32    66    67    1
    33    54    47   am
    34    53    52    1
    35   101    99   ar
    36   100    99   ar
    37   109   108    1
    38    99    98    1
    39    48    47    2
    40    47    46    1
    41   108   107    1
    42    67    68   ar
    43    67    69   ar
    44    52    51    1
    45    98    97    1
    46    50    51    1
    47    50    49    1
    48   121   122   ar
    49   121   119   ar
    50    72    69   ar
    51    72    74   ar
    52   122   120   ar
    53    68    70   ar
    54    69    71   ar
    55    49    46    1
    56    46    45    1
    57   107   106    1
    58    74    75   ar
    59    97    94    1
    60   119   118   ar
    61    16    14   am
    62   120   118   ar
    63    45    39   am
    64    70    71   ar
    65    71    73   ar
    66    94    93    1
    67    94    95    1
    68   106   103    1
    69   118   117    1
    70    13    14    1
    71    13    12    1
    72    75    73   ar
    73     8     9    1
    74    14    15    2
    75    39    40    2
    76    39    38    1
    77    44    42    1
    78    95    96    2
    79   103   104    1
    80   103   102    1
    81     9    12    1
    82     9    10    1
    83   105   104    2
    84   104   113   am
    85    38    41    1
    86    38    37    1
    87    41    42    1
    88   117   114    1
    89   113   114    1
    90   114   115    1
    91    42    43    1
    92    10    17   am
    93    10    11    2
    94    31    30    2
    95    37    30   am
    96    17    18    1
    97    22    21    1
    98    23    21    1
    99    30    29    1
   100   115   116    2
   101   115   123   am
   102    21    18    1
   103    18    19    1
   104   132   133   ar
   105   132   130   ar
   106   123   124    1
   107   133   131   ar
   108     6     5    1
   109    20    19    2
   110    32    29    1
   111    32    33    1
   112    29    28    1
   113   130   128   ar
   114   131   129   ar
   115    28    26   am
   116   124   125    1
   117   124   127    1
   118     3     4    2
   119     3     2    1
   120   128   129   ar
   121   128   127    1
   122     5     7    1
   123     5     2    1
   124     1     2    1
   125    34    33    1
   126    34    35    1
   127   125   126    2
   128    26    27    2
   129    26    25    1
   130    36    35    1
   131    25    24    1
