@<TRIPOS>MOLECULE
tmp/4wvtA00.pdb
 129 127 0 0 0
SMALL
GASTEIGER

@<TRIPOS>ATOM
      1  N          5.0820    6.8440   -3.5020 N.3    40  THR40      -0.1218
      2  CA         4.5990    8.2000   -3.1900 C.3    40  THR40       0.1862
      3  C          5.1830    9.2130   -4.1890 C.2    40  THR40       0.2287
      4  O          4.8370   10.4030   -4.1260 O.2    40  THR40      -0.2866
      5  CB         5.0110    8.6300   -1.7520 C.3    40  THR40       0.1770
      6  OG1        6.4460    8.6540   -1.6700 O.3    40  THR40      -0.2211
      7  CG2        4.4320    7.7300   -0.6700 C.3    40  THR40       0.0375
      8  N         10.6340    6.3470   -1.1580 N.3    45  GLN45      -0.1231
      9  CA         9.6000    6.3060   -0.1260 C.3    45  GLN45       0.1698
     10  C          8.3430    5.7250   -0.6170 C.2    45  GLN45       0.2592
     11  O          7.7910    6.1740   -1.6070 O.2    45  GLN45      -0.2718
     12  CB         9.3560    7.7030    0.4870 C.3    45  GLN45       0.0381
     13  CG        10.6800    8.4600    0.7870 C.3    45  GLN45       0.0905
     14  CD        10.4780    9.8290    1.3920 C.2    45  GLN45       0.2608
     15  OE1        9.3390   10.2950    1.6100 O.2    45  GLN45      -0.2717
     16  NE2       11.5760   10.4820    1.7240 N.am   45  GLN45      -0.0878
     17  N          7.9130    4.6840    0.0410 N.am   46  VAL46      -0.1980
     18  CA         6.7110    3.9120   -0.2670 C.3    46  VAL46       0.1595
     19  C          5.7840    3.8650    0.9590 C.2    46  VAL46       0.2287
     20  O          6.2200    4.1240    2.0840 O.2    46  VAL46      -0.2864
     21  CB         7.0540    2.4600   -0.7620 C.3    46  VAL46       0.0276
     22  CG1        8.0030    2.4810   -1.9600 C.3    46  VAL46       0.0022
     23  CG2        7.6350    1.6090    0.3760 C.3    46  VAL46       0.0022
     24  N          4.8700    3.8470    6.3550 N.3    54  LYS54      -0.1231
     25  CA         5.7590    4.3900    5.3110 C.3    54  LYS54       0.1693
     26  C          7.1650    3.8640    5.5270 C.2    54  LYS54       0.2592
     27  O          7.5900    3.6590    6.6800 O.2    54  LYS54      -0.2718
     28  CB         5.7710    5.9350    5.3260 C.3    54  LYS54       0.0285
     29  CG         4.3970    6.5600    5.1900 C.3    54  LYS54       0.0035
     30  CD         4.4920    8.1090    5.2650 C.3    54  LYS54       0.0206
     31  CE         3.2160    8.6840    5.8210 C.3    54  LYS54       0.1093
     32  NZ         2.8780    9.9760    5.1740 N.3    54  LYS54      -0.1314
     33  N          7.8340    3.5380    4.4470 N.am   55  LEU55      -0.1966
     34  CA         9.1950    2.9610    4.4870 C.3    55  LEU55       0.1728
     35  C         10.0910    3.6290    3.4920 C.2    55  LEU55       0.2616
     36  O          9.7050    3.8630    2.3290 O.2    55  LEU55      -0.2715
     37  CB         9.1400    1.4360    4.2310 C.3    55  LEU55       0.0311
     38  CG         8.5520    0.5870    5.3590 C.3    55  LEU55       0.0022
     39  CD1        7.9330   -0.7100    4.8000 C.3    55  LEU55       0.0001
     40  CD2        9.6140    0.2900    6.4440 C.3    55  LEU55       0.0001
     41  N         11.2790    3.9960    3.9640 N.am   56  LYS56      -0.1963
     42  CA        12.2350    4.6980    3.1310 C.3    56  LYS56       0.1728
     43  C         13.6800    4.1720    3.3640 C.2    56  LYS56       0.2616
     44  O         13.8710    3.3010    4.2060 O.2    56  LYS56      -0.2715
     45  CB        12.1240    6.2100    3.3860 C.3    56  LYS56       0.0311
     46  CG        12.7290    6.7040    4.6950 C.3    56  LYS56       0.0038
     47  CD        12.5060    8.2330    4.7890 C.3    56  LYS56       0.0206
     48  CE        13.1620    8.8670    6.0020 C.3    56  LYS56       0.1093
     49  NZ        13.2690   10.3330    5.8340 N.3    56  LYS56      -0.1314
     50  N         14.6730    4.6610    2.5780 N.am   57  ASN57      -0.1958
     51  CA        16.0840    4.2590    2.7190 C.3    57  ASN57       0.1819
     52  C         16.2440    2.7350    2.6230 C.2    57  ASN57       0.2621
     53  O         16.7900    2.0710    3.5260 O.2    57  ASN57      -0.2715
     54  CB        16.7060    4.8280    4.0290 C.3    57  ASN57       0.1195
     55  CG        16.5450    6.3330    4.1450 C.2    57  ASN57       0.2630
     56  OD1       16.4540    7.0360    3.1350 O.2    57  ASN57      -0.2716
     57  ND2       16.4580    6.8510    5.3670 N.am   57  ASN57      -0.0877
     58  N         15.7160    2.1840    1.5240 N.am   58  TRP58      -0.1960
     59  CA        15.8120    0.7720    1.2040 C.3    58  TRP58       0.1771
     60  C         17.2610    0.5140    0.9230 C.2    58  TRP58       0.2619
     61  O         17.9550    1.3940    0.4130 O.2    58  TRP58      -0.2715
     62  CB        14.9550    0.4350   -0.0260 C.3    58  TRP58       0.0590
     63  CG        13.4840    0.5280    0.2770 C.ar   58  TRP58       0.0006
     64  CD1       12.6770    1.6120    0.0860 C.ar   58  TRP58       0.0946
     65  CD2       12.6780   -0.4730    0.9120 C.ar   58  TRP58       0.0152
     66  NE1       11.4130    1.3560    0.5750 N.ar   58  TRP58      -0.2442
     67  CE2       11.3710    0.0600    1.0390 C.ar   58  TRP58       0.0810
     68  CE3       12.9230   -1.7990    1.3470 C.ar   58  TRP58       0.0012
     69  CZ2       10.3120   -0.6750    1.5770 C.ar   58  TRP58       0.0191
     70  CZ3       11.8630   -2.5350    1.8710 C.ar   58  TRP58       0.0001
     71  CH2       10.5740   -1.9830    1.9630 C.ar   58  TRP58       0.0015
     72  N         17.7410   -0.6400    1.3670 N.am   59  GLU59      -0.1977
     73  CA        19.1240   -1.0390    1.1980 C.3    59  GLU59       0.1602
     74  C         19.1800   -2.3660    0.4970 C.2    59  GLU59       0.2287
     75  O         18.3280   -3.2420    0.7370 O.2    59  GLU59      -0.2864
     76  CB        19.8250   -1.1740    2.5700 C.3    59  GLU59       0.0415
     77  CG        20.0040    0.1950    3.2080 C.3    59  GLU59       0.1163
     78  CD        20.8410    0.2250    4.4660 C.2    59  GLU59       0.3649
     79  OE1       20.3390   -0.1340    5.5540 O.co2  59  GLU59      -0.2457
     80  OE2       22.0050    0.6600    4.3640 O.co2  59  GLU59      -0.2457
     81  N         17.5310   -5.8760    1.6350 N.3    62  ASP62      -0.1239
     82  CA        16.1790   -5.7980    2.2110 C.3    62  ASP62       0.1674
     83  C         15.1830   -6.6120    1.3850 C.2    62  ASP62       0.2266
     84  O         15.2850   -6.6870    0.1590 O.2    62  ASP62      -0.2867
     85  CB        15.6700   -4.3460    2.2660 C.3    62  ASP62       0.1410
     86  CG        16.3290   -3.4020    3.2620 C.2    62  ASP62       0.3668
     87  OD1       17.0160   -3.8860    4.1960 O.co2  62  ASP62      -0.2456
     88  OD2       16.0810   -2.1970    3.1720 O.co2  62  ASP62      -0.2456
     89  N         10.7440   -6.3630    5.8560 N.3    67  GLU67      -0.1245
     90  CA        10.8580   -4.9870    6.3700 C.3    67  GLU67       0.1567
     91  C          9.4790   -4.4350    6.7940 C.2    67  GLU67       0.2260
     92  O          9.3290   -3.8850    7.9010 O.2    67  GLU67      -0.2867
     93  CB        11.5340   -4.0870    5.3300 C.3    67  GLU67       0.0388
     94  CG        13.0240   -4.3550    5.1560 C.3    67  GLU67       0.1160
     95  CD        13.8210   -4.3110    6.4520 C.2    67  GLU67       0.3649
     96  OE1       14.0370   -3.1920    6.9590 O.co2  67  GLU67      -0.2457
     97  OE2       14.1410   -5.3850    7.0120 O.co2  67  GLU67      -0.2457
     98  N          8.2960   -6.4700   10.0900 N.3    70  ARG70      -0.1231
     99  CA         9.1600   -6.1160   11.2140 C.3    70  ARG70       0.1694
    100  C          8.8380   -4.7290   11.7670 C.2    70  ARG70       0.2592
    101  O          8.8870   -4.5350   12.9750 O.2    70  ARG70      -0.2718
    102  CB        10.6370   -6.1660   10.7270 C.3    70  ARG70       0.0321
    103  CG        11.7050   -5.9640   11.7970 C.3    70  ARG70       0.0489
    104  CD        13.0990   -6.3470   11.3060 C.3    70  ARG70       0.2205
    105  NE        13.6460   -5.4100   10.3220 N.pl3  70  ARG70      -0.0865
    106  CZ        14.2320   -4.2510   10.6220 C.cat  70  ARG70       0.5346
    107  NH1       14.3220   -3.8520   11.8880 N.pl3  70  ARG70       0.1354
    108  NH2       14.7130   -3.4710    9.6590 N.pl3  70  ARG70       0.1354
    109  N          8.6280   -3.7500   10.8980 N.am   71  HIS71      -0.1962
    110  CA         8.3980   -2.3840   11.3680 C.3    71  HIS71       0.1787
    111  C          6.9570   -2.0730   11.6120 C.2    71  HIS71       0.2620
    112  O          6.6780   -1.1520   12.3670 O.2    71  HIS71      -0.2715
    113  CB         9.0120   -1.3550   10.4300 C.3    71  HIS71       0.0785
    114  CG        10.4880   -1.4820   10.2940 C.ar   71  HIS71       0.0821
    115  ND1       11.3220   -1.3680   11.3830 N.ar   71  HIS71      -0.2267
    116  CD2       11.2300   -1.6870    9.1870 C.ar   71  HIS71       0.1154
    117  CE1       12.5440   -1.4560   10.9080 C.ar   71  HIS71       0.1986
    118  NE2       12.5380   -1.6530    9.5860 N.ar   71  HIS71      -0.2212
    119  N          6.0300   -2.8400   10.9950 N.am   72  PHE72      -0.1974
    120  CA         4.5950   -2.6470   11.1750 C.3    72  PHE72       0.1639
    121  C          3.9690   -3.9750   11.5810 C.2    72  PHE72       0.2290
    122  O          3.3040   -4.6230   10.7690 O.2    72  PHE72      -0.2864
    123  CB         3.9430   -1.9840    9.9310 C.3    72  PHE72       0.0560
    124  CG         4.6210   -0.6660    9.6250 C.ar   72  PHE72      -0.0200
    125  CD1        4.3120    0.4850   10.3540 C.ar   72  PHE72      -0.0042
    126  CD2        5.5830   -0.5770    8.6210 C.ar   72  PHE72      -0.0042
    127  CE1        4.9880    1.6860   10.1070 C.ar   72  PHE72      -0.0003
    128  CE2        6.2720    0.6160    8.3880 C.ar   72  PHE72      -0.0003
    129  CZ         5.9400    1.7510    9.0980 C.ar   72  PHE72      -0.0000
@<TRIPOS>BOND
     1     3     4    2
     2     3     2    1
     3     1     2    1
     4     2     5    1
     5    22    21    1
     6     5     6    1
     7     5     7    1
     8    11    10    2
     9     8     9    1
    10    21    18    1
    11    21    23    1
    12    10     9    1
    13    10    17   am
    14    18    17    1
    15    18    19    1
    16     9    12    1
    17    62    63    1
    18    62    59    1
    19    64    63   ar
    20    64    66   ar
    21    84    83    2
    22    63    65   ar
    23    61    60    2
    24    12    13    1
    25    74    75    2
    26    74    73    1
    27    66    67   ar
    28    13    14    1
    29    65    67   ar
    30    65    68   ar
    31    60    59    1
    32    60    72   am
    33    19    20    2
    34    67    69   ar
    35    73    72    1
    36    73    76    1
    37    59    58    1
    38    68    70   ar
    39    83    82    1
    40    14    15    2
    41    14    16   am
    42    58    52   am
    43    69    71   ar
    44    81    82    1
    45    70    71   ar
    46    82    85    1
    47    85    86    1
    48    36    35    2
    49    76    77    1
    50    50    51    1
    51    50    43   am
    52    52    51    1
    53    52    53    2
    54    51    54    1
    55    42    43    1
    56    42    45    1
    57    42    41    1
    58    56    55    2
    59    88    86   ar
    60    77    78    1
    61    86    87   ar
    62    43    44    2
    63    45    46    1
    64    35    41   am
    65    35    34    1
    66    54    55    1
    67    55    57   am
    68    37    34    1
    69    37    38    1
    70    80    78   ar
    71    33    34    1
    72    33    26   am
    73    78    79   ar
    74    46    47    1
    75    47    48    1
    76    39    38    1
    77    94    93    1
    78    94    95    1
    79    32    31    1
    80    29    30    1
    81    29    28    1
    82    30    31    1
    83    25    28    1
    84    25    26    1
    85    25    24    1
    86    93    90    1
    87    38    40    1
    88    26    27    2
    89    49    48    1
    90    89    90    1
    91    90    91    1
    92    95    96   ar
    93    95    97   ar
    94    91    92    2
    95   128   126   ar
    96   128   129   ar
    97   126   124   ar
    98   129   127   ar
    99   116   118   ar
   100   116   114   ar
   101   118   117   ar
   102   124   123    1
   103   124   125   ar
   104   108   106    1
   105   123   120    1
   106    98    99    1
   107   127   125   ar
   108   114   113    1
   109   114   115   ar
   110   105   106    2
   111   105   104    1
   112   113   110    1
   113   106   107    1
   114   102    99    1
   115   102   103    1
   116   122   121    2
   117   109   110    1
   118   109   100   am
   119   117   115   ar
   120   119   120    1
   121   119   111   am
   122   120   121    1
   123    99   100    1
   124   104   103    1
   125   110   111    1
   126   111   112    2
   127   100   101    2
