@<TRIPOS>MOLECULE
tmp/4wvuA00.pdb
 129 127 0 0 0
SMALL
GASTEIGER

@<TRIPOS>ATOM
      1  N         -3.6840   -2.6280    4.7790 N.3    40  THR40      -0.1218
      2  CA        -3.2810   -3.9730    4.3090 C.3    40  THR40       0.1862
      3  C         -4.2670   -5.0560    4.7820 C.2    40  THR40       0.2287
      4  O         -4.1000   -6.2340    4.4460 O.2    40  THR40      -0.2866
      5  CB        -1.8860   -4.3590    4.8390 C.3    40  THR40       0.1770
      6  OG1       -1.9390   -4.4590    6.2700 O.3    40  THR40      -0.2211
      7  CG2       -0.7440   -3.4380    4.3230 C.3    40  THR40       0.0375
      8  N         -1.9000   -2.1410   10.4040 N.3    45  GLN45      -0.1231
      9  CA        -0.7800   -2.0660    9.4840 C.3    45  GLN45       0.1698
     10  C         -1.1810   -1.4460    8.1620 C.2    45  GLN45       0.2592
     11  O         -2.0850   -1.9380    7.4770 O.2    45  GLN45      -0.2718
     12  CB        -0.1310   -3.4540    9.3140 C.3    45  GLN45       0.0381
     13  CG         0.2140   -4.1190   10.6700 C.3    45  GLN45       0.0905
     14  CD         0.8370   -5.4750   10.5030 C.2    45  GLN45       0.2608
     15  OE1        1.0760   -5.9440    9.3890 O.2    45  GLN45      -0.2717
     16  NE2        1.0290   -6.1960   11.6040 N.am   45  GLN45      -0.0878
     17  N         -0.5480   -0.3130    7.8560 N.am   46  VAL46      -0.1980
     18  CA        -0.7780    0.4500    6.6200 C.3    46  VAL46       0.1595
     19  C          0.4620    0.4940    5.7530 C.2    46  VAL46       0.2287
     20  O          1.5750    0.3260    6.2590 O.2    46  VAL46      -0.2864
     21  CB        -1.2900    1.8870    6.9080 C.3    46  VAL46       0.0276
     22  CG1       -2.6180    1.8570    7.6670 C.3    46  VAL46       0.0022
     23  CG2       -0.2270    2.7200    7.6210 C.3    46  VAL46       0.0022
     24  N          6.0560    0.6630    5.2590 N.3    54  LYS54      -0.1231
     25  CA         5.0540    0.0030    6.0820 C.3    54  LYS54       0.1693
     26  C          5.0420    0.5790    7.4990 C.2    54  LYS54       0.2592
     27  O          6.1100    0.6870    8.1110 O.2    54  LYS54      -0.2718
     28  CB         5.2550   -1.5160    6.1090 C.3    54  LYS54       0.0285
     29  CG         5.1540   -2.2190    4.7390 C.3    54  LYS54       0.0035
     30  CD         5.7120   -3.6540    4.7990 C.3    54  LYS54       0.0206
     31  CE         5.9160   -4.2670    3.4200 C.3    54  LYS54       0.1093
     32  NZ         6.5660   -5.6220    3.4940 N.3    54  LYS54      -0.1314
     33  N          3.8260    0.9000    8.0290 N.am   55  LEU55      -0.1966
     34  CA         3.7050    1.4630    9.3780 C.3    55  LEU55       0.1728
     35  C          2.6480    0.7350   10.2120 C.2    55  LEU55       0.2616
     36  O          1.5740    0.4210    9.7110 O.2    55  LEU55      -0.2715
     37  CB         3.3550    2.9680    9.3030 C.3    55  LEU55       0.0311
     38  CG         4.4690    3.8900    8.8000 C.3    55  LEU55       0.0022
     39  CD1        3.9060    5.2430    8.3930 C.3    55  LEU55       0.0001
     40  CD2        5.6340    3.9960    9.8490 C.3    55  LEU55       0.0001
     41  N          2.9330    0.5400   11.5070 N.am   56  LYS56      -0.1963
     42  CA         2.0410   -0.1470   12.4300 C.3    56  LYS56       0.1728
     43  C          2.2020    0.3970   13.8370 C.2    56  LYS56       0.2616
     44  O          2.9860    1.3260   14.0620 O.2    56  LYS56      -0.2715
     45  CB         2.3040   -1.6790   12.4030 C.3    56  LYS56       0.0311
     46  CG         3.6590   -2.1140   12.9770 C.3    56  LYS56       0.0038
     47  CD         3.7590   -3.6400   13.1060 C.3    56  LYS56       0.0206
     48  CE         5.1750   -4.0980   13.4160 C.3    56  LYS56       0.1093
     49  NZ         5.5050   -3.9680   14.8400 N.3    56  LYS56      -0.1314
     50  N          1.4370   -0.1690   14.7840 N.am   57  ASN57      -0.1958
     51  CA         1.4490    0.2280   16.1970 C.3    57  ASN57       0.1819
     52  C          1.2980    1.7460   16.3730 C.2    57  ASN57       0.2621
     53  O          2.1040    2.3990   17.0520 O.2    57  ASN57      -0.2715
     54  CB         2.6620   -0.3370   16.9290 C.3    57  ASN57       0.1195
     55  CG         2.8480   -1.8060   16.7480 C.2    57  ASN57       0.2630
     56  OD1        3.9640   -2.2750   16.6540 O.2    57  ASN57      -0.2716
     57  ND2        1.7600   -2.5500   16.6330 N.am   57  ASN57      -0.0877
     58  N          0.2410    2.2890   15.7300 N.am   58  TRP58      -0.1960
     59  CA        -0.1650    3.7020   15.7840 C.3    58  TRP58       0.1771
     60  C         -0.5630    4.0150   17.2340 C.2    58  TRP58       0.2619
     61  O         -1.1790    3.1870   17.9160 O.2    58  TRP58      -0.2715
     62  CB        -1.3560    3.9220   14.8560 C.3    58  TRP58       0.0590
     63  CG        -0.9580    3.8580   13.4060 C.ar   58  TRP58       0.0006
     64  CD1       -1.0010    2.7610   12.5910 C.ar   58  TRP58       0.0946
     65  CD2       -0.3520    4.9110   12.6380 C.ar   58  TRP58       0.0152
     66  NE1       -0.4520    3.0610   11.3650 N.ar   58  TRP58      -0.2442
     67  CE2       -0.0280    4.3700   11.3700 C.ar   58  TRP58       0.0810
     68  CE3        0.0370    6.2380   12.9300 C.ar   58  TRP58       0.0012
     69  CZ2        0.5600    5.1390   10.3570 C.ar   58  TRP58       0.0191
     70  CZ3        0.6360    6.9920   11.9360 C.ar   58  TRP58       0.0001
     71  CH2        0.8820    6.4470   10.6590 C.ar   58  TRP58       0.0015
     72  N         -0.1610    5.1740   17.7220 N.am   59  GLU59      -0.1977
     73  CA        -0.4620    5.5100   19.1150 C.3    59  GLU59       0.1602
     74  C         -1.1780    6.8370   19.1190 C.2    59  GLU59       0.2287
     75  O         -0.8350    7.6830   18.2660 O.2    59  GLU59      -0.2864
     76  CB         0.8450    5.6630   19.9080 C.3    59  GLU59       0.0415
     77  CG         1.5860    4.3710   20.2230 C.3    59  GLU59       0.1163
     78  CD         2.9280    4.5660   20.9140 C.2    59  GLU59       0.3649
     79  OE1        3.0520    5.5220   21.7080 O.co2  59  GLU59      -0.2457
     80  OE2        3.8560    3.7610   20.6740 O.co2  59  GLU59      -0.2457
     81  N          0.0700   10.3750   17.4530 N.3    62  ASP62      -0.1239
     82  CA         0.7670   10.2760   16.1580 C.3    62  ASP62       0.1674
     83  C          0.0410   11.0820   15.1290 C.2    62  ASP62       0.2266
     84  O         -1.1920   11.1280   15.1210 O.2    62  ASP62      -0.2867
     85  CB         0.8000    8.8080   15.6260 C.3    62  ASP62       0.1410
     86  CG         1.7500    7.8400   16.3180 C.2    62  ASP62       0.3668
     87  OD1        2.6030    8.3000   17.1100 O.co2  62  ASP62      -0.2456
     88  OD2        1.6390    6.6210   16.0700 O.co2  62  ASP62      -0.2456
     89  N          4.7870   10.7230   11.0390 N.3    67  GLU67      -0.1245
     90  CA         5.3440    9.3770   11.1810 C.3    67  GLU67       0.1567
     91  C          5.8550    8.8850    9.8300 C.2    67  GLU67       0.2260
     92  O          6.9370    8.3100    9.7560 O.2    67  GLU67      -0.2867
     93  CB         4.2830    8.3850   11.7180 C.3    67  GLU67       0.0388
     94  CG         3.8700    8.6260   13.1690 C.3    67  GLU67       0.1160
     95  CD         5.0290    8.6530   14.1410 C.2    67  GLU67       0.3649
     96  OE1        5.5350    7.5650   14.5120 O.co2  67  GLU67      -0.2457
     97  OE2        5.4200    9.7690   14.5490 O.co2  67  GLU67      -0.2457
     98  N          9.0490   11.0910    8.8620 N.3    70  ARG70      -0.1231
     99  CA        10.1900   10.8300    9.7450 C.3    70  ARG70       0.1694
    100  C         10.8070    9.4310    9.5060 C.2    70  ARG70       0.2592
    101  O         12.0190    9.3020    9.5360 O.2    70  ARG70      -0.2718
    102  CB         9.8330   11.0950   11.2220 C.3    70  ARG70       0.0321
    103  CG         9.3080    9.9440   12.0580 C.3    70  ARG70       0.0489
    104  CD         8.9930   10.4190   13.4750 C.3    70  ARG70       0.2205
    105  NE         8.2430    9.4150   14.2430 N.pl3  70  ARG70      -0.0865
    106  CZ         8.8010    8.5340   15.0710 C.cat  70  ARG70       0.5346
    107  NH1       10.1200    8.5110   15.2380 N.pl3  70  ARG70       0.1354
    108  NH2        8.0440    7.6560   15.7290 N.pl3  70  ARG70       0.1354
    109  N          9.9720    8.4270    9.2100 N.am   71  HIS71      -0.1962
    110  CA        10.4310    7.0600    9.0030 C.3    71  HIS71       0.1787
    111  C         10.8390    6.7440    7.5760 C.2    71  HIS71       0.2620
    112  O         11.6780    5.8660    7.3640 O.2    71  HIS71      -0.2715
    113  CB         9.3740    6.0650    9.4920 C.3    71  HIS71       0.0785
    114  CG         9.1920    6.0510   10.9910 C.ar   71  HIS71       0.0821
    115  ND1       10.2850    5.9780   11.8610 N.ar   71  HIS71      -0.2267
    116  CD2        8.0510    6.0240   11.7200 C.ar   71  HIS71       0.1154
    117  CE1        9.7720    5.9560   13.0840 C.ar   71  HIS71       0.1986
    118  NE2        8.4310    5.9510   13.0510 N.ar   71  HIS71      -0.2212
    119  N         10.2830    7.4670    6.6030 N.am   72  PHE72      -0.1974
    120  CA        10.5880    7.2150    5.1910 C.3    72  PHE72       0.1639
    121  C         11.0610    8.4790    4.4930 C.2    72  PHE72       0.2290
    122  O         10.2870    9.0720    3.7360 O.2    72  PHE72      -0.2864
    123  CB         9.3960    6.5180    4.4700 C.3    72  PHE72       0.0560
    124  CG         9.0460    5.1900    5.1320 C.ar   72  PHE72      -0.0200
    125  CD1        9.8390    4.0610    4.9350 C.ar   72  PHE72      -0.0042
    126  CD2        7.9620    5.0890    5.9910 C.ar   72  PHE72      -0.0042
    127  CE1        9.5630    2.8630    5.6060 C.ar   72  PHE72      -0.0003
    128  CE2        7.6700    3.8800    6.6400 C.ar   72  PHE72      -0.0003
    129  CZ         8.4650    2.7780    6.4340 C.ar   72  PHE72      -0.0000
@<TRIPOS>BOND
     1    31    32    1
     2    31    30    1
     3   122   121    2
     4     2     1    1
     5     2     3    1
     6     2     5    1
     7     7     5    1
     8     4     3    2
     9   123   124    1
    10   123   120    1
    11   121   120    1
    12    29    30    1
    13    29    28    1
    14     5     6    1
    15   125   124   ar
    16   125   127   ar
    17   124   126   ar
    18   120   119    1
    19    24    25    1
    20   127   129   ar
    21    19    20    2
    22    19    18    1
    23   126   128   ar
    24    25    28    1
    25    25    26    1
    26   129   128   ar
    27   119   111   am
    28    18    21    1
    29    18    17    1
    30    21    23    1
    31    21    22    1
    32   112   111    2
    33    11    10    2
    34    26    33   am
    35    26    27    2
    36   111   110    1
    37    17    10   am
    38    33    34    1
    39    10     9    1
    40    39    38    1
    41    38    37    1
    42    38    40    1
    43    98    99    1
    44   110   109    1
    45   110   113    1
    46   109   100   am
    47    37    34    1
    48    12     9    1
    49    12    13    1
    50    34    35    1
    51    15    14    2
    52     9     8    1
    53   113   114    1
    54   100   101    2
    55   100    99    1
    56    36    35    2
    57    99   102    1
    58    92    91    2
    59    91    90    1
    60    35    41   am
    61    69    71   ar
    62    69    67   ar
    63    14    13    1
    64    14    16   am
    65    71    70   ar
    66   114   116   ar
    67   114   115   ar
    68    89    90    1
    69    90    93    1
    70   102   103    1
    71    66    67   ar
    72    66    64   ar
    73    67    65   ar
    74    41    42    1
    75    93    94    1
    76   116   118   ar
    77   115   117   ar
    78    70    68   ar
    79   103   104    1
    80    45    42    1
    81    45    46    1
    82    42    43    1
    83    64    63   ar
    84    65    68   ar
    85    65    63   ar
    86    46    47    1
    87   118   117   ar
    88    47    48    1
    89    94    95    1
    90    63    62    1
    91    48    49    1
    92   104   105    1
    93    43    44    2
    94    43    50   am
    95    95    96   ar
    96    95    97   ar
    97   105   106    2
    98    50    51    1
    99    62    59    1
   100   106   107    1
   101   106   108    1
   102    84    83    2
   103    83    82    1
   104    85    82    1
   105    85    86    1
   106    58    59    1
   107    58    52   am
   108    59    60    1
   109    88    86   ar
   110    82    81    1
   111    51    52    1
   112    51    54    1
   113    86    87   ar
   114    52    53    2
   115    57    55   am
   116    56    55    2
   117    55    54    1
   118    60    72   am
   119    60    61    2
   120    72    73    1
   121    75    74    2
   122    73    74    1
   123    73    76    1
   124    76    77    1
   125    77    78    1
   126    80    78   ar
   127    78    79   ar
