@<TRIPOS>MOLECULE
tmp/4wvvA00.pdb
 98 91 0 0 0
SMALL
GASTEIGER

@<TRIPOS>ATOM
      1  N          7.2320   22.6990   -9.5950 N.3    36  ARG36      -0.1245
      2  CA         7.1200   21.8090   -8.4530 C.3    36  ARG36       0.1563
      3  C          5.7440   21.9720   -7.8360 C.2    36  ARG36       0.2260
      4  O          5.0460   22.9670   -8.0980 O.2    36  ARG36      -0.2867
      5  CB         8.1770   22.1450   -7.4000 C.3    36  ARG36       0.0307
      6  CG         8.1010   23.5490   -6.8510 C.3    36  ARG36       0.0489
      7  CD         9.0960   23.7220   -5.7190 C.3    36  ARG36       0.2205
      8  NE         8.5130   23.4450   -4.4090 N.pl3  36  ARG36      -0.0865
      9  CZ         9.2260   23.3160   -3.2900 C.cat  36  ARG36       0.5346
     10  NH1       10.5420   23.3670   -3.3240 N.pl3  36  ARG36       0.1354
     11  NH2        8.6230   23.1080   -2.1440 N.pl3  36  ARG36       0.1354
     12  N          3.6140   20.4770   -3.9000 N.3    38  GLN38      -0.1245
     13  CA         3.7650   19.6680   -2.7130 C.3    38  GLN38       0.1566
     14  C          2.4300   19.2840   -2.1050 C.2    38  GLN38       0.2260
     15  O          1.4390   20.0150   -2.2070 O.2    38  GLN38      -0.2867
     16  CB         4.6450   20.3650   -1.6770 C.3    38  GLN38       0.0367
     17  CG         3.9970   21.5820   -1.0530 C.3    38  GLN38       0.0905
     18  CD         5.0330   22.5980   -0.5890 C.2    38  GLN38       0.2608
     19  OE1        5.7810   23.1390   -1.3920 O.2    38  GLN38      -0.2717
     20  NE2        5.0930   22.8490    0.7030 N.am   38  GLN38      -0.0878
     21  N          4.9390   28.9080   11.4010 N.3    50  ARG50      -0.1245
     22  CA         4.4730   27.9630   10.4040 C.3    50  ARG50       0.1563
     23  C          4.1720   26.5920   11.0000 C.2    50  ARG50       0.2260
     24  O          4.9990   26.0330   11.7160 O.2    50  ARG50      -0.2867
     25  CB         5.5150   27.8190    9.3090 C.3    50  ARG50       0.0307
     26  CG         5.0680   26.8960    8.2180 C.3    50  ARG50       0.0489
     27  CD         6.0370   26.9120    7.0660 C.3    50  ARG50       0.2205
     28  NE         5.7030   25.8740    6.1030 N.pl3  50  ARG50      -0.0865
     29  CZ         6.4900   25.5370    5.0870 C.cat  50  ARG50       0.5346
     30  NH1        7.6390   26.1750    4.9060 N.pl3  50  ARG50       0.1354
     31  NH2        6.1350   24.5650    4.2550 N.pl3  50  ARG50       0.1354
     32  N          6.0700   16.0550    4.0920 N.3    56  HIS56      -0.1241
     33  CA         6.1750   16.9560    2.9530 C.3    56  HIS56       0.1621
     34  C          6.5960   16.1010    1.7700 C.2    56  HIS56       0.2264
     35  O          7.6650   15.5150    1.7980 O.2    56  HIS56      -0.2867
     36  CB         7.2320   18.0080    3.2770 C.3    56  HIS56       0.0745
     37  CG         7.6360   18.8970    2.1390 C.ar   56  HIS56       0.0817
     38  ND1        6.8230   19.8830    1.6250 N.ar   56  HIS56      -0.2268
     39  CD2        8.8200   19.0200    1.4850 C.ar   56  HIS56       0.1154
     40  CE1        7.4940   20.5730    0.7160 C.ar   56  HIS56       0.1986
     41  NE2        8.7040   20.0610    0.6030 N.ar   56  HIS56      -0.2212
     42  N          7.2090   16.3450   -2.2090 N.3    58  ASN58      -0.1240
     43  CA         7.5050   17.5000   -3.0590 C.3    58  ASN58       0.1653
     44  C          8.1500   17.0970   -4.3870 C.2    58  ASN58       0.2266
     45  O          9.3780   17.1010   -4.5330 O.2    58  ASN58      -0.2867
     46  CB         8.4190   18.4520   -2.2740 C.3    58  ASN58       0.1155
     47  CG         8.8470   19.7040   -3.0250 C.2    58  ASN58       0.2627
     48  OD1        9.9310   20.2270   -2.7600 O.2    58  ASN58      -0.2716
     49  ND2        8.0150   20.2230   -3.9020 N.am   58  ASN58      -0.0877
     50  N          9.6060   17.7020   -7.9350 N.3    60  ARG60      -0.1245
     51  CA        10.3270   18.8130   -8.5470 C.3    60  ARG60       0.1563
     52  C         10.7010   18.4130   -9.9630 C.2    60  ARG60       0.2260
     53  O         11.3160   17.3790  -10.1660 O.2    60  ARG60      -0.2867
     54  CB        11.5960   19.1660   -7.7610 C.3    60  ARG60       0.0307
     55  CG        11.3280   19.5730   -6.3470 C.3    60  ARG60       0.0489
     56  CD        12.6080   19.8680   -5.5960 C.3    60  ARG60       0.2205
     57  NE        12.3190   20.2290   -4.2110 N.pl3  60  ARG60      -0.0865
     58  CZ        13.2380   20.6000   -3.3340 C.cat  60  ARG60       0.5346
     59  NH1       14.5190   20.6540   -3.6890 N.pl3  60  ARG60       0.1354
     60  NH2       12.8760   20.9280   -2.1010 N.pl3  60  ARG60       0.1354
     61  N         11.2990   15.1060   -3.4330 N.3    68  VAL68      -0.1245
     62  CA        11.9110   15.3530   -2.1440 C.3    68  VAL68       0.1561
     63  C         10.8550   15.1740   -1.0590 C.2    68  VAL68       0.2260
     64  O          9.7690   15.7470   -1.1440 O.2    68  VAL68      -0.2867
     65  CB        12.4770   16.7890   -2.0720 C.3    68  VAL68       0.0252
     66  CG1       13.0310   17.1030   -0.6750 C.3    68  VAL68       0.0019
     67  CG2       13.5610   16.9670   -3.1250 C.3    68  VAL68       0.0019
     68  N         10.3910   15.3230    3.3000 N.3    70  ASN70      -0.1240
     69  CA        10.9920   15.8350    4.5200 C.3    70  ASN70       0.1653
     70  C          9.8910   16.1060    5.5410 C.2    70  ASN70       0.2266
     71  O          8.7110   15.9010    5.2800 O.2    70  ASN70      -0.2867
     72  CB        11.7800   17.1270    4.1990 C.3    70  ASN70       0.1155
     73  CG        12.9770   17.3610    5.1090 C.2    70  ASN70       0.2627
     74  OD1       13.0780   16.8020    6.1910 O.2    70  ASN70      -0.2716
     75  ND2       13.8610   18.2620    4.6830 N.am   70  ASN70      -0.0877
     76  N         13.5810   22.4130    8.7100 N.3    77  TRP77      -0.1241
     77  CA        13.5470   21.2060    7.8970 C.3    77  TRP77       0.1605
     78  C         14.5290   20.1680    8.4190 C.2    77  TRP77       0.2264
     79  O         15.6220   20.5140    8.8700 O.2    77  TRP77      -0.2867
     80  CB        13.8830   21.5260    6.4420 C.3    77  TRP77       0.0550
     81  CG        12.7880   22.2750    5.7240 C.ar   77  TRP77       0.0003
     82  CD1       12.8150   23.5720    5.3110 C.ar   77  TRP77       0.0946
     83  CD2       11.4990   21.7670    5.3580 C.ar   77  TRP77       0.0152
     84  NE1       11.6350   23.8930    4.6920 N.ar   77  TRP77      -0.2442
     85  CE2       10.8040   22.8040    4.7180 C.ar   77  TRP77       0.0810
     86  CE3       10.8730   20.5270    5.4950 C.ar   77  TRP77       0.0012
     87  CZ2        9.5020   22.6430    4.2220 C.ar   77  TRP77       0.0191
     88  CZ3        9.5870   20.3680    5.0020 C.ar   77  TRP77       0.0001
     89  CH2        8.9180   21.4150    4.3800 C.ar   77  TRP77       0.0015
     90  N         16.5830   15.6380    4.1140 N.3    80  GLU80      -0.1245
     91  CA        15.7990   15.3040    2.9350 C.3    80  GLU80       0.1567
     92  C         15.9770   13.8420    2.5770 C.2    80  GLU80       0.2260
     93  O         17.0730   13.3020    2.6740 O.2    80  GLU80      -0.2867
     94  CB        16.2390   16.1520    1.7480 C.3    80  GLU80       0.0388
     95  CG        15.8170   17.5900    1.8820 C.3    80  GLU80       0.1160
     96  CD        16.1720   18.4720    0.6930 C.2    80  GLU80       0.3649
     97  OE1       17.0690   18.1180   -0.1060 O.co2  80  GLU80      -0.2457
     98  OE2       15.5610   19.5550    0.5750 O.co2  80  GLU80      -0.2457
@<TRIPOS>BOND
     1    53    52    2
     2    52    51    1
     3     1     2    1
     4    51    50    1
     5    51    54    1
     6     2     3    1
     7     2     5    1
     8     4     3    2
     9    54    55    1
    10     5     6    1
    11     6     7    1
    12    55    56    1
    13     7     8    1
    14    56    57    1
    15    45    44    2
    16     8     9    2
    17    44    43    1
    18    57    58    2
    19    49    47   am
    20    12    13    1
    21    59    58    1
    22    61    62    1
    23    58    60    1
    24    10     9    1
    25     9    11    1
    26    67    65    1
    27    43    46    1
    28    43    42    1
    29    47    48    2
    30    47    46    1
    31    13    14    1
    32    13    16    1
    33    15    14    2
    34    62    65    1
    35    62    63    1
    36    65    66    1
    37    16    17    1
    38    19    18    2
    39    64    63    2
    40    17    18    1
    41    18    20   am
    42    97    96   ar
    43    98    96   ar
    44    41    40   ar
    45    41    39   ar
    46    96    95    1
    47    40    38   ar
    48    39    37   ar
    49    38    37   ar
    50    94    95    1
    51    94    91    1
    52    34    35    2
    53    34    33    1
    54    37    36    1
    55    92    93    2
    56    92    91    1
    57    91    90    1
    58    33    36    1
    59    33    32    1
    60    68    69    1
    61    72    69    1
    62    72    73    1
    63    87    89   ar
    64    87    85   ar
    65    31    29    1
    66    89    88   ar
    67    69    70    1
    68    75    73   am
    69    84    85   ar
    70    84    82   ar
    71    85    83   ar
    72    30    29    1
    73    88    86   ar
    74    29    28    2
    75    73    74    2
    76    71    70    2
    77    82    81   ar
    78    83    86   ar
    79    83    81   ar
    80    81    80    1
    81    28    27    1
    82    80    77    1
    83    27    26    1
    84    77    78    1
    85    77    76    1
    86    26    25    1
    87    78    79    2
    88    25    22    1
    89    22    23    1
    90    22    21    1
    91    23    24    2
