@<TRIPOS>MOLECULE
tmp/4wvwA00.pdb
 110 103 0 0 0
SMALL
GASTEIGER

@<TRIPOS>ATOM
      1  N          7.4970   22.7110   -9.8200 N.3    36  ARG36      -0.1245
      2  CA         7.4070   21.8370   -8.6620 C.3    36  ARG36       0.1563
      3  C          6.0200   21.9550   -8.0530 C.2    36  ARG36       0.2260
      4  O          5.2900   22.9160   -8.3300 O.2    36  ARG36      -0.2867
      5  CB         8.4510   22.2350   -7.6130 C.3    36  ARG36       0.0307
      6  CG         8.3710   23.6860   -7.1730 C.3    36  ARG36       0.0489
      7  CD         9.2590   23.9460   -5.9570 C.3    36  ARG36       0.2205
      8  NE         8.6210   23.5270   -4.7140 N.pl3  36  ARG36      -0.0865
      9  CZ         9.2840   23.2930   -3.5860 C.cat  36  ARG36       0.5346
     10  NH1       10.6040   23.4020   -3.5650 N.pl3  36  ARG36       0.1354
     11  NH2        8.6320   22.9310   -2.4940 N.pl3  36  ARG36       0.1354
     12  N          3.8730   20.4610   -4.1170 N.3    38  GLN38      -0.1245
     13  CA         4.0470   19.6860   -2.9010 C.3    38  GLN38       0.1566
     14  C          2.7250   19.2870   -2.2800 C.2    38  GLN38       0.2260
     15  O          1.7280   20.0110   -2.3920 O.2    38  GLN38      -0.2867
     16  CB         4.9020   20.4340   -1.8730 C.3    38  GLN38       0.0367
     17  CG         4.2020   21.6080   -1.2010 C.3    38  GLN38       0.0905
     18  CD         5.1730   22.7040   -0.8220 C.2    38  GLN38       0.2608
     19  OE1        5.8330   23.2870   -1.6920 O.2    38  GLN38      -0.2717
     20  NE2        5.2840   22.9870    0.4760 N.am   38  GLN38      -0.0878
     21  N          4.9260   28.9940   11.2140 N.3    50  ARG50      -0.1245
     22  CA         4.4660   28.0480   10.2160 C.3    50  ARG50       0.1563
     23  C          4.1670   26.6750   10.8030 C.2    50  ARG50       0.2260
     24  O          4.9610   26.1310   11.5770 O.2    50  ARG50      -0.2867
     25  CB         5.4930   27.9160    9.1000 C.3    50  ARG50       0.0307
     26  CG         5.0240   27.0510    7.9690 C.3    50  ARG50       0.0489
     27  CD         6.0740   26.9490    6.9090 C.3    50  ARG50       0.2205
     28  NE         5.7190   25.9420    5.9240 N.pl3  50  ARG50      -0.0865
     29  CZ         6.4970   25.6150    4.8990 C.cat  50  ARG50       0.5346
     30  NH1        7.6630   26.2330    4.7390 N.pl3  50  ARG50       0.1354
     31  NH2        6.1050   24.6860    4.0340 N.pl3  50  ARG50       0.1354
     32  N          6.3310   16.1060    3.9370 N.3    56  HIS56      -0.1241
     33  CA         6.4150   16.9990    2.7800 C.3    56  HIS56       0.1621
     34  C          6.8100   16.1140    1.6240 C.2    56  HIS56       0.2264
     35  O          7.8910   15.5030    1.6540 O.2    56  HIS56      -0.2867
     36  CB         7.5310   18.0060    3.0670 C.3    56  HIS56       0.0745
     37  CG         7.8750   18.9410    1.9430 C.ar   56  HIS56       0.0817
     38  ND1        7.0120   19.9160    1.4840 N.ar   56  HIS56      -0.2268
     39  CD2        9.0340   19.1220    1.2660 C.ar   56  HIS56       0.1154
     40  CE1        7.6170   20.6380    0.5550 C.ar   56  HIS56       0.1986
     41  NE2        8.8460   20.1760    0.4020 N.ar   56  HIS56      -0.2212
     42  N          7.4530   16.3320   -2.3430 N.3    58  ASN58      -0.1240
     43  CA         7.7600   17.4840   -3.2010 C.3    58  ASN58       0.1653
     44  C          8.4460   17.0860   -4.5110 C.2    58  ASN58       0.2266
     45  O          9.6840   17.1100   -4.6170 O.2    58  ASN58      -0.2867
     46  CB         8.5910   18.4920   -2.3910 C.3    58  ASN58       0.1155
     47  CG         9.1300   19.6550   -3.2160 C.2    58  ASN58       0.2627
     48  OD1       10.2320   20.1360   -2.9500 O.2    58  ASN58      -0.2716
     49  ND2        8.3590   20.1290   -4.1980 N.am   58  ASN58      -0.0877
     50  N          9.9850   17.7180   -8.0340 N.3    60  ARG60      -0.1245
     51  CA        10.6680   18.8460   -8.6580 C.3    60  ARG60       0.1563
     52  C         11.0350   18.4410  -10.0670 C.2    60  ARG60       0.2260
     53  O         11.6860   17.4130  -10.2680 O.2    60  ARG60      -0.2867
     54  CB        11.9380   19.2050   -7.8820 C.3    60  ARG60       0.0307
     55  CG        11.6540   19.6580   -6.4580 C.3    60  ARG60       0.0489
     56  CD        12.9210   19.9060   -5.6760 C.3    60  ARG60       0.2205
     57  NE        12.6010   20.3220   -4.3090 N.pl3  60  ARG60      -0.0865
     58  CZ        13.4920   20.7530   -3.4220 C.cat  60  ARG60       0.5346
     59  NH1       14.7770   20.8420   -3.7360 N.pl3  60  ARG60       0.1354
     60  NH2       13.0830   21.1050   -2.2110 N.pl3  60  ARG60       0.1354
     61  N         11.5880   15.1820   -3.5060 N.3    68  VAL68      -0.1245
     62  CA        12.1840   15.4690   -2.2050 C.3    68  VAL68       0.1561
     63  C         11.1500   15.2410   -1.1170 C.2    68  VAL68       0.2260
     64  O         10.0320   15.7430   -1.2050 O.2    68  VAL68      -0.2867
     65  CB        12.6890   16.9270   -2.1370 C.3    68  VAL68       0.0252
     66  CG1       13.2010   17.2580   -0.7370 C.3    68  VAL68       0.0019
     67  CG2       13.7860   17.1640   -3.1910 C.3    68  VAL68       0.0019
     68  N         10.6050   15.4490    3.2220 N.3    70  ASN70      -0.1240
     69  CA        11.2040   16.0220    4.4110 C.3    70  ASN70       0.1653
     70  C         10.1220   16.2680    5.4460 C.2    70  ASN70       0.2266
     71  O          8.9360   15.9980    5.2060 O.2    70  ASN70      -0.2867
     72  CB        11.9240   17.3410    4.0630 C.3    70  ASN70       0.1155
     73  CG        13.0730   17.6580    4.9960 C.2    70  ASN70       0.2627
     74  OD1       13.2180   17.0550    6.0600 O.2    70  ASN70      -0.2716
     75  ND2       13.9040   18.6210    4.5990 N.am   70  ASN70      -0.0877
     76  N         13.3920   22.8700    8.4520 N.3    77  TRP77      -0.1241
     77  CA        13.4130   21.6560    7.6470 C.3    77  TRP77       0.1605
     78  C         14.4720   20.7050    8.1760 C.2    77  TRP77       0.2264
     79  O         15.5470   21.1380    8.6120 O.2    77  TRP77      -0.2867
     80  CB        13.7000   21.9880    6.1770 C.3    77  TRP77       0.0550
     81  CG        12.5110   22.5720    5.4530 C.ar   77  TRP77       0.0003
     82  CD1       12.3730   23.8450    4.9740 C.ar   77  TRP77       0.0946
     83  CD2       11.2920   21.8940    5.1470 C.ar   77  TRP77       0.0152
     84  NE1       11.1390   23.9980    4.3880 N.ar   77  TRP77      -0.2442
     85  CE2       10.4530   22.8150    4.4860 C.ar   77  TRP77       0.0810
     86  CE3       10.8250   20.5940    5.3670 C.ar   77  TRP77       0.0012
     87  CZ2        9.1760   22.4690    4.0320 C.ar   77  TRP77       0.0191
     88  CZ3        9.5570   20.2610    4.9370 C.ar   77  TRP77       0.0001
     89  CH2        8.7450   21.1920    4.2780 C.ar   77  TRP77       0.0015
     90  N         16.7390   16.0580    4.0950 N.3    80  GLU80      -0.1245
     91  CA        15.9740   15.5830    2.9520 C.3    80  GLU80       0.1567
     92  C         16.2280   14.1220    2.6190 C.2    80  GLU80       0.2260
     93  O         17.3550   13.6230    2.7330 O.2    80  GLU80      -0.2867
     94  CB        16.2820   16.4340    1.7200 C.3    80  GLU80       0.0388
     95  CG        15.7660   17.8570    1.8470 C.3    80  GLU80       0.1160
     96  CD        16.1540   18.7440    0.6820 C.2    80  GLU80       0.3649
     97  OE1       17.0370   18.3670   -0.1260 O.co2  80  GLU80      -0.2457
     98  OE2       15.5540   19.8260    0.5800 O.co2  80  GLU80      -0.2457
     99  N          0.1770   22.5530   -2.6770 N.3   132  TYR132     -0.1241
    100  CA         0.6420   23.8520   -3.1360 C.3   132  TYR132      0.1605
    101  C          1.4930   23.7090   -4.3920 C.2   132  TYR132      0.2264
    102  O          2.0610   22.6430   -4.6460 O.2   132  TYR132     -0.2867
    103  CB         1.4990   24.5230   -2.0590 C.3   132  TYR132      0.0534
    104  CG         0.9770   24.4810   -0.6390 C.ar  132  TYR132     -0.0201
    105  CD1        0.1750   25.4960   -0.1420 C.ar  132  TYR132     -0.0009
    106  CD2        1.3220   23.4410    0.2140 C.ar  132  TYR132     -0.0009
    107  CE1       -0.2810   25.4710    1.1580 C.ar  132  TYR132      0.0417
    108  CE2        0.8770   23.4130    1.5240 C.ar  132  TYR132      0.0417
    109  CZ         0.0750   24.4260    1.9860 C.ar  132  TYR132      0.1957
    110  OH        -0.3780   24.4010    3.2860 O.3   132  TYR132     -0.2866
@<TRIPOS>BOND
     1    53    52    2
     2    52    51    1
     3     1     2    1
     4     2     3    1
     5     2     5    1
     6    51    50    1
     7    51    54    1
     8     4     3    2
     9    54    55    1
    10     5     6    1
    11     6     7    1
    12    55    56    1
    13     7     8    1
    14    56    57    1
    15     8     9    2
    16   102   101    2
    17    45    44    2
    18    44    43    1
    19   101   100    1
    20    57    58    2
    21    49    47   am
    22    12    13    1
    23    59    58    1
    24     9    10    1
    25     9    11    1
    26    61    62    1
    27    58    60    1
    28    47    48    2
    29    47    46    1
    30    43    46    1
    31    43    42    1
    32    67    65    1
    33   100    99    1
    34   100   103    1
    35    13    14    1
    36    13    16    1
    37    15    14    2
    38    62    65    1
    39    62    63    1
    40    65    66    1
    41   103   104    1
    42    16    17    1
    43    19    18    2
    44    64    63    2
    45    17    18    1
    46    18    20   am
    47   104   105   ar
    48   104   106   ar
    49   105   107   ar
    50    97    96   ar
    51   106   108   ar
    52    41    40   ar
    53    41    39   ar
    54    40    38   ar
    55    98    96   ar
    56    96    95    1
    57   107   109   ar
    58    39    37   ar
    59    38    37   ar
    60   108   109   ar
    61    34    35    2
    62    34    33    1
    63    94    95    1
    64    94    91    1
    65    37    36    1
    66   109   110    1
    67    92    93    2
    68    92    91    1
    69    33    36    1
    70    33    32    1
    71    91    90    1
    72    68    69    1
    73    87    89   ar
    74    87    85   ar
    75    31    29    1
    76    72    69    1
    77    72    73    1
    78    89    88   ar
    79    84    85   ar
    80    84    82   ar
    81    69    70    1
    82    85    83   ar
    83    75    73   am
    84    30    29    1
    85    29    28    2
    86    88    86   ar
    87    82    81   ar
    88    73    74    2
    89    83    86   ar
    90    83    81   ar
    91    71    70    2
    92    81    80    1
    93    28    27    1
    94    80    77    1
    95    27    26    1
    96    77    78    1
    97    77    76    1
    98    26    25    1
    99    78    79    2
   100    25    22    1
   101    22    23    1
   102    22    21    1
   103    23    24    2
