@<TRIPOS>MOLECULE
tmp/4wvyA00.pdb
 183 175 0 0 0
SMALL
GASTEIGER

@<TRIPOS>ATOM
      1  N        -36.5650  -15.4470  -45.1130 N.3    15  ALA15      -0.1231
      2  CA       -36.6960  -15.5670  -46.5640 C.3    15  ALA15       0.1694
      3  C        -36.7820  -17.0350  -47.0230 C.2    15  ALA15       0.2592
      4  O        -37.0140  -17.2860  -48.2050 O.2    15  ALA15      -0.2718
      5  CB       -35.5250  -14.8690  -47.2410 C.3    15  ALA15       0.0304
      6  N        -36.6060  -17.9960  -46.0890 N.am   16  HIS16      -0.1976
      7  CA       -36.6230  -19.4340  -46.3770 C.3    16  HIS16       0.1656
      8  C        -37.6800  -20.2250  -45.5820 C.2    16  HIS16       0.2291
      9  O        -37.6480  -21.4600  -45.5940 O.2    16  HIS16      -0.2864
     10  CB       -35.2190  -20.0350  -46.1770 C.3    16  HIS16       0.0771
     11  CG       -34.1310  -19.2560  -46.8420 C.ar   16  HIS16       0.0820
     12  ND1      -33.5690  -18.1460  -46.2370 N.ar   16  HIS16      -0.2267
     13  CD2      -33.5490  -19.4390  -48.0490 C.ar   16  HIS16       0.1154
     14  CE1      -32.6610  -17.6970  -47.0860 C.ar   16  HIS16       0.1986
     15  NE2      -32.6110  -18.4440  -48.1890 N.ar   16  HIS16      -0.2212
     16  N        -39.5190  -23.0730  -47.2350 N.3    19  ILE19      -0.1245
     17  CA       -38.8130  -24.3530  -47.3810 C.3    19  ILE19       0.1561
     18  C        -38.9800  -25.1870  -46.1000 C.2    19  ILE19       0.2260
     19  O        -38.7230  -24.6870  -45.0030 O.2    19  ILE19      -0.2867
     20  CB       -37.3210  -24.1360  -47.7960 C.3    19  ILE19       0.0252
     21  CG1      -37.2220  -23.8550  -49.3060 C.3    19  ILE19       0.0019
     22  CG2      -36.4090  -25.3240  -47.4080 C.3    19  ILE19       0.0019
     23  CD1      -36.1050  -22.9660  -49.7150 C.3    19  ILE19       0.0001
     24  N        -40.8090  -27.5660  -50.6860 N.3    36  GLY36      -0.1210
     25  CA       -40.7210  -26.1630  -51.0720 C.3    36  GLY36       0.1956
     26  C        -39.5570  -25.8680  -51.9990 C.2    36  GLY36       0.2612
     27  O        -39.0540  -24.7420  -52.0130 O.2    36  GLY36      -0.2717
     28  N        -39.1260  -26.8760  -52.7860 N.am   37  PHE37      -0.1962
     29  CA       -38.0060  -26.7630  -53.7230 C.3    37  PHE37       0.1771
     30  C        -38.4250  -26.9290  -55.1810 C.2    37  PHE37       0.2619
     31  O        -39.2810  -27.7580  -55.4880 O.2    37  PHE37      -0.2715
     32  CB       -36.9110  -27.7830  -53.3820 C.3    37  PHE37       0.0574
     33  CG       -35.7190  -27.2270  -52.6420 C.ar   37  PHE37      -0.0200
     34  CD1      -34.7210  -26.5350  -53.3180 C.ar   37  PHE37      -0.0042
     35  CD2      -35.5700  -27.4360  -51.2780 C.ar   37  PHE37      -0.0042
     36  CE1      -33.6120  -26.0310  -52.6350 C.ar   37  PHE37      -0.0003
     37  CE2      -34.4580  -26.9350  -50.5950 C.ar   37  PHE37      -0.0003
     38  CZ       -33.4870  -26.2360  -51.2780 C.ar   37  PHE37      -0.0000
     39  N        -37.7960  -26.1480  -56.0770 N.am   38  VAL38      -0.1977
     40  CA       -38.0200  -26.1830  -57.5260 C.3    38  VAL38       0.1596
     41  C        -36.6650  -26.3590  -58.2130 C.2    38  VAL38       0.2287
     42  O        -35.7860  -25.5030  -58.0740 O.2    38  VAL38      -0.2864
     43  CB       -38.7890  -24.9370  -58.0500 C.3    38  VAL38       0.0276
     44  CG1      -38.7760  -24.8660  -59.5770 C.3    38  VAL38       0.0022
     45  CG2      -40.2210  -24.9080  -57.5280 C.3    38  VAL38       0.0022
     46  N        -32.9020  -27.7140  -59.2060 N.3    40  GLN40      -0.1245
     47  CA       -31.6240  -27.8550  -58.4880 C.3    40  GLN40       0.1566
     48  C        -31.3650  -29.3180  -58.0410 C.2    40  GLN40       0.2260
     49  O        -30.7470  -29.5580  -57.0010 O.2    40  GLN40      -0.2867
     50  CB       -31.5390  -26.8340  -57.3190 C.3    40  GLN40       0.0367
     51  CG       -30.1280  -26.4670  -56.8560 C.3    40  GLN40       0.0905
     52  CD       -29.3050  -25.7910  -57.9190 C.2    40  GLN40       0.2608
     53  OE1      -28.5850  -26.4380  -58.6870 O.2    40  GLN40      -0.2717
     54  NE2      -29.3820  -24.4740  -57.9740 N.am   40  GLN40      -0.0878
     55  N        -23.7040  -18.8430  -58.4190 N.3    69  GLY69      -0.1210
     56  CA       -24.0420  -17.4250  -58.4750 C.3    69  GLY69       0.1940
     57  C        -25.0020  -16.9320  -57.4050 C.2    69  GLY69       0.2454
     58  O        -25.4100  -17.7040  -56.5290 O.2    69  GLY69      -0.2732
     59  N        -25.3840  -15.6320  -57.4410 N.am   70  PRO70      -0.2717
     60  CA       -26.3250  -15.1180  -56.4320 C.3    70  PRO70       0.1536
     61  C        -27.7590  -15.5690  -56.7150 C.2    70  PRO70       0.2599
     62  O        -28.2420  -15.4450  -57.8460 O.2    70  PRO70      -0.2715
     63  CB       -26.1640  -13.5900  -56.5220 C.3    70  PRO70       0.0310
     64  CG       -25.1130  -13.3380  -57.5790 C.3    70  PRO70       0.0237
     65  CD       -25.0060  -14.5770  -58.3990 C.3    70  PRO70       0.0939
     66  N        -28.4100  -16.1160  -55.6910 N.am   71  GLY71      -0.1941
     67  CA       -29.7740  -16.6200  -55.7920 C.3    71  GLY71       0.2014
     68  C        -29.8650  -17.9150  -56.5720 C.2    71  GLY71       0.2640
     69  O        -30.6770  -18.0270  -57.4940 O.2    71  GLY71      -0.2714
     70  N        -29.0100  -18.8910  -56.2140 N.am   72  THR72      -0.1936
     71  CA       -28.9390  -20.2200  -56.8310 C.3    72  THR72       0.2028
     72  C        -29.2650  -21.3520  -55.8250 C.2    72  THR72       0.2643
     73  O        -28.8790  -22.5000  -56.0420 O.2    72  THR72      -0.2714
     74  CB       -27.5880  -20.4250  -57.5520 C.3    72  THR72       0.1808
     75  OG1      -26.5160  -20.1960  -56.6370 O.3    72  THR72      -0.2208
     76  CG2      -27.4310  -19.5370  -58.7830 C.3    72  THR72       0.0379
     77  N        -29.9920  -21.0170  -54.7600 N.am   73  GLY73      -0.1939
     78  CA       -30.4110  -21.9670  -53.7330 C.3    73  GLY73       0.2014
     79  C        -29.3680  -22.3720  -52.7050 C.2    73  GLY73       0.2639
     80  O        -29.5930  -23.3270  -51.9610 O.2    73  GLY73      -0.2714
     81  N        -28.2430  -21.6300  -52.6290 N.am   74  LYS74      -0.1963
     82  CA       -27.1190  -21.8400  -51.7040 C.3    74  LYS74       0.1728
     83  C        -27.5290  -21.8320  -50.2200 C.2    74  LYS74       0.2617
     84  O        -27.4590  -22.8850  -49.5820 O.2    74  LYS74      -0.2715
     85  CB       -25.9890  -20.8300  -51.9760 C.3    74  LYS74       0.0311
     86  CG       -25.2470  -21.0630  -53.2910 C.3    74  LYS74       0.0038
     87  CD       -24.6440  -19.7790  -53.8480 C.3    74  LYS74       0.0206
     88  CE       -23.2960  -19.4530  -53.2540 C.3    74  LYS74       0.1093
     89  NZ       -22.8360  -18.0990  -53.6480 N.3    74  LYS74      -0.1314
     90  N        -27.9760  -20.6640  -49.6790 N.am   75  THR75      -0.1937
     91  CA       -28.4250  -20.5020  -48.2790 C.3    75  THR75       0.2028
     92  C        -29.5980  -21.4400  -47.9840 C.2    75  THR75       0.2642
     93  O        -29.7190  -21.9380  -46.8640 O.2    75  THR75      -0.2714
     94  CB       -28.8470  -19.0450  -47.9740 C.3    75  THR75       0.1808
     95  OG1      -29.8870  -18.6570  -48.8700 O.3    75  THR75      -0.2208
     96  CG2      -27.7000  -18.0490  -48.0530 C.3    75  THR75       0.0379
     97  N        -30.4550  -21.6670  -49.0030 N.am   76  ALA76      -0.1977
     98  CA       -31.6340  -22.5270  -48.9610 C.3    76  ALA76       0.1597
     99  C        -31.2610  -23.9950  -48.7410 C.2    76  ALA76       0.2287
    100  O        -31.8740  -24.6510  -47.8940 O.2    76  ALA76      -0.2864
    101  CB       -32.4310  -22.3710  -50.2450 C.3    76  ALA76       0.0319
    102  N        -21.6360  -17.7230  -45.7030 N.3   281  ASP281     -0.1239
    103  CA       -21.7880  -17.0960  -47.0160 C.3   281  ASP281      0.1674
    104  C        -20.5990  -16.1370  -47.1680 C.2   281  ASP281      0.2266
    105  O        -19.9680  -15.8070  -46.1580 O.2   281  ASP281     -0.2867
    106  CB       -23.1230  -16.3320  -47.0990 C.3   281  ASP281      0.1410
    107  CG       -23.7960  -16.3110  -48.4660 C.2   281  ASP281      0.3668
    108  OD1      -23.1440  -16.7060  -49.4650 O.co2 281  ASP281     -0.2456
    109  OD2      -24.9740  -15.8930  -48.5380 O.co2 281  ASP281     -0.2456
    110  N        -19.6130  -17.1860  -54.1920 N.3   311  ASN311     -0.1240
    111  CA       -20.1470  -16.7290  -55.4750 C.3   311  ASN311      0.1653
    112  C        -19.0250  -16.3420  -56.4410 C.2   311  ASN311      0.2266
    113  O        -19.3000  -16.0170  -57.5980 O.2   311  ASN311     -0.2867
    114  CB       -21.1150  -15.5540  -55.2620 C.3   311  ASN311      0.1155
    115  CG       -20.5480  -14.4430  -54.4080 C.2   311  ASN311      0.2627
    116  OD1      -19.8190  -13.5670  -54.8860 O.2   311  ASN311     -0.2716
    117  ND2      -20.8510  -14.4710  -53.1170 N.am  311  ASN311     -0.0877
    118  N        -31.4500  -20.9880  -62.3250 N.3   345  TYR345     -0.1241
    119  CA       -32.7980  -21.3590  -62.7600 C.3   345  TYR345      0.1605
    120  C        -33.2470  -20.6310  -64.0220 C.2   345  TYR345      0.2264
    121  O        -33.1140  -19.4100  -64.1130 O.2   345  TYR345     -0.2867
    122  CB       -33.8170  -21.1590  -61.6160 C.3   345  TYR345      0.0534
    123  CG       -33.3770  -21.7530  -60.2930 C.ar  345  TYR345     -0.0201
    124  CD1      -33.5230  -23.1130  -60.0330 C.ar  345  TYR345     -0.0009
    125  CD2      -32.8050  -20.9580  -59.3040 C.ar  345  TYR345     -0.0009
    126  CE1      -33.1050  -23.6680  -58.8250 C.ar  345  TYR345      0.0417
    127  CE2      -32.3820  -21.5020  -58.0920 C.ar  345  TYR345      0.0417
    128  CZ       -32.5330  -22.8580  -57.8580 C.ar  345  TYR345      0.1957
    129  OH       -32.1270  -23.4040  -56.6650 O.3   345  TYR345     -0.2866
    130  N        -41.2570  -21.0120  -58.5110 N.3   353  ILE353     -0.1245
    131  CA       -40.7690  -20.5480  -57.2020 C.3   353  ILE353      0.1561
    132  C        -41.6880  -19.4330  -56.6760 C.2   353  ILE353      0.2260
    133  O        -42.1090  -19.4960  -55.5180 O.2   353  ILE353     -0.2867
    134  CB       -39.2690  -20.1030  -57.2540 C.3   353  ILE353      0.0252
    135  CG1      -38.3540  -21.2410  -57.7570 C.3   353  ILE353      0.0019
    136  CG2      -38.7830  -19.5680  -55.8910 C.3   353  ILE353      0.0019
    137  CD1      -37.0610  -20.7920  -58.4460 C.3   353  ILE353      0.0001
    138  N        -44.8750  -20.4570  -55.0120 N.3   356  ILE356     -0.1231
    139  CA       -44.6260  -21.0690  -53.7040 C.3   356  ILE356      0.1692
    140  C        -44.4490  -19.9850  -52.6320 C.2   356  ILE356      0.2591
    141  O        -45.0390  -20.0940  -51.5540 O.2   356  ILE356     -0.2718
    142  CB       -43.4590  -22.1030  -53.7740 C.3   356  ILE356      0.0266
    143  CG1      -43.9480  -23.4010  -54.4540 C.3   356  ILE356      0.0019
    144  CG2      -42.8540  -22.4090  -52.3910 C.3   356  ILE356      0.0020
    145  CD1      -42.8740  -24.2810  -55.0540 C.3   356  ILE356      0.0001
    146  N        -43.6690  -18.9330  -52.9430 N.am  357  ARG357     -0.1980
    147  CA       -43.4040  -17.8200  -52.0250 C.3   357  ARG357      0.1597
    148  C        -44.6570  -16.9840  -51.7540 C.2   357  ARG357      0.2287
    149  O        -44.9070  -16.6310  -50.6010 O.2   357  ARG357     -0.2864
    150  CB       -42.2440  -16.9330  -52.5250 C.3   357  ARG357      0.0334
    151  CG       -40.9720  -17.6870  -52.9300 C.3   357  ARG357      0.0492
    152  CD       -40.1090  -18.1400  -51.7640 C.3   357  ARG357      0.2205
    153  NE       -39.9960  -19.5980  -51.7220 N.pl3 357  ARG357     -0.0865
    154  CZ       -39.0370  -20.2670  -51.0890 C.cat 357  ARG357      0.5346
    155  NH1      -38.0950  -19.6170  -50.4190 N.pl3 357  ARG357      0.1354
    156  NH2      -39.0260  -21.5920  -51.1020 N.pl3 357  ARG357      0.1354
    157  N        -32.8590  -13.3540  -58.6610 N.3   382  LEU382     -0.1231
    158  CA       -34.0210  -14.0610  -58.1070 C.3   382  LEU382      0.1693
    159  C        -34.5370  -13.3930  -56.8160 C.2   382  LEU382      0.2591
    160  O        -35.7330  -13.4520  -56.5350 O.2   382  LEU382     -0.2718
    161  CB       -33.6520  -15.5490  -57.8680 C.3   382  LEU382      0.0284
    162  CG       -34.6950  -16.5040  -57.2430 C.3   382  LEU382      0.0019
    163  CD1      -35.9380  -16.6400  -58.1140 C.3   382  LEU382      0.0001
    164  CD2      -34.0940  -17.8740  -57.0060 C.3   382  LEU382      0.0001
    165  N        -33.6380  -12.7560  -56.0440 N.am  383  ARG383     -0.1980
    166  CA       -33.9900  -12.0700  -54.8020 C.3   383  ARG383      0.1597
    167  C        -34.8180  -10.8180  -55.0590 C.2   383  ARG383      0.2287
    168  O        -35.7680  -10.5660  -54.3180 O.2   383  ARG383     -0.2864
    169  CB       -32.7360  -11.7270  -53.9870 C.3   383  ARG383      0.0334
    170  CG       -32.7660  -12.3150  -52.5830 C.3   383  ARG383      0.0492
    171  CD       -31.4050  -12.3300  -51.9130 C.3   383  ARG383      0.2205
    172  NE       -30.4000  -13.0570  -52.6900 N.pl3 383  ARG383     -0.0865
    173  CZ       -29.1470  -13.2640  -52.2960 C.cat 383  ARG383      0.5346
    174  NH1      -28.3040  -13.9280  -53.0740 N.pl3 383  ARG383      0.1354
    175  NH2      -28.7330  -12.8220  -51.1150 N.pl3 383  ARG383      0.1354
    176  N        -38.5270  -11.6700  -56.1370 N.3   386  LEU386     -0.1245
    177  CA       -39.1840  -12.2260  -54.9560 C.3   386  LEU386      0.1561
    178  C        -39.5630  -11.1160  -53.9680 C.2   386  LEU386      0.2260
    179  O        -40.5520  -11.2500  -53.2460 O.2   386  LEU386     -0.2867
    180  CB       -38.2470  -13.2310  -54.2870 C.3   386  LEU386      0.0270
    181  CG       -38.8920  -14.5220  -53.8280 C.3   386  LEU386      0.0019
    182  CD1      -38.0970  -15.7210  -54.3110 C.3   386  LEU386      0.0001
    183  CD2      -39.0620  -14.5340  -52.3140 C.3   386  LEU386      0.0001
@<TRIPOS>BOND
     1   121   120    2
     2   120   119    1
     3   119   118    1
     4   119   122    1
     5   122   123    1
     6   123   124   ar
     7   123   125   ar
     8   124   126   ar
     9    44    43    1
    10   125   127   ar
    11    46    47    1
    12   126   128   ar
    13    76    74    1
    14    53    52    2
    15   157   158    1
    16   130   131    1
    17    47    48    1
    18    47    50    1
    19    56    55    1
    20    56    57    1
    21   137   135    1
    22    65    64    1
    23    65    59    1
    24    41    42    2
    25    41    40    1
    26   163   162    1
    27   158   161    1
    28   158   159    1
    29   127   128   ar
    30    43    45    1
    31    43    40    1
    32    48    49    2
    33    54    52   am
    34    52    51    1
    35   161   162    1
    36   128   129    1
    37    62    61    2
    38   135   134    1
    39   113   112    2
    40    64    63    1
    41    74    71    1
    42    74    75    1
    43    40    39    1
    44    69    68    2
    45    59    57   am
    46    59    60    1
    47    57    58    2
    48    50    51    1
    49   134   131    1
    50   134   136    1
    51   162   164    1
    52   131   132    1
    53    71    70    1
    54    71    72    1
    55   159   160    2
    56   159   165   am
    57    61    60    1
    58    61    66   am
    59   132   133    2
    60    68    70   am
    61    68    67    1
    62    63    60    1
    63   112   111    1
    64   176   177    1
    65    39    30   am
    66   165   166    1
    67    73    72    2
    68    72    77   am
    69    67    66    1
    70    31    30    2
    71   111   114    1
    72   111   110    1
    73   114   115    1
    74    30    29    1
    75   167   166    1
    76   167   168    2
    77   145   143    1
    78   138   139    1
    79   177   180    1
    80   177   178    1
    81   116   115    2
    82   166   169    1
    83    77    78    1
    84   143   142    1
    85   115   117   am
    86   182   181    1
    87   180   181    1
    88   169   170    1
    89   178   179    2
    90    87    86    1
    91    87    88    1
    92   181   183    1
    93   142   139    1
    94   142   144    1
    95    78    79    1
    96    29    32    1
    97    29    28    1
    98   139   140    1
    99    89    88    1
   100    32    33    1
   101    34    33   ar
   102    34    36   ar
   103    86    85    1
   104   174   173    1
   105   146   140   am
   106   146   147    1
   107   151   150    1
   108   151   152    1
   109    28    26   am
   110    79    81   am
   111    79    80    2
   112   172   173    2
   113   172   171    1
   114    33    35   ar
   115    36    38   ar
   116   140   141    2
   117    81    82    1
   118   170   171    1
   119   150   147    1
   120   173   175    1
   121   147   148    1
   122    27    26    2
   123    26    25    1
   124    85    82    1
   125   152   153    1
   126   148   149    2
   127   153   154    2
   128    82    83    1
   129    38    37   ar
   130    35    37   ar
   131   156   154    1
   132   154   155    1
   133    25    24    1
   134   101    98    1
   135    83    90   am
   136    83    84    2
   137    23    21    1
   138    90    91    1
   139   108   107   ar
   140    21    20    1
   141    97    98    1
   142    97    92   am
   143    98    99    1
   144    95    94    1
   145    99   100    2
   146   109   107   ar
   147   107   106    1
   148    91    92    1
   149    91    94    1
   150     4     3    2
   151    15    13   ar
   152    15    14   ar
   153    96    94    1
   154    13    11   ar
   155    92    93    2
   156    20    22    1
   157    20    17    1
   158    17    16    1
   159    17    18    1
   160     5     2    1
   161   104   103    1
   162   104   105    2
   163   106   103    1
   164    14    12   ar
   165     3     2    1
   166     3     6   am
   167   103   102    1
   168    11    12   ar
   169    11    10    1
   170     2     1    1
   171     7    10    1
   172     7     6    1
   173     7     8    1
   174    18    19    2
   175     9     8    2
