@<TRIPOS>MOLECULE
tmp/4ww6A01.pdb
 92 94 0 0 0
SMALL
GASTEIGER

@<TRIPOS>ATOM
      1  N         30.3800    3.6730    8.8970 N.3     1  HIS1       -0.1226
      2  CA        30.5530    2.2510    8.4020 C.3     1  HIS1        0.1752
      3  C         30.1650    1.1680    9.4120 C.2     1  HIS1        0.2596
      4  O         30.5260   -0.0130    9.3230 O.2     1  HIS1       -0.2718
      5  CB        31.9510    1.9800    8.0040 C.3     1  HIS1        0.0759
      6  CG        32.0660    1.4940    6.6070 C.ar    1  HIS1        0.0818
      7  ND1       33.1070    1.8150    5.8160 N.ar    1  HIS1       -0.2268
      8  CD2       31.2130    0.6840    5.8400 C.ar    1  HIS1        0.1154
      9  CE1       32.9430    1.2410    4.6010 C.ar    1  HIS1        0.1986
     10  NE2       31.7810    0.5520    4.6160 N.ar    1  HIS1       -0.2212
     11  N         29.3470    1.5300   10.3530 N.am    2  TRP2       -0.1962
     12  CA        28.7390    0.5160   11.2230 C.3     2  TRP2        0.1771
     13  C         27.6760   -0.2800   10.4070 C.2     2  TRP2        0.2620
     14  O         27.1240    0.1800    9.4130 O.2     2  TRP2       -0.2715
     15  CB        28.0630    1.2120   12.4150 C.3     2  TRP2        0.0590
     16  CG        26.8470    2.0370   12.0420 C.ar    2  TRP2        0.0006
     17  CD1       26.7920    3.3730   11.8120 C.ar    2  TRP2        0.0946
     18  CD2       25.5020    1.5750   12.0320 C.ar    2  TRP2        0.0152
     19  NE1       25.5400    3.7880   11.5530 N.ar    2  TRP2       -0.2442
     20  CE2       24.6940    2.6910   11.6760 C.ar    2  TRP2        0.0810
     21  CE3       24.9020    0.3380   12.2490 C.ar    2  TRP2        0.0012
     22  CZ2       23.3110    2.5980   11.5920 C.ar    2  TRP2        0.0191
     23  CZ3       23.5000    0.2400   12.1210 C.ar    2  TRP2        0.0001
     24  CH2       22.7620    1.3600   11.7670 C.ar    2  TRP2        0.0015
     25  N         27.4260   -1.4900   10.9370 N.am    3  GLY3       -0.1940
     26  CA        26.3880   -2.3020   10.2970 C.3     3  GLY3        0.2014
     27  C         26.0500   -3.4450   11.2300 C.2     3  GLY3        0.2639
     28  O         26.0570   -3.3300   12.4550 O.2     3  GLY3       -0.2714
     29  N         25.7230   -4.5590   10.5790 N.am    4  TYR4       -0.1959
     30  CA        25.2360   -5.7570   11.3030 C.3     4  TYR4        0.1771
     31  C         26.1000   -6.9880   10.9680 C.2     4  TYR4        0.2620
     32  O         25.7000   -8.1190   11.2510 O.2     4  TYR4       -0.2715
     33  CB        23.7730   -6.0400   11.0500 C.3     4  TYR4        0.0574
     34  CG        22.9440   -4.9360   11.6330 C.ar    4  TYR4       -0.0198
     35  CD1       22.5990   -4.9870   13.0260 C.ar    4  TYR4       -0.0009
     36  CD2       22.4670   -3.9190   10.8550 C.ar    4  TYR4       -0.0009
     37  CE1       21.7590   -3.9900   13.5330 C.ar    4  TYR4        0.0417
     38  CE2       21.6460   -2.9470   11.3900 C.ar    4  TYR4        0.0417
     39  CZ        21.2810   -2.9990   12.7390 C.ar    4  TYR4        0.1957
     40  OH        20.4390   -2.0360   13.2090 O.3     4  TYR4       -0.2866
     41  N         27.2540   -6.7620   10.3550 N.am    5  GLY5       -0.1954
     42  CA        28.1050   -7.8520    9.9570 C.3     5  GLY5        0.1869
     43  C         29.0430   -8.2290   11.0710 C.2     5  GLY5        0.2309
     44  O         29.1090   -7.5780   12.1070 O.2     5  GLY5       -0.2863
     45  N         32.1610   -7.8630   11.0340 N.3     7  HIS7       -0.1226
     46  CA        33.2400   -6.9260   11.2140 C.3     7  HIS7        0.1752
     47  C         32.8070   -5.5710   11.6820 C.2     7  HIS7        0.2596
     48  O         33.6120   -4.7710   12.1000 O.2     7  HIS7       -0.2718
     49  CB        34.1410   -6.8810    9.9800 C.3     7  HIS7        0.0759
     50  CG        34.6870   -8.2540    9.6090 C.ar    7  HIS7        0.0818
     51  ND1       35.5780   -8.8800   10.4120 N.ar    7  HIS7       -0.2268
     52  CD2       34.3180   -9.1530    8.6120 C.ar    7  HIS7        0.1154
     53  CE1       35.8620  -10.1200    9.9180 C.ar    7  HIS7        0.1986
     54  NE2       35.0850  -10.2700    8.7620 N.ar    7  HIS7       -0.2212
     55  N         31.4820   -5.2560   11.6320 N.am    8  ASN8       -0.1974
     56  CA        31.0450   -3.9170   11.9600 C.3     8  ASN8        0.1688
     57  C         29.7270   -3.9470   12.7040 C.2     8  ASN8        0.2292
     58  O         29.0700   -2.9080   12.8110 O.2     8  ASN8       -0.2864
     59  CB        30.8590   -3.1150   10.7120 C.3     8  ASN8        0.1181
     60  CG        29.8010   -3.6450    9.7360 C.2     8  ASN8        0.2629
     61  OD1       29.2240   -4.6840    9.9890 O.2     8  ASN8       -0.2716
     62  ND2       29.4920   -2.9140    8.7030 N.am    8  ASN8       -0.0877
     63  N         20.3890   -0.2940    6.1980 N.3    61  HIS61      -0.1241
     64  CA        20.2930   -0.9460    7.5390 C.3    61  HIS61       0.1621
     65  C         18.9180   -1.5960    7.6910 C.2    61  HIS61       0.2264
     66  O         18.8880   -2.7070    8.2290 O.2    61  HIS61      -0.2867
     67  CB        20.5230    0.0940    8.6820 C.3    61  HIS61       0.0745
     68  CG        21.8190    0.8470    8.5010 C.ar   61  HIS61       0.0817
     69  ND1       23.0530    0.2330    8.5880 N.ar   61  HIS61      -0.2268
     70  CD2       22.0120    2.1670    8.3060 C.ar   61  HIS61       0.1154
     71  CE1       24.0230    1.2150    8.4870 C.ar   61  HIS61       0.1986
     72  NE2       23.3820    2.3910    8.2770 N.ar   61  HIS61      -0.2212
     73  N         21.5500   -5.2970    2.0270 N.3   227  PHE227     -0.1241
     74  CA        22.3010   -4.2080    2.7080 C.3   227  PHE227      0.1605
     75  C         23.1440   -3.4300    1.7180 C.2   227  PHE227      0.2264
     76  O         23.4400   -2.2560    1.9540 O.2   227  PHE227     -0.2867
     77  CB        23.2940   -4.8010    3.7230 C.3   227  PHE227      0.0534
     78  CG        22.6910   -5.3690    4.9940 C.ar  227  PHE227     -0.0203
     79  CD1       21.9290   -4.5970    5.8850 C.ar  227  PHE227     -0.0042
     80  CD2       23.0160   -6.6510    5.3830 C.ar  227  PHE227     -0.0042
     81  CE1       21.4940   -5.1060    7.0920 C.ar  227  PHE227     -0.0003
     82  CE2       22.5460   -7.1550    6.6080 C.ar  227  PHE227     -0.0003
     83  CZ        21.8450   -6.3900    7.4550 C.ar  227  PHE227     -0.0000
     84  N         24.4470   -8.8820   -0.2560 N.3   235  GLU235     -0.1245
     85  CA        24.4990   -9.1430    1.1590 C.3   235  GLU235      0.1567
     86  C         23.0770   -9.0020    1.6600 C.2   235  GLU235      0.2260
     87  O         22.5700   -7.9300    1.7620 O.2   235  GLU235     -0.2867
     88  CB        25.3840   -8.1540    1.8310 C.3   235  GLU235      0.0388
     89  CG        25.7690   -8.5420    3.2750 C.3   235  GLU235      0.1160
     90  CD        26.6330   -9.7720    3.4580 C.2   235  GLU235      0.3649
     91  OE1       27.8510   -9.6800    3.0780 O.co2 235  GLU235     -0.2457
     92  OE2       26.0530  -10.8140    3.9640 O.co2 235  GLU235     -0.2457
@<TRIPOS>BOND
     1    84    85    1
     2    85    86    1
     3    85    88    1
     4    86    87    2
     5    75    76    2
     6    75    74    1
     7    88    89    1
     8    73    74    1
     9    74    77    1
    10    91    90   ar
    11    89    90    1
    12    90    92   ar
    13    77    78    1
    14     9    10   ar
    15     9     7   ar
    16    10     8   ar
    17    78    80   ar
    18    78    79   ar
    19    80    82   ar
    20     7     6   ar
    21     8     6   ar
    22    79    81   ar
    23    63    64    1
    24     6     5    1
    25    82    83   ar
    26    81    83   ar
    27    64    65    1
    28    64    67    1
    29    65    66    2
    30     5     2    1
    31    72    70   ar
    32    72    71   ar
    33    70    68   ar
    34     2     1    1
    35     2     3    1
    36    71    69   ar
    37    68    69   ar
    38    68    67    1
    39    52    54   ar
    40    52    50   ar
    41    62    60   am
    42    54    53   ar
    43     4     3    2
    44     3    11   am
    45    14    13    2
    46    50    49    1
    47    50    51   ar
    48    60    61    2
    49    60    59    1
    50    53    51   ar
    51    42    41    1
    52    42    43    1
    53    49    46    1
    54    26    25    1
    55    26    27    1
    56    11    12    1
    57    41    31   am
    58    13    25   am
    59    13    12    1
    60    29    27   am
    61    29    30    1
    62    59    56    1
    63    36    38   ar
    64    36    34   ar
    65    31    32    2
    66    31    30    1
    67    45    46    1
    68    33    30    1
    69    33    34    1
    70    43    44    2
    71    46    47    1
    72    12    15    1
    73    27    28    2
    74    38    39   ar
    75    19    20   ar
    76    19    17   ar
    77    22    20   ar
    78    22    24   ar
    79    55    47   am
    80    55    56    1
    81    34    35   ar
    82    20    18   ar
    83    47    48    2
    84    24    23   ar
    85    17    16   ar
    86    56    57    1
    87    18    16   ar
    88    18    21   ar
    89    16    15    1
    90    23    21   ar
    91    57    58    2
    92    39    40    1
    93    39    37   ar
    94    35    37   ar
