@<TRIPOS>MOLECULE
tmp/4ww6A03.pdb
 159 155 0 0 0
SMALL
GASTEIGER

@<TRIPOS>ATOM
      1  N         29.3470    1.5300   10.3530 N.3     2  TRP2       -0.1241
      2  CA        28.7390    0.5160   11.2230 C.3     2  TRP2        0.1605
      3  C         27.6760   -0.2800   10.4070 C.2     2  TRP2        0.2264
      4  O         27.1240    0.1800    9.4130 O.2     2  TRP2       -0.2867
      5  CB        28.0630    1.2120   12.4150 C.3     2  TRP2        0.0550
      6  CG        26.8470    2.0370   12.0420 C.ar    2  TRP2        0.0003
      7  CD1       26.7920    3.3730   11.8120 C.ar    2  TRP2        0.0946
      8  CD2       25.5020    1.5750   12.0320 C.ar    2  TRP2        0.0152
      9  NE1       25.5400    3.7880   11.5530 N.ar    2  TRP2       -0.2442
     10  CE2       24.6940    2.6910   11.6760 C.ar    2  TRP2        0.0810
     11  CE3       24.9020    0.3380   12.2490 C.ar    2  TRP2        0.0012
     12  CZ2       23.3110    2.5980   11.5920 C.ar    2  TRP2        0.0191
     13  CZ3       23.5000    0.2400   12.1210 C.ar    2  TRP2        0.0001
     14  CH2       22.7620    1.3600   11.7670 C.ar    2  TRP2        0.0015
     15  N         17.7190    2.2250    3.5670 N.3    59  ASN59      -0.1296
     16  CA        18.8080    3.0610    3.9980 C.3    59  ASN59       0.1339
     17  C         20.0890    2.2390    4.1890 C.3    59  ASN59       0.2014
     18  O         21.1310    2.7210    4.7970 O.3    59  ASN59      -0.2188
     19  CB        18.4530    3.8590    5.3250 C.3    59  ASN59       0.1102
     20  CG        18.3320    2.9460    6.4950 C.2    59  ASN59       0.2623
     21  OD1       18.5420    1.7720    6.4620 O.2    59  ASN59      -0.2716
     22  ND2       18.1050    3.5310    7.6830 N.am   59  ASN59      -0.0877
     23  N         12.7570    2.3370    5.8300 N.3    64  ASN64      -0.1240
     24  CA        11.9170    3.2780    6.5480 C.3    64  ASN64       0.1653
     25  C         10.6830    3.6380    5.7560 C.2    64  ASN64       0.2266
     26  O         10.8440    4.0550    4.5580 O.2    64  ASN64      -0.2867
     27  CB        12.6770    4.5520    6.8670 C.3    64  ASN64       0.1155
     28  CG        13.8700    4.3610    7.7160 C.2    64  ASN64       0.2627
     29  OD1       13.9950    3.3670    8.4500 O.2    64  ASN64      -0.2716
     30  ND2       14.7650    5.3590    7.6870 N.am   64  ASN64      -0.0877
     31  N          8.5140    8.0170   11.1610 N.3    89  GLN89      -0.1245
     32  CA         8.7830    6.8780   10.3110 C.3    89  GLN89       0.1566
     33  C          8.5390    5.6360   11.0710 C.2    89  GLN89       0.2260
     34  O          8.5040    5.6570   12.3200 O.2    89  GLN89      -0.2867
     35  CB        10.2250    6.8850    9.8190 C.3    89  GLN89       0.0367
     36  CG        11.3220    6.9860   10.9380 C.3    89  GLN89       0.0905
     37  CD        12.0880    5.7170   11.1290 C.2    89  GLN89       0.2608
     38  OE1       11.5490    4.6130   11.1880 O.2    89  GLN89      -0.2717
     39  NE2       13.3770    5.8360   11.2700 N.am   89  GLN89      -0.0878
     40  N         10.0420    1.3760   10.8700 N.3    91  HIS91      -0.1241
     41  CA        10.9350    0.4080   10.2950 C.3    91  HIS91       0.1621
     42  C         10.8510   -0.8600   11.1020 C.2    91  HIS91       0.2264
     43  O         10.2300   -0.8890   12.1540 O.2    91  HIS91      -0.2867
     44  CB        12.3910    0.9310   10.2120 C.3    91  HIS91       0.0745
     45  CG        12.9120    1.1990   11.6100 C.ar   91  HIS91       0.0817
     46  ND1       12.6820    2.3610   12.2770 N.ar   91  HIS91      -0.2268
     47  CD2       13.5540    0.3640   12.4740 C.ar   91  HIS91       0.1154
     48  CE1       13.1840    2.2340   13.5090 C.ar   91  HIS91       0.1986
     49  NE2       13.7110    1.0140   13.6770 N.ar   91  HIS91      -0.2212
     50  N         13.1640   -4.6080   12.3980 N.3    93  HIS93      -0.1241
     51  CA        14.3540   -5.4080   12.5680 C.3    93  HIS93       0.1621
     52  C         13.9280   -6.8480   12.4230 C.2    93  HIS93       0.2264
     53  O         12.8500   -7.2060   12.9320 O.2    93  HIS93      -0.2867
     54  CB        15.0120   -5.1780   13.9490 C.3    93  HIS93       0.0745
     55  CG        15.2780   -3.7520   14.2240 C.ar   93  HIS93       0.0817
     56  ND1       16.5160   -3.1900   14.0920 N.ar   93  HIS93      -0.2268
     57  CD2       14.4740   -2.7290   14.6200 C.ar   93  HIS93       0.1154
     58  CE1       16.4270   -1.8630   14.3920 C.ar   93  HIS93       0.1986
     59  NE2       15.1900   -1.5800   14.7010 N.ar   93  HIS93      -0.2212
     60  N          9.1660   -0.8380   14.7680 N.3   116  HIS116     -0.1241
     61  CA         9.3880    0.3830   15.5480 C.3   116  HIS116      0.1621
     62  C          8.6960    1.5510   14.8620 C.2   116  HIS116      0.2264
     63  O          9.1230    1.9200   13.7440 O.2   116  HIS116     -0.2867
     64  CB        10.8890    0.6510   15.6600 C.3   116  HIS116      0.0745
     65  CG        11.5750   -0.3170   16.5510 C.ar  116  HIS116      0.0817
     66  ND1       12.9270   -0.5620   16.5210 N.ar  116  HIS116     -0.2268
     67  CD2       11.0460   -1.1210   17.5070 C.ar  116  HIS116      0.1154
     68  CE1       13.1880   -1.4780   17.4380 C.ar  116  HIS116      0.1986
     69  NE2       12.0720   -1.8350   18.0540 N.ar  116  HIS116     -0.2212
     70  N          8.4290    5.3570   15.1500 N.3   118  VAL118     -0.1245
     71  CA         9.2600    6.3730   15.7870 C.3   118  VAL118      0.1561
     72  C          8.5370    7.7180   15.8070 C.2   118  VAL118      0.2260
     73  O          8.1110    8.1820   14.7430 O.2   118  VAL118     -0.2867
     74  CB        10.5880    6.5000   14.9990 C.3   118  VAL118      0.0252
     75  CG1       11.5030    7.5560   15.6000 C.3   118  VAL118      0.0019
     76  CG2       11.3020    5.1510   14.8680 C.3   118  VAL118      0.0019
     77  N         12.7730   16.5760   14.6910 N.3   127  PHE127     -0.1241
     78  CA        13.4160   15.3420   15.1000 C.3   127  PHE127      0.1605
     79  C         14.8660   15.5140   15.4940 C.2   127  PHE127      0.2264
     80  O         15.3230   14.9370   16.4890 O.2   127  PHE127     -0.2867
     81  CB        13.2460   14.3540   13.9420 C.3   127  PHE127      0.0534
     82  CG        13.9200   13.0560   14.1830 C.ar  127  PHE127     -0.0203
     83  CD1       13.2670   12.0180   14.8310 C.ar  127  PHE127     -0.0042
     84  CD2       15.2750   12.8140   13.8780 C.ar  127  PHE127     -0.0042
     85  CE1       13.8910   10.8070   15.0600 C.ar  127  PHE127     -0.0003
     86  CE2       15.8390   11.6170   14.0750 C.ar  127  PHE127     -0.0003
     87  CZ        15.1620   10.5980   14.6810 C.ar  127  PHE127     -0.0000
     88  N         16.2760   14.3330   19.2640 N.3   131  VAL131     -0.1245
     89  CA        17.1850   13.2130   19.6270 C.3   131  VAL131      0.1561
     90  C         18.2830   13.6340   20.5750 C.2   131  VAL131      0.2260
     91  O         18.9600   12.7900   21.1500 O.2   131  VAL131     -0.2867
     92  CB        17.8180   12.5340   18.4360 C.3   131  VAL131      0.0252
     93  CG1       16.7630   11.8520   17.5910 C.3   131  VAL131      0.0019
     94  CG2       18.6760   13.4290   17.6080 C.3   131  VAL131      0.0019
     95  N         12.1880   11.2600   22.1010 N.3   137  LEU137     -0.1245
     96  CA        11.4930   10.3010   21.2500 C.3   137  LEU137      0.1561
     97  C         10.6420    9.3970   22.0400 C.2   137  LEU137      0.2260
     98  O         10.9160    9.1190   23.2160 O.2   137  LEU137     -0.2867
     99  CB        12.5000    9.4550   20.4510 C.3   137  LEU137      0.0270
    100  CG        13.4320   10.0950   19.4170 C.3   137  LEU137      0.0019
    101  CD1       14.0950    9.0240   18.5650 C.3   137  LEU137      0.0001
    102  CD2       12.7430   11.1460   18.5510 C.3   137  LEU137      0.0001
    103  N          9.2530    5.5500   21.0390 N.3   139  VAL139     -0.1245
    104  CA         9.2210    4.4950   20.0310 C.3   139  VAL139      0.1561
    105  C          8.2610    3.4440   20.5160 C.2   139  VAL139      0.2260
    106  O          8.3870    2.9280   21.6280 O.2   139  VAL139     -0.2867
    107  CB        10.6100    3.9410   19.6690 C.3   139  VAL139      0.0252
    108  CG1       10.4570    2.9110   18.5760 C.3   139  VAL139      0.0019
    109  CG2       11.5500    5.0560   19.2400 C.3   139  VAL139      0.0019
    110  N         18.1690    4.9390   21.2400 N.3   194  LEU194     -0.1231
    111  CA        18.1780    4.3890   19.8660 C.3   194  LEU194      0.1693
    112  C         18.8980    3.0730   19.9170 C.2   194  LEU194      0.2593
    113  O         19.9170    2.8920   20.6170 O.2   194  LEU194     -0.2718
    114  CB        18.9210    5.3190   18.9320 C.3   194  LEU194      0.0284
    115  CG        18.4250    6.7300   18.8430 C.3   194  LEU194      0.0019
    116  CD1       19.3440    7.5700   17.9260 C.3   194  LEU194      0.0001
    117  CD2       17.0310    6.8190   18.3450 C.3   194  LEU194      0.0001
    118  N         18.4200    2.1070   19.0960 N.am  195  THR195     -0.1939
    119  CA        19.1150    0.8290   19.0270 C.3   195  THR195      0.2028
    120  C         20.1120    0.7320   17.8830 C.2   195  THR195      0.2643
    121  O         20.7280   -0.3280   17.7200 O.2   195  THR195     -0.2714
    122  CB        18.1120   -0.3450   18.9010 C.3   195  THR195      0.1808
    123  OG1       17.5390   -0.2740   17.6160 O.3   195  THR195     -0.2208
    124  CG2       17.0650   -0.3330   20.0100 C.3   195  THR195      0.0379
    125  N         20.2530    1.8020   17.1090 N.am  196  THR196     -0.1937
    126  CA        21.2820    1.9190   16.1230 C.3   196  THR196      0.2013
    127  C         22.1300    3.1080   16.4770 C.2   196  THR196      0.2484
    128  O         21.6900    4.0490   17.0940 O.2   196  THR196     -0.2729
    129  CB        20.7120    2.1760   14.6690 C.3   196  THR196      0.1807
    130  OG1       20.0520    3.4550   14.6140 O.3   196  THR196     -0.2208
    131  CG2       19.7510    1.1150   14.2590 C.3   196  THR196      0.0379
    132  N         23.4170    3.1260   16.0010 N.am  197  PRO197     -0.2715
    133  CA        24.1530    4.3680   16.0440 C.3   197  PRO197      0.1521
    134  C         23.3120    5.4960   15.5280 C.2   197  PRO197      0.2440
    135  O         22.5920    5.3390   14.5240 O.2   197  PRO197     -0.2731
    136  CB        25.3740    4.0420   15.1680 C.3   197  PRO197      0.0310
    137  CG        25.5880    2.5730   15.4100 C.3   197  PRO197      0.0237
    138  CD        24.1870    2.0250   15.3830 C.3   197  PRO197      0.0939
    139  N         23.3610    6.6510   16.1570 N.am  198  PRO198     -0.2727
    140  CA        24.2970    7.0620   17.2320 C.3   198  PRO198      0.1402
    141  C         23.9480    6.6630   18.6540 C.2   198  PRO198      0.2269
    142  O         24.6540    7.0800   19.5700 O.2   198  PRO198     -0.2865
    143  CB        24.3070    8.6040   17.0770 C.3   198  PRO198      0.0296
    144  CG        22.8720    8.9280   16.6470 C.3   198  PRO198      0.0237
    145  CD        22.5790    7.8310   15.6690 C.3   198  PRO198      0.0939
    146  N         10.6900    4.0560   25.5720 N.3   205  TRP205     -0.1241
    147  CA        10.2400    2.8750   24.8660 C.3   205  TRP205      0.1605
    148  C          8.8720    2.4580   25.3860 C.2   205  TRP205      0.2264
    149  O          8.6310    2.4110   26.5970 O.2   205  TRP205     -0.2867
    150  CB        11.2400    1.7040   25.0820 C.3   205  TRP205      0.0550
    151  CG        12.3520    1.8060   24.1360 C.ar  205  TRP205      0.0003
    152  CD1       13.6030    2.3820   24.3070 C.ar  205  TRP205      0.0946
    153  CD2       12.2950    1.4070   22.7600 C.ar  205  TRP205      0.0152
    154  NE1       14.2980    2.3730   23.1330 N.ar  205  TRP205     -0.2442
    155  CE2       13.5420    1.7850   22.1560 C.ar  205  TRP205      0.0810
    156  CE3       11.3150    0.7870   21.9830 C.ar  205  TRP205      0.0012
    157  CZ2       13.8050    1.5550   20.8110 C.ar  205  TRP205      0.0191
    158  CZ3       11.5950    0.5280   20.6720 C.ar  205  TRP205      0.0001
    159  CH2       12.8280    0.9070   20.0800 C.ar  205  TRP205      0.0015
@<TRIPOS>BOND
     1    15    16    1
     2    16    17    1
     3    16    19    1
     4    17    18    1
     5    26    25    2
     6    19    20    1
     7    25    24    1
     8    23    24    1
     9    21    20    2
    10    20    22   am
    11    24    27    1
    12    27    28    1
    13    30    28   am
    14    28    29    2
    15     4     3    2
    16    35    32    1
    17    35    36    1
    18    44    41    1
    19    44    45    1
    20    41    40    1
    21    41    42    1
    22    32    33    1
    23    32    31    1
    24     1     2    1
    25     3     2    1
    26    36    37    1
    27    33    34    2
    28    42    43    2
    29    37    38    2
    30    37    39   am
    31     2     5    1
    32     9    10   ar
    33     9     7   ar
    34    12    10   ar
    35    12    14   ar
    36    45    46   ar
    37    45    47   ar
    38    10     8   ar
    39    14    13   ar
    40     7     6   ar
    41     8     6   ar
    42     8    11   ar
    43     6     5    1
    44    13    11   ar
    45    46    48   ar
    46    50    51    1
    47    52    51    1
    48    52    53    2
    49    47    49   ar
    50    51    54    1
    51    48    49   ar
    52    63    62    2
    53    84    86   ar
    54    84    82   ar
    55    81    82    1
    56    81    78    1
    57    54    55    1
    58    86    87   ar
    59    56    55   ar
    60    56    58   ar
    61    82    83   ar
    62    55    57   ar
    63   131   129    1
    64    58    59   ar
    65   135   134    2
    66   130   129    1
    67    57    59   ar
    68   129   126    1
    69    87    85   ar
    70    77    78    1
    71    73    72    2
    72    60    61    1
    73    83    85   ar
    74    62    61    1
    75    76    74    1
    76    74    75    1
    77    74    71    1
    78    78    79    1
    79    70    71    1
    80   136   137    1
    81   136   133    1
    82   138   137    1
    83   138   132    1
    84    79    80    2
    85   134   133    1
    86   134   139   am
    87    61    64    1
    88    64    65    1
    89   145   139    1
    90   145   144    1
    91    71    72    1
    92   132   133    1
    93   132   127   am
    94   126   127    1
    95   126   125    1
    96   139   140    1
    97   127   128    2
    98    66    65   ar
    99    66    68   ar
   100    65    67   ar
   101   144   143    1
   102   143   140    1
   103   125   120   am
   104   140   141    1
   105    68    69   ar
   106    67    69   ar
   107    93    92    1
   108    94    92    1
   109   123   122    1
   110   121   120    2
   111   120   119    1
   112   116   115    1
   113   117   115    1
   114    92    89    1
   115   102   100    1
   116   101   100    1
   117   108   107    1
   118   141   142    2
   119   115   114    1
   120   122   119    1
   121   122   124    1
   122   114   111    1
   123   119   118    1
   124   118   112   am
   125   109   107    1
   126    88    89    1
   127   100    99    1
   128    89    90    1
   129   107   104    1
   130   111   112    1
   131   111   110    1
   132   112   113    2
   133   104   105    1
   134   104   103    1
   135   159   158   ar
   136   159   157   ar
   137    99    96    1
   138   105   106    2
   139    90    91    2
   140   158   156   ar
   141   157   155   ar
   142    96    97    1
   143    96    95    1
   144   156   153   ar
   145    97    98    2
   146   155   153   ar
   147   155   154   ar
   148   153   151   ar
   149   154   152   ar
   150   151   152   ar
   151   151   150    1
   152   147   150    1
   153   147   148    1
   154   147   146    1
   155   148   149    2
