@<TRIPOS>MOLECULE
tmp/4ww7A00.pdb
 151 141 0 0 0
SMALL
GASTEIGER

@<TRIPOS>ATOM
      1  N        -11.6140  -14.0920    1.7550 N.3    19  ILE19      -0.1231
      2  CA       -11.9440  -14.3210    3.1590 C.3    19  ILE19       0.1692
      3  C        -13.2650  -15.0710    3.3890 C.2    19  ILE19       0.2592
      4  O        -13.4950  -15.5980    4.4790 O.2    19  ILE19      -0.2718
      5  CB       -11.9410  -13.0150    3.9920 C.3    19  ILE19       0.0266
      6  CG1      -12.9040  -11.9770    3.4040 C.3    19  ILE19       0.0019
      7  CG2      -10.5170  -12.4520    4.1380 C.3    19  ILE19       0.0020
      8  CD1      -13.2830  -10.8950    4.4070 C.3    19  ILE19       0.0001
      9  N        -14.1260  -15.1180    2.3780 N.am   20  SER20      -0.1952
     10  CA       -15.4150  -15.7680    2.5440 C.3    20  SER20       0.1924
     11  C        -16.0360  -16.1300    1.2060 C.2    20  SER20       0.2314
     12  O        -15.9220  -15.4000    0.2270 O.2    20  SER20      -0.2863
     13  CB       -16.3520  -14.8720    3.3660 C.3    20  SER20       0.2116
     14  OG       -17.5060  -15.5750    3.7970 O.3    20  SER20      -0.2180
     15  N        -22.0670  -14.9480   -3.3900 N.3    24  ALA24      -0.1245
     16  CA       -21.0040  -13.9370   -3.3440 C.3    24  ALA24       0.1562
     17  C        -19.7010  -14.4410   -2.7090 C.2    24  ALA24       0.2260
     18  O        -19.7110  -15.1960   -1.7250 O.2    24  ALA24      -0.2867
     19  CB       -21.5020  -12.6690   -2.6310 C.3    24  ALA24       0.0290
     20  N        -16.1000  -12.9350   -1.0890 N.3    26  VAL26      -0.1245
     21  CA       -15.6000  -11.7020   -0.4860 C.3    26  VAL26       0.1561
     22  C        -14.0770  -11.7510   -0.3370 C.2    26  VAL26       0.2260
     23  O        -13.5120  -12.7510    0.1260 O.2    26  VAL26      -0.2867
     24  CB       -16.2840  -11.4490    0.8850 C.3    26  VAL26       0.0252
     25  CG1      -15.7960  -10.1520    1.5290 C.3    26  VAL26       0.0019
     26  CG2      -17.7870  -11.4090    0.7090 C.3    26  VAL26       0.0019
     27  N        -12.8960   -4.0150    1.5010 N.3    46  ILE46      -0.1245
     28  CA       -13.6010   -5.2250    1.1140 C.3    46  ILE46       0.1561
     29  C        -13.9920   -5.1580   -0.3610 C.2    46  ILE46       0.2260
     30  O        -14.4450   -4.1200   -0.8480 O.2    46  ILE46      -0.2867
     31  CB       -14.8950   -5.3700    1.9680 C.3    46  ILE46       0.0252
     32  CG1      -14.5320   -5.8430    3.3820 C.3    46  ILE46       0.0019
     33  CG2      -15.9470   -6.2410    1.2710 C.3    46  ILE46       0.0019
     34  CD1      -14.0990   -7.3160    3.4760 C.3    46  ILE46       0.0001
     35  N        -16.6240   -7.3060   -2.6960 N.3    48  LYS48      -0.1245
     36  CA       -17.6700   -8.3380   -2.7170 C.3    48  LYS48       0.1561
     37  C        -18.0700   -8.5990   -4.1680 C.2    48  LYS48       0.2260
     38  O        -18.5600   -7.7020   -4.8740 O.2    48  LYS48      -0.2867
     39  CB       -18.8690   -7.9030   -1.8510 C.3    48  LYS48       0.0271
     40  CG       -20.0190   -8.9060   -1.7520 C.3    48  LYS48       0.0035
     41  CD       -21.0270   -8.4780   -0.6810 C.3    48  LYS48       0.0206
     42  CE       -22.1620   -9.4870   -0.5460 C.3    48  LYS48       0.1093
     43  NZ       -23.1440   -9.1010    0.5120 N.3    48  LYS48      -0.1314
     44  N        -28.0870   -4.0390   -3.1180 N.3    56  GLU56      -0.1245
     45  CA       -27.3130   -3.9010   -1.9020 C.3    56  GLU56       0.1567
     46  C        -26.6450   -2.5180   -1.8560 C.2    56  GLU56       0.2260
     47  O        -26.6310   -1.8430   -0.8170 O.2    56  GLU56      -0.2867
     48  CB       -26.2780   -5.0150   -1.8230 C.3    56  GLU56       0.0388
     49  CG       -25.3400   -4.8530   -0.6760 C.3    56  GLU56       0.1160
     50  CD       -24.6170   -6.1300   -0.3510 C.2    56  GLU56       0.3649
     51  OE1      -24.4630   -6.9680   -1.2690 O.co2  56  GLU56      -0.2457
     52  OE2      -24.2070   -6.2820    0.8210 O.co2  56  GLU56      -0.2457
     53  N        -21.4740    0.0340    6.4640 N.3    72  PRO72      -0.2116
     54  CA       -20.1790    0.3270    5.8180 C.3    72  PRO72       0.1372
     55  C        -20.2930    1.3100    4.6610 C.2    72  PRO72       0.2244
     56  O        -21.2950    1.3170    3.9440 O.2    72  PRO72      -0.2868
     57  CB       -19.7570   -1.0260    5.2300 C.3    72  PRO72       0.0268
     58  CG       -21.0340   -1.8470    5.1340 C.3    72  PRO72       0.0207
     59  CD       -21.9330   -1.3530    6.2470 C.3    72  PRO72       0.0892
     60  N        -16.3060   -1.9760   -0.4550 N.3    86  LEU86      -0.1231
     61  CA       -16.8020   -1.4620    0.8350 C.3    86  LEU86       0.1693
     62  C        -15.6950   -1.1280    1.8220 C.2    86  LEU86       0.2592
     63  O        -14.6150   -1.7240    1.7980 O.2    86  LEU86      -0.2718
     64  CB       -17.7080   -2.5080    1.5070 C.3    86  LEU86       0.0284
     65  CG       -18.9200   -2.9720    0.7140 C.3    86  LEU86       0.0019
     66  CD1      -19.6800   -4.0510    1.5020 C.3    86  LEU86       0.0001
     67  CD2      -19.8300   -1.8000    0.3830 C.3    86  LEU86       0.0001
     68  N        -15.9920   -0.1970    2.7280 N.am   87  GLU87      -0.1966
     69  CA       -15.2220   -0.0230    3.9520 C.3    87  GLU87       0.1733
     70  C        -15.0760   -1.3430    4.7190 C.2    87  GLU87       0.2616
     71  O        -16.0630   -2.0670    4.9120 O.2    87  GLU87      -0.2715
     72  CB       -15.9620    0.9630    4.8480 C.3    87  GLU87       0.0429
     73  CG       -15.2980    1.2650    6.1860 C.3    87  GLU87       0.1163
     74  CD       -16.1450    2.2040    7.0360 C.2    87  GLU87       0.3649
     75  OE1      -17.3400    2.4010    6.6950 O.co2  87  GLU87      -0.2457
     76  OE2      -15.6160    2.7460    8.0350 O.co2  87  GLU87      -0.2457
     77  N        -13.8580   -1.6440    5.1730 N.am   88  PHE88      -0.1960
     78  CA       -13.6530   -2.8070    6.0520 C.3    88  PHE88       0.1771
     79  C        -14.0050   -2.4150    7.4870 C.2    88  PHE88       0.2619
     80  O        -13.4260   -1.4690    8.0320 O.2    88  PHE88      -0.2715
     81  CB       -12.2130   -3.3370    5.9920 C.3    88  PHE88       0.0574
     82  CG       -12.0180   -4.6310    6.7680 C.ar   88  PHE88      -0.0200
     83  CD1      -11.8280   -4.6100    8.1440 C.ar   88  PHE88      -0.0042
     84  CD2      -12.0880   -5.8520    6.1230 C.ar   88  PHE88      -0.0042
     85  CE1      -11.6840   -5.8090    8.8630 C.ar   88  PHE88      -0.0003
     86  CE2      -11.9360   -7.0440    6.8260 C.ar   88  PHE88      -0.0003
     87  CZ       -11.7390   -7.0220    8.1930 C.ar   88  PHE88      -0.0000
     88  N        -14.9590   -3.1430    8.0830 N.am   89  LEU89      -0.1977
     89  CA       -15.4130   -2.8920    9.4580 C.3    89  LEU89       0.1596
     90  C        -14.9680   -3.9960   10.3960 C.2    89  LEU89       0.2287
     91  O        -14.9960   -5.1740   10.0350 O.2    89  LEU89      -0.2864
     92  CB       -16.9390   -2.8100    9.5290 C.3    89  LEU89       0.0297
     93  CG       -17.6320   -1.7340    8.6960 C.3    89  LEU89       0.0022
     94  CD1      -19.1360   -1.8850    8.8270 C.3    89  LEU89       0.0001
     95  CD2      -17.1880   -0.3330    9.1260 C.3    89  LEU89       0.0001
     96  N        -12.8110  -12.6680   14.3790 N.3    99  PHE99      -0.1241
     97  CA       -13.3020  -11.3940   13.8350 C.3    99  PHE99       0.1605
     98  C        -14.4200  -10.8620   14.7230 C.2    99  PHE99       0.2264
     99  O        -15.2520  -11.6310   15.2150 O.2    99  PHE99      -0.2867
    100  CB       -13.8050  -11.6100   12.4140 C.3    99  PHE99       0.0534
    101  CG       -14.4780  -10.4090   11.8010 C.ar   99  PHE99      -0.0203
    102  CD1      -13.7750   -9.2380   11.5730 C.ar   99  PHE99      -0.0042
    103  CD2      -15.8130  -10.4800   11.4190 C.ar   99  PHE99      -0.0042
    104  CE1      -14.4110   -8.1320   10.9880 C.ar   99  PHE99      -0.0003
    105  CE2      -16.4520   -9.3850   10.8360 C.ar   99  PHE99      -0.0003
    106  CZ       -15.7410   -8.2150   10.6170 C.ar   99  PHE99      -0.0000
    107  N        -17.3760   -9.8190   14.8980 N.3   101  ASN101     -0.1240
    108  CA       -18.8180   -9.8540   14.7200 C.3   101  ASN101      0.1653
    109  C        -19.4990  -10.1900   16.0440 C.2   101  ASN101      0.2266
    110  O        -18.8390  -10.5340   17.0220 O.2   101  ASN101     -0.2867
    111  CB       -19.2570  -10.7940   13.5940 C.3   101  ASN101      0.1155
    112  CG       -18.8110  -12.2340   13.8100 C.2   101  ASN101      0.2627
    113  OD1      -18.6490  -12.6860   14.9450 O.2   101  ASN101     -0.2716
    114  ND2      -18.6320  -12.9680   12.7110 N.am  101  ASN101     -0.0877
    115  N        -23.8050  -12.9480   12.5630 N.3   145  SER145     -0.1202
    116  CA       -22.6330  -12.7620   11.7110 C.3   145  SER145      0.2020
    117  C        -22.7330  -11.4810   10.8760 C.2   145  SER145      0.2618
    118  O        -21.7270  -10.9900   10.3580 O.2   145  SER145     -0.2717
    119  CB       -22.4480  -13.9680   10.7850 C.3   145  SER145      0.2103
    120  OG       -21.8460  -15.0450   11.4830 O.3   145  SER145     -0.2182
    121  N        -23.9420  -10.9520   10.7480 N.am  146  ASN146     -0.1974
    122  CA       -24.1650   -9.7490    9.9370 C.3   146  ASN146      0.1688
    123  C        -24.2580   -8.4940   10.7830 C.2   146  ASN146      0.2292
    124  O        -24.6330   -7.4110   10.3050 O.2   146  ASN146     -0.2864
    125  CB       -25.3850   -9.9290    9.0320 C.3   146  ASN146      0.1181
    126  CG       -25.0750  -10.8090    7.8490 C.2   146  ASN146      0.2629
    127  OD1      -23.9180  -10.9020    7.4360 O.2   146  ASN146     -0.2716
    128  ND2      -26.0890  -11.4800    7.3080 N.am  146  ASN146     -0.0877
    129  N        -21.6060   -6.3270   12.9520 N.3   148  VAL148     -0.1245
    130  CA       -20.1620   -6.2040   13.1480 C.3   148  VAL148      0.1561
    131  C        -19.8230   -5.1090   14.1530 C.2   148  VAL148      0.2260
    132  O        -20.3140   -3.9900   14.0430 O.2   148  VAL148     -0.2867
    133  CB       -19.4480   -5.8890   11.8220 C.3   148  VAL148      0.0252
    134  CG1      -17.9750   -5.5410   12.0830 C.3   148  VAL148      0.0019
    135  CG2      -19.5730   -7.0700   10.8560 C.3   148  VAL148      0.0019
    136  N        -24.0940   -5.2270    8.3090 N.3   161  ILE161     -0.1231
    137  CA       -23.5430   -5.5630    6.9940 C.3   161  ILE161      0.1692
    138  C        -24.4490   -6.5420    6.2440 C.2   161  ILE161      0.2592
    139  O        -25.3750   -7.1060    6.8280 O.2   161  ILE161     -0.2718
    140  CB       -22.0930   -6.1340    7.0710 C.3   161  ILE161      0.0266
    141  CG1      -22.0540   -7.4640    7.8370 C.3   161  ILE161      0.0019
    142  CG2      -21.1460   -5.0950    7.6850 C.3   161  ILE161      0.0020
    143  CD1      -20.8050   -8.3180    7.5500 C.3   161  ILE161      0.0001
    144  N        -24.1650   -6.7190    4.9520 N.am  162  ASP162     -0.1974
    145  CA       -24.8220   -7.7020    4.0830 C.3   162  ASP162      0.1709
    146  C        -26.2960   -7.4090    3.8160 C.2   162  ASP162      0.2293
    147  O        -27.1760   -8.0350    4.4130 O.2   162  ASP162     -0.2864
    148  CB       -24.6530   -9.1260    4.6210 C.3   162  ASP162      0.1436
    149  CG       -25.2820  -10.1820    3.7030 C.2   162  ASP162      0.3671
    150  OD1      -25.5620   -9.8760    2.5210 O.co2 162  ASP162     -0.2456
    151  OD2      -25.5110  -11.3190    4.1710 O.co2 162  ASP162     -0.2456
@<TRIPOS>BOND
     1    38    37    2
     2    37    36    1
     3    15    16    1
     4    16    17    1
     5    16    19    1
     6    44    45    1
     7    36    35    1
     8    36    39    1
     9    17    18    2
    10    45    46    1
    11    45    48    1
    12    46    47    2
    13    39    40    1
    14    48    49    1
    15    40    41    1
    16    51    50   ar
    17    20    21    1
    18    30    29    2
    19    41    42    1
    20    49    50    1
    21    42    43    1
    22    21    22    1
    23    21    24    1
    24    60    61    1
    25    29    28    1
    26    50    52   ar
    27    22    23    2
    28    12    11    2
    29    67    65    1
    30    26    24    1
    31    65    66    1
    32    65    64    1
    33    61    64    1
    34    61    62    1
    35    24    25    1
    36    28    27    1
    37    28    31    1
    38    11    10    1
    39    33    31    1
    40     1     2    1
    41    63    62    2
    42    62    68   am
    43    31    32    1
    44     9    10    1
    45     9     3   am
    46   150   149   ar
    47    10    13    1
    48    68    69    1
    49     2     3    1
    50     2     5    1
    51    13    14    1
    52    32    34    1
    53     3     4    2
    54     6     5    1
    55     6     8    1
    56   149   151   ar
    57   149   148    1
    58   146   145    1
    59   146   147    2
    60    56    55    2
    61    69    70    1
    62    69    72    1
    63     5     7    1
    64   145   148    1
    65   145   144    1
    66    55    54    1
    67    70    71    2
    68    70    77   am
    69    72    73    1
    70   144   138   am
    71    58    57    1
    72    58    59    1
    73    77    78    1
    74    57    54    1
    75    54    53    1
    76    81    78    1
    77    81    82    1
    78    78    79    1
    79    84    82   ar
    80    84    86   ar
    81    73    74    1
    82   138   139    2
    83   138   137    1
    84    59    53    1
    85    75    74   ar
    86    82    83   ar
    87    86    87   ar
    88   137   140    1
    89   137   136    1
    90    74    76   ar
    91   140   142    1
    92   140   141    1
    93   128   126   am
    94   127   126    2
    95    79    80    2
    96    79    88   am
    97   143   141    1
    98   126   125    1
    99    88    89    1
   100    83    85   ar
   101    87    85   ar
   102    93    94    1
   103    93    95    1
   104    93    92    1
   105   125   122    1
   106    89    92    1
   107    89    90    1
   108   122   121    1
   109   122   123    1
   110    91    90    2
   111   124   123    2
   112   118   117    2
   113   106   105   ar
   114   106   104   ar
   115   121   117   am
   116   119   120    1
   117   119   116    1
   118   105   103   ar
   119   135   133    1
   120   117   116    1
   121   104   102   ar
   122   103   101   ar
   123   102   101   ar
   124   116   115    1
   125   101   100    1
   126   133   134    1
   127   133   130    1
   128   100    97    1
   129   114   112   am
   130   129   130    1
   131   130   131    1
   132   111   112    1
   133   111   108    1
   134   112   113    2
   135    97    96    1
   136    97    98    1
   137   132   131    2
   138   108   107    1
   139   108   109    1
   140    98    99    2
   141   109   110    2
