@<TRIPOS>MOLECULE
tmp/4ww8C00.pdb
 135 131 0 0 0
SMALL
GASTEIGER

@<TRIPOS>ATOM
      1  N         49.6260    4.0330  -32.5150 N.3    86  THR86      -0.1203
      2  CA        49.4780    5.3020  -31.7820 C.3    86  THR86       0.1994
      3  C         48.8070    5.0770  -30.4370 C.2    86  THR86       0.2617
      4  O         49.2750    5.6240  -29.4250 O.2    86  THR86      -0.2717
      5  CB        48.8900    6.4440  -32.5380 C.3    86  THR86       0.1784
      6  OG1       48.7770    7.5720  -31.6920 O.3    86  THR86      -0.2211
      7  CG2       47.4710    6.1420  -33.1180 C.3    86  THR86       0.0376
      8  N         47.7450    4.2550  -30.3400 N.am   87  GLN87      -0.1979
      9  CA        47.0600    3.9980  -29.0300 C.3    87  GLN87       0.1601
     10  C         46.1200    2.7860  -29.2290 C.2    87  GLN87       0.2287
     11  O         45.7960    2.3890  -30.4070 O.2    87  GLN87      -0.2864
     12  CB        46.2870    5.2200  -28.5940 C.3    87  GLN87       0.0394
     13  CG        45.2980    5.7460  -29.6300 C.3    87  GLN87       0.0908
     14  CD        43.9000    5.4100  -29.1710 C.2    87  GLN87       0.2608
     15  OE1       43.6520    4.2460  -28.8590 O.2    87  GLN87      -0.2717
     16  NE2       43.0050    6.3380  -29.1890 N.am   87  GLN87      -0.0878
     17  N         42.4560    1.1560  -27.2930 N.3    89  HIS89      -0.1241
     18  CA        41.4080    1.5190  -26.3660 C.3    89  HIS89       0.1621
     19  C         40.2510    0.5330  -26.5310 C.2    89  HIS89       0.2264
     20  O         40.3130   -0.3420  -27.3830 O.2    89  HIS89      -0.2867
     21  CB        40.9180    2.9140  -26.5710 C.3    89  HIS89       0.0745
     22  CG        40.3070    3.0890  -27.9260 C.ar   89  HIS89       0.0817
     23  ND1       41.0350    3.5270  -29.0100 N.ar   89  HIS89      -0.2268
     24  CD2       39.0440    2.8410  -28.3200 C.ar   89  HIS89       0.1154
     25  CE1       40.1850    3.5340  -30.0950 C.ar   89  HIS89       0.1986
     26  NE2       39.0220    3.0250  -29.6960 N.ar   89  HIS89      -0.2212
     27  N         35.8290   -0.4690  -26.0310 N.3    91  HIS91      -0.1241
     28  CA        34.3940   -0.1110  -26.0120 C.3    91  HIS91       0.1621
     29  C         33.5740   -1.2050  -25.3450 C.2    91  HIS91       0.2264
     30  O         33.8420   -2.3680  -25.5890 O.2    91  HIS91      -0.2867
     31  CB        33.8430    0.0810  -27.4510 C.3    91  HIS91       0.0745
     32  CG        34.5800    1.1640  -28.2110 C.ar   91  HIS91       0.0817
     33  ND1       34.2390    2.4870  -28.2390 N.ar   91  HIS91      -0.2268
     34  CD2       35.6690    1.0130  -29.0380 C.ar   91  HIS91       0.1154
     35  CE1       35.1280    3.1290  -29.0540 C.ar   91  HIS91       0.1986
     36  NE2       35.9710    2.2650  -29.5180 N.ar   91  HIS91      -0.2212
     37  N         40.2490   -1.7470  -29.9080 N.3   115  HIS115     -0.1241
     38  CA        40.7040   -1.0630  -31.1650 C.3   115  HIS115      0.1621
     39  C         42.1950   -0.7990  -30.9830 C.2   115  HIS115      0.2264
     40  O         42.5390   -0.1420  -29.9820 O.2   115  HIS115     -0.2867
     41  CB        39.9210    0.1920  -31.4170 C.3   115  HIS115      0.0745
     42  CG        38.5360   -0.1170  -31.8500 C.ar  115  HIS115      0.0817
     43  ND1       37.5320    0.8110  -31.7330 N.ar  115  HIS115     -0.2268
     44  CD2       38.0430   -1.2610  -32.4890 C.ar  115  HIS115      0.1154
     45  CE1       36.3800    0.2260  -32.2690 C.ar  115  HIS115      0.1986
     46  NE2       36.6730   -1.0100  -32.7210 N.ar  115  HIS115     -0.2212
     47  N         44.9420    1.2750  -32.8420 N.3   117  VAL117     -0.1245
     48  CA        44.8830    2.3810  -33.7780 C.3   117  VAL117      0.1561
     49  C         46.2470    2.6460  -34.3350 C.2   117  VAL117      0.2260
     50  O         47.2460    2.7670  -33.5580 O.2   117  VAL117     -0.2867
     51  CB        44.3420    3.7060  -33.1630 C.3   117  VAL117      0.0252
     52  CG1       44.2170    4.8070  -34.1960 C.3   117  VAL117      0.0019
     53  CG2       43.0270    3.4720  -32.4270 C.3   117  VAL117      0.0019
     54  N         50.1030   10.6600  -35.8180 N.3   127  ALA127     -0.1231
     55  CA        48.6850   10.2310  -35.9500 C.3   127  ALA127      0.1694
     56  C         47.7230   11.4320  -36.1010 C.2   127  ALA127      0.2592
     57  O         46.7690   11.3660  -36.8450 O.2   127  ALA127     -0.2718
     58  CB        48.2790    9.3820  -34.7410 C.3   127  ALA127      0.0304
     59  N         47.9690   12.4920  -35.3460 N.am  128  SER128     -0.1952
     60  CA        47.1750   13.7070  -35.3720 C.3   128  SER128      0.1924
     61  C         47.0790   14.2490  -36.8060 C.2   128  SER128      0.2314
     62  O         45.9810   14.5300  -37.3130 O.2   128  SER128     -0.2863
     63  CB        47.7960   14.6900  -34.3440 C.3   128  SER128      0.2116
     64  OG        47.2410   15.9970  -34.4740 O.3   128  SER128     -0.2180
     65  N         45.1390   11.8790  -39.2030 N.3   131  SER131     -0.1217
     66  CA        43.8080   11.4090  -38.8500 C.3   131  SER131      0.1889
     67  C         42.7520   11.9070  -39.8010 C.2   131  SER131      0.2288
     68  O         41.7380   11.2120  -40.0250 O.2   131  SER131     -0.2866
     69  CB        43.5010   11.7240  -37.3650 C.3   131  SER131      0.2089
     70  OG        43.4350   13.1520  -37.2140 O.3   131  SER131     -0.2183
     71  N         44.6470    6.2430  -41.6000 N.3   137  LEU137     -0.1245
     72  CA        44.5670    5.3820  -40.4110 C.3   137  LEU137      0.1561
     73  C         44.2130    3.9600  -40.7630 C.2   137  LEU137      0.2260
     74  O         43.5780    3.6930  -41.8200 O.2   137  LEU137     -0.2867
     75  CB        43.5750    5.8730  -39.3540 C.3   137  LEU137      0.0270
     76  CG        43.7520    7.3100  -38.9450 C.3   137  LEU137      0.0019
     77  CD1       42.5460    7.8190  -38.1570 C.3   137  LEU137      0.0001
     78  CD2       45.0230    7.4470  -38.1390 C.3   137  LEU137      0.0001
     79  N         42.8030    0.5810  -38.3400 N.3   139  VAL139     -0.1245
     80  CA        42.4580    0.1290  -36.9930 C.3   139  VAL139      0.1561
     81  C         42.2450   -1.3580  -37.0480 C.2   139  VAL139      0.2260
     82  O         41.6010   -1.9210  -37.9880 O.2   139  VAL139     -0.2867
     83  CB        41.2460    0.8500  -36.4420 C.3   139  VAL139      0.0252
     84  CG1       40.9480    0.4040  -34.9820 C.3   139  VAL139      0.0019
     85  CG2       41.4390    2.3670  -36.4780 C.3   139  VAL139      0.0019
     86  N         36.6200    6.7650  -38.2820 N.3   195  LEU195     -0.1231
     87  CA        36.6660    6.7820  -36.7890 C.3   195  LEU195      0.1693
     88  C         35.2330    6.5840  -36.2610 C.2   195  LEU195      0.2593
     89  O         34.2840    7.1640  -36.8290 O.2   195  LEU195     -0.2718
     90  CB        37.2590    8.1020  -36.2650 C.3   195  LEU195      0.0284
     91  CG        38.6650    8.3980  -36.6980 C.3   195  LEU195      0.0019
     92  CD1       39.0130    9.7560  -36.1420 C.3   195  LEU195      0.0001
     93  CD2       39.5600    7.3340  -36.0950 C.3   195  LEU195      0.0001
     94  N         35.0670    5.8800  -35.1480 N.am  196  THR196     -0.1939
     95  CA        33.7400    5.6840  -34.5890 C.3   196  THR196      0.2028
     96  C         33.3920    6.6750  -33.4870 C.2   196  THR196      0.2643
     97  O         32.3310    6.6280  -32.8630 O.2   196  THR196     -0.2714
     98  CB        33.5130    4.2890  -34.0460 C.3   196  THR196      0.1808
     99  OG1       34.4190    4.1370  -32.9290 O.3   196  THR196     -0.2208
    100  CG2       33.8790    3.1230  -35.0340 C.3   196  THR196      0.0379
    101  N         34.3270    7.6030  -33.2560 N.am  197  THR197     -0.1937
    102  CA        34.0410    8.7390  -32.4000 C.3   197  THR197      0.2013
    103  C         34.3790   10.0270  -33.1450 C.2   197  THR197      0.2484
    104  O         35.0870    9.9570  -34.1350 O.2   197  THR197     -0.2729
    105  CB        34.8910    8.7730  -31.0800 C.3   197  THR197      0.1807
    106  OG1       36.2480    9.0330  -31.4240 O.3   197  THR197     -0.2208
    107  CG2       34.9420    7.4280  -30.3620 C.3   197  THR197      0.0379
    108  N         33.9450   11.1940  -32.6220 N.am  198  PRO198     -0.2715
    109  CA        34.3870   12.4490  -33.2600 C.3   198  PRO198      0.1521
    110  C         35.9180   12.4330  -33.2960 C.2   198  PRO198      0.2440
    111  O         36.5780   11.9270  -32.3340 O.2   198  PRO198     -0.2731
    112  CB        33.9200   13.4900  -32.2300 C.3   198  PRO198      0.0310
    113  CG        32.6210   12.9220  -31.6950 C.3   198  PRO198      0.0237
    114  CD        33.0070   11.4440  -31.5300 C.3   198  PRO198      0.0939
    115  N         36.4890   12.9600  -34.3420 N.am  199  PRO199     -0.2727
    116  CA        35.7890   13.6920  -35.4340 C.3   199  PRO199      0.1402
    117  C         35.2370   12.8700  -36.5840 C.2   199  PRO199      0.2269
    118  O         34.8150   13.4190  -37.5770 O.2   199  PRO199     -0.2865
    119  CB        36.8500   14.6310  -36.0200 C.3   199  PRO199      0.0296
    120  CG        38.1100   14.3330  -35.2490 C.3   199  PRO199      0.0237
    121  CD        37.9630   13.1210  -34.3750 C.3   199  PRO199      0.0939
    122  N         39.5900   -0.5230  -41.9300 N.3   206  TRP206     -0.1298
    123  CA        39.2170   -1.4500  -40.8230 C.3   206  TRP206      0.1291
    124  C         39.5890   -2.8520  -41.1160 C.3   206  TRP206      0.2013
    125  O         39.3900   -3.4020  -42.2660 O.3   206  TRP206     -0.2188
    126  CB        37.7040   -1.3860  -40.6730 C.3   206  TRP206      0.0497
    127  CG        37.3230   -0.1880  -39.8400 C.ar  206  TRP206     -0.0001
    128  CD1       36.8140    1.0300  -40.2840 C.ar  206  TRP206      0.0946
    129  CD2       37.4200   -0.0700  -38.4040 C.ar  206  TRP206      0.0152
    130  NE1       36.6480    1.8890  -39.2490 N.ar  206  TRP206     -0.2442
    131  CE2       36.9940    1.2580  -38.0850 C.ar  206  TRP206      0.0810
    132  CE3       37.8110   -0.9210  -37.3680 C.ar  206  TRP206      0.0012
    133  CZ2       36.9860    1.7650  -36.8100 C.ar  206  TRP206      0.0191
    134  CZ3       37.7760   -0.4300  -36.0440 C.ar  206  TRP206      0.0001
    135  CH2       37.3780    0.9050  -35.7720 C.ar  206  TRP206      0.0015
@<TRIPOS>BOND
     1   125   124    1
     2   122   123    1
     3    74    73    2
     4    71    72    1
     5   124   123    1
     6   123   126    1
     7    73    72    1
     8   126   127    1
     9    72    75    1
    10   128   127   ar
    11   128   130   ar
    12    68    67    2
    13   127   129   ar
    14    67    66    1
    15    75    76    1
    16   130   131   ar
    17    65    66    1
    18    76    77    1
    19    76    78    1
    20    66    69    1
    21   129   131   ar
    22   129   132   ar
    23    79    80    1
    24    86    87    1
    25   131   133   ar
    26    82    81    2
    27   118   117    2
    28   132   134   ar
    29    69    70    1
    30    62    61    2
    31    81    80    1
    32    80    83    1
    33    57    56    2
    34    89    88    2
    35   133   135   ar
    36    61    60    1
    37    87    90    1
    38    87    88    1
    39    91    90    1
    40    91    92    1
    41    91    93    1
    42   117   116    1
    43    85    83    1
    44    83    84    1
    45    88    94   am
    46    56    55    1
    47    56    59   am
    48   134   135   ar
    49   119   116    1
    50   119   120    1
    51    55    54    1
    52    55    58    1
    53   116   115    1
    54    60    59    1
    55    60    63    1
    56   120   121    1
    57    94    95    1
    58   100    98    1
    59    95    98    1
    60    95    96    1
    61    64    63    1
    62   121   115    1
    63   115   110   am
    64    49    48    1
    65    49    50    2
    66    52    51    1
    67   104   103    2
    68    98    99    1
    69    48    51    1
    70    48    47    1
    71    96   101   am
    72    96    97    2
    73   110   109    1
    74   110   111    2
    75   109   108    1
    76   109   112    1
    77   101   102    1
    78    51    53    1
    79   103   108   am
    80   103   102    1
    81     7     5    1
    82    46    44   ar
    83    46    45   ar
    84   108   114    1
    85     5     2    1
    86     5     6    1
    87     1     2    1
    88    44    42   ar
    89   102   105    1
    90    45    43   ar
    91   112   113    1
    92    42    43   ar
    93    42    41    1
    94     2     3    1
    95   113   114    1
    96   106   105    1
    97    41    38    1
    98    38    39    1
    99    38    37    1
   100   105   107    1
   101    39    40    2
   102     3     8   am
   103     3     4    2
   104    11    10    2
   105     8     9    1
   106    25    26   ar
   107    25    23   ar
   108    26    24   ar
   109    13    14    1
   110    13    12    1
   111    36    35   ar
   112    36    34   ar
   113    10     9    1
   114    16    14   am
   115    14    15    2
   116    35    33   ar
   117    34    32   ar
   118     9    12    1
   119    23    22   ar
   120    24    22   ar
   121    33    32   ar
   122    32    31    1
   123    22    21    1
   124    31    28    1
   125    20    19    2
   126    17    18    1
   127    21    18    1
   128    19    18    1
   129    27    28    1
   130    28    29    1
   131    30    29    2
