@<TRIPOS>MOLECULE
tmp/4ww9A00.pdb
 181 169 0 0 0
SMALL
GASTEIGER

@<TRIPOS>ATOM
      1  N         11.6770   14.0230    1.3610 N.3    19  ILE19      -0.1231
      2  CA        12.0590   14.2900    2.7470 C.3    19  ILE19       0.1692
      3  C         13.3530   15.1010    2.8720 C.2    19  ILE19       0.2593
      4  O         13.6380   15.6620    3.9300 O.2    19  ILE19      -0.2718
      5  CB        12.1430   13.0050    3.6030 C.3    19  ILE19       0.0266
      6  CG1       13.1700   12.0240    3.0270 C.3    19  ILE19       0.0019
      7  CG2       10.7590   12.3600    3.7380 C.3    19  ILE19       0.0020
      8  CD1       13.5350   10.9000    3.9780 C.3    19  ILE19       0.0001
      9  N         14.1260   15.1740    1.7930 N.am   20  SER20      -0.1938
     10  CA        15.3720   15.9350    1.8130 C.3    20  SER20       0.2055
     11  C         15.8410   16.2710    0.3970 C.2    20  SER20       0.2642
     12  O         15.7380   15.4470   -0.5080 O.2    20  SER20      -0.2714
     13  CB        16.4550   15.1670    2.5810 C.3    20  SER20       0.2130
     14  OG        17.5740   15.9900    2.8630 O.3    20  SER20      -0.2179
     15  N         16.3470   17.4890    0.2090 N.am   21  GLN21      -0.1976
     16  CA        16.7760   17.9430   -1.1120 C.3    21  GLN21       0.1601
     17  C         18.1790   18.5430   -1.0820 C.2    21  GLN21       0.2287
     18  O         18.7160   18.8420   -0.0140 O.2    21  GLN21      -0.2864
     19  CB        15.7820   18.9580   -1.6830 C.3    21  GLN21       0.0394
     20  CG        14.3960   18.4020   -1.8690 C.3    21  GLN21       0.0908
     21  CD        13.3480   19.4790   -2.1450 C.2    21  GLN21       0.2608
     22  OE1       13.4880   20.6980   -1.9690 O.2    21  GLN21      -0.2717
     23  NE2       12.1910   18.9570   -2.5750 N.am   21  GLN21      -0.0878
     24  N         20.4220   15.8920   -5.4720 N.3    23  ALA23      -0.1245
     25  CA        20.3790   14.6470   -4.7050 C.3    23  ALA23       0.1562
     26  C         19.2050   14.6310   -3.7200 C.2    23  ALA23       0.2260
     27  O         19.3600   14.9680   -2.5390 O.2    23  ALA23      -0.2867
     28  CB        21.7010   14.4270   -3.9740 C.3    23  ALA23       0.0290
     29  N         15.9830   12.8970   -1.6130 N.3    25  VAL25      -0.1245
     30  CA        15.5730   11.6740   -0.9380 C.3    25  VAL25       0.1561
     31  C         14.0570   11.6730   -0.7300 C.2    25  VAL25       0.2260
     32  O         13.4940   12.6320   -0.1990 O.2    25  VAL25      -0.2867
     33  CB        16.2800   11.5200    0.4210 C.3    25  VAL25       0.0252
     34  CG1       15.8360   10.2350    1.1190 C.3    25  VAL25       0.0019
     35  CG2       17.7950   11.5440    0.2380 C.3    25  VAL25       0.0019
     36  N         12.8930    4.0090    1.1810 N.3    45  ILE45      -0.1245
     37  CA        13.5970    5.2160    0.7880 C.3    45  ILE45       0.1561
     38  C         13.9620    5.1220   -0.6850 C.2    45  ILE45       0.2260
     39  O         14.3970    4.0720   -1.1680 O.2    45  ILE45      -0.2867
     40  CB        14.8980    5.3610    1.6030 C.3    45  ILE45       0.0252
     41  CG1       14.5890    5.8150    3.0340 C.3    45  ILE45       0.0019
     42  CG2       15.8730    6.3060    0.9050 C.3    45  ILE45       0.0019
     43  CD1       14.1430    7.2680    3.1350 C.3    45  ILE45       0.0001
     44  N         16.5670    7.2290   -3.0880 N.3    47  LYS47      -0.1245
     45  CA        17.5660    8.2780   -3.2690 C.3    47  LYS47       0.1561
     46  C         17.7770    8.5380   -4.7510 C.2    47  LYS47       0.2260
     47  O         18.1390    7.6270   -5.4970 O.2    47  LYS47      -0.2867
     48  CB        18.9050    7.8710   -2.6620 C.3    47  LYS47       0.0271
     49  CG        19.0680    8.0990   -1.1800 C.3    47  LYS47       0.0035
     50  CD        20.5240    8.4660   -0.9090 C.3    47  LYS47       0.0206
     51  CE        20.9400    8.2120    0.5290 C.3    47  LYS47       0.1093
     52  NZ        22.4050    8.4900    0.7010 N.3    47  LYS47      -0.1314
     53  N         19.8380   10.8280   -7.6110 N.3    49  ARG49      -0.1245
     54  CA        20.9970   11.6660   -7.8800 C.3    49  ARG49       0.1563
     55  C         21.2620   11.6740   -9.3840 C.2    49  ARG49       0.2260
     56  O         21.8920   10.7610   -9.9120 O.2    49  ARG49      -0.2867
     57  CB        22.2150   11.1320   -7.1200 C.3    49  ARG49       0.0307
     58  CG        23.4800   11.9840   -7.2990 C.3    49  ARG49       0.0489
     59  CD        24.6220   11.5450   -6.3820 C.3    49  ARG49       0.2205
     60  NE        24.2870   11.7670   -4.9760 N.pl3  49  ARG49      -0.0865
     61  CZ        23.8320   10.8260   -4.1560 C.cat  49  ARG49       0.5346
     62  NH1       23.7070    9.5780   -4.5920 N.pl3  49  ARG49       0.1354
     63  NH2       23.5330   11.1240   -2.8870 N.pl3  49  ARG49       0.1354
     64  N         28.6510    8.4140   -6.7460 N.3    51  ARG51      -0.1245
     65  CA        28.1350    8.3150   -5.3830 C.3    51  ARG51       0.1563
     66  C         27.0060    7.2860   -5.2840 C.2    51  ARG51       0.2260
     67  O         26.8960    6.5680   -4.2840 O.2    51  ARG51      -0.2867
     68  CB        27.6570    9.6810   -4.8790 C.3    51  ARG51       0.0307
     69  CG        28.6850   10.7430   -4.8510 C.3    51  ARG51       0.0489
     70  CD        28.0410   12.0180   -4.4070 C.3    51  ARG51       0.2205
     71  NE        27.5150   11.9210   -3.0450 N.pl3  51  ARG51      -0.0865
     72  CZ        27.3060   12.9790   -2.2700 C.cat  51  ARG51       0.5346
     73  NH1       27.5840   14.1950   -2.7290 N.pl3  51  ARG51       0.1354
     74  NH2       26.8090   12.8340   -1.0550 N.pl3  51  ARG51       0.1354
     75  N         21.2670   -0.1170    6.2080 N.2    71  PRO71      -0.2584
     76  CA        19.9930   -0.3400    5.5000 C.3    71  PRO71       0.1895
     77  C         20.1470   -1.3290    4.3560 C.2    71  PRO71       0.2359
     78  O         21.1830   -1.3400    3.6800 O.2    71  PRO71      -0.2858
     79  CB        19.6560    1.0230    4.8900 C.2    71  PRO71       0.0071
     80  CG        20.8390    1.9010    5.1040 C.2    71  PRO71       0.0180
     81  CD        21.8480    1.2140    5.9630 C.2    71  PRO71       0.0937
     82  N         16.1300    1.9260   -0.7620 N.3    85  LEU85      -0.1231
     83  CA        16.6800    1.4170    0.4880 C.3    85  LEU85       0.1693
     84  C         15.5900    1.1130    1.4970 C.2    85  LEU85       0.2592
     85  O         14.4950    1.6820    1.4520 O.2    85  LEU85      -0.2718
     86  CB        17.6300    2.4490    1.1160 C.3    85  LEU85       0.0284
     87  CG        18.8310    2.8980    0.2890 C.3    85  LEU85       0.0019
     88  CD1       19.6540    3.9530    1.0480 C.3    85  LEU85       0.0001
     89  CD2       19.6840    1.6920   -0.0620 C.3    85  LEU85       0.0001
     90  N         15.9100    0.2200    2.4190 N.am   86  GLU86      -0.1966
     91  CA        15.0880   -0.0100    3.5890 C.3    86  GLU86       0.1733
     92  C         14.9740    1.2920    4.3730 C.2    86  GLU86       0.2616
     93  O         15.9640    2.0090    4.5470 O.2    86  GLU86      -0.2715
     94  CB        15.7490   -1.0790    4.4560 C.3    86  GLU86       0.0429
     95  CG        15.1930   -1.2170    5.8610 C.3    86  GLU86       0.1163
     96  CD        15.9960   -2.2090    6.6930 C.2    86  GLU86       0.3649
     97  OE1       17.1710   -2.4610    6.3440 O.co2  86  GLU86      -0.2457
     98  OE2       15.4510   -2.7390    7.6830 O.co2  86  GLU86      -0.2457
     99  N         13.7680    1.6000    4.8370 N.am   87  PHE87      -0.1960
    100  CA        13.5720    2.7500    5.7190 C.3    87  PHE87       0.1771
    101  C         13.8960    2.3700    7.1590 C.2    87  PHE87       0.2619
    102  O         13.2880    1.4600    7.7140 O.2    87  PHE87      -0.2715
    103  CB        12.1430    3.2860    5.6470 C.3    87  PHE87       0.0574
    104  CG        11.9510    4.5620    6.4250 C.ar   87  PHE87      -0.0200
    105  CD1       11.7080    4.5270    7.7880 C.ar   87  PHE87      -0.0042
    106  CD2       12.0530    5.7880    5.7980 C.ar   87  PHE87      -0.0042
    107  CE1       11.5520    5.6990    8.5130 C.ar   87  PHE87      -0.0003
    108  CE2       11.8950    6.9640    6.5170 C.ar   87  PHE87      -0.0003
    109  CZ        11.6460    6.9130    7.8780 C.ar   87  PHE87      -0.0000
    110  N         14.8670    3.0570    7.7510 N.am   88  LEU88      -0.1977
    111  CA        15.2850    2.7780    9.1220 C.3    88  LEU88       0.1596
    112  C         14.8190    3.8720   10.0750 C.2    88  LEU88       0.2287
    113  O         14.8590    5.0590    9.7420 O.2    88  LEU88      -0.2864
    114  CB        16.8100    2.6760    9.2050 C.3    88  LEU88       0.0297
    115  CG        17.4990    1.5790    8.3930 C.3    88  LEU88       0.0022
    116  CD1       19.0010    1.6810    8.5710 C.3    88  LEU88       0.0001
    117  CD2       16.9870    0.2100    8.8140 C.3    88  LEU88       0.0001
    118  N         12.6000   12.5780   14.0560 N.3    98  PHE98      -0.1241
    119  CA        13.1120   11.3340   13.4950 C.3    98  PHE98       0.1605
    120  C         14.2320   10.7950   14.3780 C.2    98  PHE98       0.2264
    121  O         15.0520   11.5580   14.8880 O.2    98  PHE98      -0.2867
    122  CB        13.6210   11.5670   12.0710 C.3    98  PHE98       0.0534
    123  CG        14.3240   10.3800   11.4680 C.ar   98  PHE98      -0.0203
    124  CD1       13.6280    9.2170   11.1820 C.ar   98  PHE98      -0.0042
    125  CD2       15.6700   10.4410   11.1600 C.ar   98  PHE98      -0.0042
    126  CE1       14.2720    8.1200   10.6170 C.ar   98  PHE98      -0.0003
    127  CE2       16.3180    9.3520   10.5960 C.ar   98  PHE98      -0.0003
    128  CZ        15.6150    8.1920   10.3270 C.ar   98  PHE98      -0.0000
    129  N         17.1970    9.7710   14.5730 N.3   100  ASN100     -0.1240
    130  CA        18.6480    9.7710   14.4010 C.3   100  ASN100      0.1653
    131  C         19.3210   10.0820   15.7340 C.2   100  ASN100      0.2266
    132  O         18.6440   10.4280   16.7020 O.2   100  ASN100     -0.2867
    133  CB        19.1240   10.7060   13.2770 C.3   100  ASN100      0.1155
    134  CG        18.7020   12.1450   13.4800 C.2   100  ASN100      0.2627
    135  OD1       18.5320   12.6030   14.6060 O.2   100  ASN100     -0.2716
    136  ND2       18.5380   12.8730   12.3780 N.am  100  ASN100     -0.0877
    137  N         31.4020   10.7330    6.2520 N.3   140  ASP140     -0.1239
    138  CA        30.5220   11.8260    6.6590 C.3   140  ASP140      0.1674
    139  C         29.8070   11.4330    7.9430 C.2   140  ASP140      0.2266
    140  O         28.5770   11.5000    8.0400 O.2   140  ASP140     -0.2867
    141  CB        29.5010   12.1370    5.5630 C.3   140  ASP140      0.1410
    142  CG        28.7330   13.4230    5.8300 C.2   140  ASP140      0.3668
    143  OD1       29.2820   14.3120    6.5180 O.co2 140  ASP140     -0.2456
    144  OD2       27.5870   13.5440    5.3480 O.co2 140  ASP140     -0.2456
    145  N         23.6560   12.8480   12.3290 N.3   144  SER144     -0.1202
    146  CA        22.4810   12.6810   11.4750 C.3   144  SER144      0.2020
    147  C         22.5750   11.4180   10.6120 C.2   144  SER144      0.2618
    148  O         21.5700   10.9340   10.0870 O.2   144  SER144     -0.2717
    149  CB        22.2900   13.9110   10.5790 C.3   144  SER144      0.2103
    150  OG        21.9030   15.0390   11.3420 O.3   144  SER144     -0.2182
    151  N         23.7860   10.8900   10.4670 N.am  145  ASN145     -0.1974
    152  CA        24.0020    9.7110    9.6370 C.3   145  ASN145      0.1688
    153  C         24.0580    8.4210   10.4460 C.2   145  ASN145      0.2292
    154  O         24.4660    7.3600    9.9560 O.2   145  ASN145     -0.2864
    155  CB        25.2240    9.9030    8.7340 C.3   145  ASN145      0.1181
    156  CG        24.9210   10.8140    7.5600 C.2   145  ASN145      0.2629
    157  OD1       23.7670   10.9330    7.1560 O.2   145  ASN145     -0.2716
    158  ND2       25.9460   11.4640    7.0090 N.am  145  ASN145     -0.0877
    159  N         21.3830    6.2070   12.6390 N.3   147  VAL147     -0.1245
    160  CA        19.9490    6.0740   12.8650 C.3   147  VAL147      0.1561
    161  C         19.6380    4.9840   13.8840 C.2   147  VAL147      0.2260
    162  O         20.1210    3.8590   13.7780 O.2   147  VAL147     -0.2867
    163  CB        19.2020    5.8010   11.5440 C.3   147  VAL147      0.0252
    164  CG1       17.7440    5.4540   11.8100 C.3   147  VAL147      0.0019
    165  CG2       19.3170    7.0020   10.6130 C.3   147  VAL147      0.0019
    166  N         23.9200    5.0660    8.1130 N.3   160  ILE160     -0.1231
    167  CA        23.3350    5.3580    6.8100 C.3   160  ILE160      0.1692
    168  C         24.2070    6.3470    6.0480 C.2   160  ILE160      0.2592
    169  O         25.1680    6.8790    6.5940 O.2   160  ILE160     -0.2718
    170  CB        21.9010    5.9360    6.9300 C.3   160  ILE160      0.0266
    171  CG1       21.9310    7.3220    7.5880 C.3   160  ILE160      0.0019
    172  CG2       21.0040    4.9810    7.7110 C.3   160  ILE160      0.0020
    173  CD1       20.6810    8.1720    7.3260 C.3   160  ILE160      0.0001
    174  N         23.8550    6.5790    4.7860 N.am  161  ASP161     -0.1974
    175  CA        24.4880    7.5920    3.9420 C.3   161  ASP161      0.1709
    176  C         25.9620    7.3310    3.6860 C.2   161  ASP161      0.2293
    177  O         26.8270    8.0100    4.2260 O.2   161  ASP161     -0.2864
    178  CB        24.2640    8.9950    4.5110 C.3   161  ASP161      0.1436
    179  CG        22.8060    9.4210    4.4220 C.2   161  ASP161      0.3671
    180  OD1       22.0700    8.8010    3.6220 O.co2 161  ASP161     -0.2456
    181  OD2       22.3940   10.3590    5.1400 O.co2 161  ASP161     -0.2456
@<TRIPOS>BOND
     1    56    55    2
     2    55    54    1
     3    54    53    1
     4    54    57    1
     5    58    57    1
     6    58    59    1
     7    64    65    1
     8    59    60    1
     9    47    46    2
    10    24    25    1
    11    65    66    1
    12    65    68    1
    13    66    67    2
    14    60    61    2
    15    68    69    1
    16    69    70    1
    17    46    45    1
    18    25    28    1
    19    25    26    1
    20    62    61    1
    21    70    71    1
    22    61    63    1
    23    26    27    2
    24    45    44    1
    25    45    48    1
    26    71    72    2
    27    73    72    1
    28    48    49    1
    29    23    21   am
    30    72    74    1
    31    21    22    2
    32    21    20    1
    33    20    19    1
    34    19    16    1
    35    29    30    1
    36    49    50    1
    37    39    38    2
    38    16    17    1
    39    16    15    1
    40    17    18    2
    41    30    31    1
    42    30    33    1
    43    50    51    1
    44    82    83    1
    45    31    32    2
    46    38    37    1
    47    12    11    2
    48    89    87    1
    49    15    11   am
    50    35    33    1
    51    87    88    1
    52    87    86    1
    53    11    10    1
    54    33    34    1
    55    83    86    1
    56    83    84    1
    57    51    52    1
    58    37    36    1
    59    37    40    1
    60    42    40    1
    61     1     2    1
    62    85    84    2
    63    84    90   am
    64    40    41    1
    65     9    10    1
    66     9     3   am
    67    10    13    1
    68    90    91    1
    69    13    14    1
    70     2     3    1
    71     2     5    1
    72     3     4    2
    73     6     5    1
    74     6     8    1
    75    41    43    1
    76    91    92    1
    77    91    94    1
    78     5     7    1
    79   180   179   ar
    80    78    77    2
    81   176   175    1
    82   176   177    2
    83   175   178    1
    84   175   174    1
    85    77    76    1
    86    92    93    2
    87    92    99   am
    88   179   178    1
    89   179   181   ar
    90    94    95    1
    91   174   168   am
    92    99   100    1
    93    79    80    2
    94    79    76    1
    95    80    81    1
    96   144   142   ar
    97    76    75    1
    98   141   142    1
    99   141   138    1
   100   103   100    1
   101   103   104    1
   102   100   101    1
   103   106   104   ar
   104   106   108   ar
   105   142   143   ar
   106    95    96    1
   107    81    75    2
   108   168   169    2
   109   168   167    1
   110   137   138    1
   111    97    96   ar
   112   104   105   ar
   113   108   109   ar
   114   138   139    1
   115    96    98   ar
   116   167   170    1
   117   167   166    1
   118   170   171    1
   119   170   172    1
   120   158   156   am
   121   157   156    2
   122   101   102    2
   123   101   110   am
   124   173   171    1
   125   156   155    1
   126   110   111    1
   127   105   107   ar
   128   109   107   ar
   129   139   140    2
   130   115   116    1
   131   115   117    1
   132   115   114    1
   133   155   152    1
   134   111   114    1
   135   111   112    1
   136   152   153    1
   137   152   151    1
   138   113   112    2
   139   154   153    2
   140   148   147    2
   141   128   127   ar
   142   128   126   ar
   143   151   147   am
   144   149   150    1
   145   149   146    1
   146   127   125   ar
   147   147   146    1
   148   165   163    1
   149   126   124   ar
   150   125   123   ar
   151   124   123   ar
   152   123   122    1
   153   146   145    1
   154   163   164    1
   155   163   160    1
   156   122   119    1
   157   136   134   am
   158   159   160    1
   159   160   161    1
   160   133   134    1
   161   133   130    1
   162   134   135    2
   163   119   118    1
   164   119   120    1
   165   162   161    2
   166   120   121    2
   167   130   129    1
   168   130   131    1
   169   131   132    2
