@<TRIPOS>MOLECULE
tmp/4wwhB00.pdb
 136 131 0 0 0
SMALL
GASTEIGER

@<TRIPOS>ATOM
      1  N         66.5210   56.4920   -1.3370 N.3    10  THR10      -0.1218
      2  CA        67.7870   55.8720   -0.9770 C.3    10  THR10       0.1862
      3  C         68.8950   56.5830   -1.7310 C.2    10  THR10       0.2287
      4  O         68.6520   57.1790   -2.7660 O.2    10  THR10      -0.2866
      5  CB        67.7910   54.3620   -1.3070 C.3    10  THR10       0.1770
      6  OG1       69.0010   53.8170   -0.7860 O.3    10  THR10      -0.2211
      7  CG2       67.6810   54.1010   -2.8130 C.3    10  THR10       0.0375
      8  N         71.0400   54.0420   -5.1560 N.3    13  SER13      -0.1217
      9  CA        70.9120   54.2810   -6.5860 C.3    13  SER13       0.1889
     10  C         71.2110   55.7600   -6.7680 C.2    13  SER13       0.2288
     11  O         70.4810   56.6210   -6.2510 O.2    13  SER13      -0.2866
     12  CB        69.5030   53.9290   -7.0500 C.3    13  SER13       0.2089
     13  OG        69.3060   52.5280   -6.9510 O.3    13  SER13      -0.2183
     14  N         70.9790   58.1500   -8.8520 N.3    15  ARG15      -0.1231
     15  CA        70.1760   59.2300   -9.4080 C.3    15  ARG15       0.1694
     16  C         69.5140   60.0260   -8.2910 C.2    15  ARG15       0.2592
     17  O         69.3640   61.2400   -8.4270 O.2    15  ARG15      -0.2718
     18  CB        69.0940   58.7450  -10.3750 C.3    15  ARG15       0.0321
     19  CG        67.9310   57.9560   -9.7560 C.3    15  ARG15       0.0489
     20  CD        66.7270   57.9380  -10.6620 C.3    15  ARG15       0.2205
     21  NE        66.0560   59.2330  -10.6970 N.pl3  15  ARG15      -0.0865
     22  CZ        64.9040   59.4230  -11.3160 C.cat  15  ARG15       0.5346
     23  NH1       64.3490   58.4320  -11.9870 N.pl3  15  ARG15       0.1354
     24  NH2       64.3020   60.5950  -11.2580 N.pl3  15  ARG15       0.1354
     25  N         69.1000   59.3880   -7.1940 N.am   16  TRP16      -0.1976
     26  CA        68.2780   60.1010   -6.2180 C.3    16  TRP16       0.1640
     27  C         69.0580   61.1760   -5.5070 C.2    16  TRP16       0.2290
     28  O         68.4760   62.1460   -5.0140 O.2    16  TRP16      -0.2864
     29  CB        67.6480   59.1440   -5.1950 C.3    16  TRP16       0.0576
     30  CG        66.8730   58.0220   -5.8100 C.ar   16  TRP16       0.0006
     31  CD1       67.1800   56.6990   -5.7330 C.ar   16  TRP16       0.0946
     32  CD2       65.6860   58.1090   -6.6090 C.ar   16  TRP16       0.0152
     33  NE1       66.2660   55.9580   -6.4330 N.ar   16  TRP16      -0.2442
     34  CE2       65.3380   56.8000   -6.9830 C.ar   16  TRP16       0.0810
     35  CE3       64.8690   59.1610   -7.0340 C.ar   16  TRP16       0.0012
     36  CZ2       64.2130   56.5200   -7.7690 C.ar   16  TRP16       0.0191
     37  CZ3       63.7490   58.8680   -7.8190 C.ar   16  TRP16       0.0001
     38  CH2       63.4360   57.5680   -8.1650 C.ar   16  TRP16       0.0015
     39  N         58.7450   61.1630   -9.4250 N.3    87  ASP87      -0.1225
     40  CA        59.2560   60.0420  -10.2260 C.3    87  ASP87       0.1805
     41  C         58.4270   58.7780  -10.1150 C.2    87  ASP87       0.2597
     42  O         57.9910   58.2390  -11.1480 O.2    87  ASP87      -0.2718
     43  CB        60.7280   59.7150   -9.9710 C.3    87  ASP87       0.1424
     44  CG        61.2490   58.7850  -11.0220 C.2    87  ASP87       0.3668
     45  OD1       61.6350   59.2830  -12.1010 O.co2  87  ASP87      -0.2456
     46  OD2       61.1600   57.5640  -10.7890 O.co2  87  ASP87      -0.2456
     47  N         58.1910   58.3210   -8.8870 N.am   88  ARG88      -0.1979
     48  CA        57.3570   57.1590   -8.6030 C.3    88  ARG88       0.1597
     49  C         56.0210   57.6170   -8.0440 C.2    88  ARG88       0.2287
     50  O         55.9690   58.5700   -7.2680 O.2    88  ARG88      -0.2864
     51  CB        58.0250   56.2710   -7.5460 C.3    88  ARG88       0.0334
     52  CG        59.3950   55.7640   -7.9220 C.3    88  ARG88       0.0492
     53  CD        60.0550   55.0890   -6.7410 C.3    88  ARG88       0.2205
     54  NE        61.3020   54.4590   -7.1250 N.pl3  88  ARG88      -0.0865
     55  CZ        62.1160   53.8300   -6.2950 C.cat  88  ARG88       0.5346
     56  NH1       61.8790   53.8100   -4.9860 N.pl3  88  ARG88       0.1354
     57  NH2       63.1860   53.2340   -6.7720 N.pl3  88  ARG88       0.1354
     58  N         57.1100   49.5410   -6.4430 N.3   139  ASP139     -0.1239
     59  CA        57.3980   50.7390   -7.2450 C.3   139  ASP139      0.1674
     60  C         56.4730   50.6840   -8.4480 C.2   139  ASP139      0.2266
     61  O         56.6150   49.8350   -9.3110 O.2   139  ASP139     -0.2867
     62  CB        58.8660   50.7180   -7.7050 C.3   139  ASP139      0.1410
     63  CG        59.2370   51.8840   -8.5980 C.2   139  ASP139      0.3668
     64  OD1       58.3520   52.6770   -8.9880 O.co2 139  ASP139     -0.2456
     65  OD2       60.4550   51.9830   -8.8750 O.co2 139  ASP139     -0.2456
     66  N         56.3270   52.3920  -10.9850 N.3   141  ASN141     -0.1240
     67  CA        56.9880   52.5260  -12.2630 C.3   141  ASN141      0.1653
     68  C         57.3240   51.1830  -12.8840 C.2   141  ASN141      0.2266
     69  O         57.3770   51.0720  -14.1020 O.2   141  ASN141     -0.2867
     70  CB        58.3020   53.2970  -12.1240 C.3   141  ASN141      0.1155
     71  CG        58.1050   54.7650  -11.7860 C.2   141  ASN141      0.2627
     72  OD1       57.0000   55.2840  -11.7810 O.2   141  ASN141     -0.2716
     73  ND2       59.1910   55.4410  -11.5260 N.am  141  ASN141     -0.0877
     74  N         57.4120   50.2460  -17.0350 N.3   145  PHE145     -0.1241
     75  CA        58.5910   49.8700  -17.8090 C.3   145  PHE145      0.1605
     76  C         58.3440   48.5060  -18.4680 C.2   145  PHE145      0.2264
     77  O         58.7010   48.2890  -19.6370 O.2   145  PHE145     -0.2867
     78  CB        59.8650   49.7690  -16.9580 C.3   145  PHE145      0.0534
     79  CG        60.2040   51.0170  -16.1840 C.ar  145  PHE145     -0.0203
     80  CD1       60.1070   52.2830  -16.7450 C.ar  145  PHE145     -0.0042
     81  CD2       60.6580   50.9090  -14.8870 C.ar  145  PHE145     -0.0042
     82  CE1       60.4330   53.4100  -15.9990 C.ar  145  PHE145     -0.0003
     83  CE2       60.9920   52.0370  -14.1460 C.ar  145  PHE145     -0.0003
     84  CZ        60.8780   53.2860  -14.7110 C.ar  145  PHE145     -0.0000
     85  N         64.9170   46.6940   -6.4510 N.3   178  TRP178     -0.1241
     86  CA        65.7500   46.9870   -7.6070 C.3   178  TRP178      0.1605
     87  C         67.1720   46.4640   -7.3950 C.2   178  TRP178      0.2264
     88  O         68.1320   47.0320   -7.9290 O.2   178  TRP178     -0.2867
     89  CB        65.7370   48.4770   -7.9010 C.3   178  TRP178      0.0550
     90  CG        64.4280   49.0270   -8.3640 C.ar  178  TRP178      0.0003
     91  CD1       63.4540   49.6090   -7.6060 C.ar  178  TRP178      0.0946
     92  CD2       63.9680   49.1020   -9.7140 C.ar  178  TRP178      0.0152
     93  NE1       62.4260   50.0360   -8.3970 N.ar  178  TRP178     -0.2442
     94  CE2       62.7190   49.7400   -9.7020 C.ar  178  TRP178      0.0810
     95  CE3       64.5070   48.6990  -10.9400 C.ar  178  TRP178      0.0012
     96  CZ2       61.9950   49.9880  -10.8660 C.ar  178  TRP178      0.0191
     97  CZ3       63.7990   48.9520  -12.0830 C.ar  178  TRP178      0.0001
     98  CH2       62.5550   49.5810  -12.0380 C.ar  178  TRP178      0.0015
     99  N         66.9740   48.5560  -15.3630 N.3   206  TYR206     -0.1241
    100  CA        67.7100   49.4620  -14.4860 C.3   206  TYR206      0.1605
    101  C         69.1770   49.0740  -14.4650 C.2   206  TYR206      0.2264
    102  O         69.5010   47.8970  -14.3150 O.2   206  TYR206     -0.2867
    103  CB        67.0960   49.4420  -13.0510 C.3   206  TYR206      0.0534
    104  CG        67.9810   50.0600  -11.9990 C.ar  206  TYR206     -0.0201
    105  CD1       68.4370   51.3630  -12.1220 C.ar  206  TYR206     -0.0009
    106  CD2       68.3750   49.3410  -10.8760 C.ar  206  TYR206     -0.0009
    107  CE1       69.2860   51.9160  -11.1830 C.ar  206  TYR206      0.0417
    108  CE2       69.2070   49.8810   -9.9380 C.ar  206  TYR206      0.0417
    109  CZ        69.6790   51.1580  -10.0960 C.ar  206  TYR206      0.1957
    110  OH        70.5480   51.6800   -9.1720 O.3   206  TYR206     -0.2866
    111  N         68.8140   51.4970  -17.4580 N.3   235  GLN235     -0.1231
    112  CA        68.1680   52.7700  -17.1740 C.3   235  GLN235      0.1698
    113  C         68.9170   53.4850  -16.0740 C.2   235  GLN235      0.2592
    114  O         69.3080   52.8630  -15.0910 O.2   235  GLN235     -0.2718
    115  CB        66.7250   52.5630  -16.7240 C.3   235  GLN235      0.0381
    116  CG        65.9670   53.8610  -16.5450 C.3   235  GLN235      0.0905
    117  CD        64.4860   53.6950  -16.2150 C.2   235  GLN235      0.2608
    118  OE1       63.7340   54.6500  -16.3820 O.2   235  GLN235     -0.2717
    119  NE2       64.0500   52.5130  -15.7790 N.am  235  GLN235     -0.0878
    120  N         69.0620   54.8010  -16.2750 N.am  236  ASP236     -0.1974
    121  CA        69.5590   55.8360  -15.3530 C.3   236  ASP236      0.1709
    122  C         70.9140   56.3990  -15.7690 C.2   236  ASP236      0.2293
    123  O         71.3310   57.4220  -15.2290 O.2   236  ASP236     -0.2864
    124  CB        69.6470   55.4030  -13.8820 C.3   236  ASP236      0.1436
    125  CG        68.3160   55.2950  -13.1990 C.2   236  ASP236      0.3671
    126  OD1       67.2850   55.2900  -13.8850 O.co2 236  ASP236     -0.2456
    127  OD2       68.3280   55.1800  -11.9520 O.co2 236  ASP236     -0.2456
    128  N         67.6610   59.7870  -18.1510 N.3   256  LYS256     -0.1245
    129  CA        66.5830   60.5800  -17.5940 C.3   256  LYS256      0.1561
    130  C         67.2560   61.7080  -16.8210 C.2   256  LYS256      0.2260
    131  O         67.8320   61.4990  -15.7570 O.2   256  LYS256     -0.2867
    132  CB        65.7030   59.7040  -16.7010 C.3   256  LYS256      0.0271
    133  CG        65.1480   58.4830  -17.4420 C.3   256  LYS256      0.0035
    134  CD        63.9390   57.8530  -16.7650 C.3   256  LYS256      0.0206
    135  CE        64.2050   57.5120  -15.3230 C.3   256  LYS256      0.1093
    136  NZ        63.0900   56.7090  -14.7770 N.3   256  LYS256     -0.1314
@<TRIPOS>BOND
     1    77    76    2
     2    76    75    1
     3   128   129    1
     4    75    74    1
     5    75    78    1
     6   129   130    1
     7   129   132    1
     8   111   112    1
     9   133   134    1
    10   133   132    1
    11   112   115    1
    12   112   113    1
    13    78    79    1
    14   130   131    2
    15   134   135    1
    16    80    79   ar
    17    80    82   ar
    18   115   116    1
    19   116   117    1
    20   118   117    2
    21   120   113   am
    22   120   121    1
    23   117   119   am
    24    79    81   ar
    25   113   114    2
    26    82    84   ar
    27   122   121    1
    28   122   123    2
    29    99   100    1
    30   121   124    1
    31   135   136    1
    32    81    83   ar
    33    84    83   ar
    34   100   101    1
    35   100   103    1
    36   101   102    2
    37    69    68    2
    38   126   125   ar
    39   124   125    1
    40   125   127   ar
    41   103   104    1
    42    68    67    1
    43    67    70    1
    44    67    66    1
    45    70    71    1
    46   105   104   ar
    47   105   107   ar
    48    45    44   ar
    49    97    98   ar
    50    97    95   ar
    51    98    96   ar
    52   104   106   ar
    53    23    22    1
    54    71    72    2
    55    71    73   am
    56    22    24    1
    57    22    21    2
    58   107   109   ar
    59    42    41    2
    60    44    46   ar
    61    44    43    1
    62    95    92   ar
    63   106   108   ar
    64    96    94   ar
    65    21    20    1
    66    20    19    1
    67    18    19    1
    68    18    15    1
    69    40    41    1
    70    40    43    1
    71    40    39    1
    72    41    47   am
    73   109   108   ar
    74   109   110    1
    75    92    94   ar
    76    92    90   ar
    77    94    93   ar
    78    15    14    1
    79    15    16    1
    80    61    60    2
    81    64    63   ar
    82    47    48    1
    83    65    63   ar
    84    48    49    1
    85    48    51    1
    86    63    62    1
    87    60    59    1
    88    17    16    2
    89    93    91   ar
    90    90    89    1
    91    90    91   ar
    92    16    25   am
    93    38    37   ar
    94    38    36   ar
    95    49    50    2
    96    88    87    2
    97    52    51    1
    98    52    53    1
    99    89    86    1
   100    37    35   ar
   101    36    34   ar
   102    62    59    1
   103    86    87    1
   104    86    85    1
   105    59    58    1
   106    25    26    1
   107    54    53    1
   108    54    55    2
   109    12    13    1
   110    12     9    1
   111    35    32   ar
   112    34    32   ar
   113    34    33   ar
   114    57    55    1
   115    10     9    1
   116    10    11    2
   117    32    30   ar
   118     9     8    1
   119    33    31   ar
   120    55    56    1
   121    26    27    1
   122    26    29    1
   123    30    31   ar
   124    30    29    1
   125    27    28    2
   126     7     5    1
   127     4     3    2
   128     3     2    1
   129     1     2    1
   130     5     2    1
   131     5     6    1
