@<TRIPOS>MOLECULE
tmp/4wwlA00.pdb
 114 107 0 0 0
SMALL
GASTEIGER

@<TRIPOS>ATOM
      1  N         19.9720   15.1360  102.4520 N.3    62  THR62      -0.1218
      2  CA        20.8820   16.1940  102.0140 C.3    62  THR62       0.1862
      3  C         21.0820   16.3160  100.5300 C.2    62  THR62       0.2287
      4  O         21.5870   15.3890   99.9060 O.2    62  THR62      -0.2866
      5  CB        22.2160   16.0840  102.8180 C.3    62  THR62       0.1770
      6  OG1       21.8650   15.8240  104.1760 O.3    62  THR62      -0.2211
      7  CG2       23.1220   17.3530  102.7210 C.3    62  THR62       0.0375
      8  N         15.8760   19.2510  102.5610 N.3    68  ASP68      -0.1225
      9  CA        16.7270   19.4740  103.7520 C.3    68  ASP68       0.1805
     10  C         15.9920   20.0910  104.9240 C.2    68  ASP68       0.2597
     11  O         16.1470   19.6170  106.0380 O.2    68  ASP68      -0.2718
     12  CB        17.9440   20.3700  103.4250 C.3    68  ASP68       0.1424
     13  CG        18.8690   19.8470  102.3590 C.2    68  ASP68       0.3668
     14  OD1       18.7400   18.6630  101.9930 O.co2  68  ASP68      -0.2456
     15  OD2       19.7090   20.6350  101.8710 O.co2  68  ASP68      -0.2456
     16  N         15.2150   21.1580  104.6740 N.am   69  LEU69      -0.1979
     17  CA        14.4850   21.8790  105.7280 C.3    69  LEU69       0.1596
     18  C         13.2680   21.1210  106.2420 C.2    69  LEU69       0.2287
     19  O         12.6480   21.5480  107.2060 O.2    69  LEU69      -0.2864
     20  CB        14.1080   23.3010  105.2850 C.3    69  LEU69       0.0297
     21  CG        15.2360   24.2440  104.8560 C.3    69  LEU69       0.0022
     22  CD1       14.7790   25.6870  104.9730 C.3    69  LEU69       0.0001
     23  CD2       16.5090   24.0650  105.7090 C.3    69  LEU69       0.0001
     24  N         13.6880   17.6460  106.6700 N.3    71  ASP71      -0.1239
     25  CA        14.3400   16.4220  107.1460 C.3    71  ASP71       0.1674
     26  C         13.9820   15.2070  106.2960 C.2    71  ASP71       0.2266
     27  O         13.7530   14.1240  106.8270 O.2    71  ASP71      -0.2867
     28  CB        14.0710   16.2220  108.6530 C.3    71  ASP71       0.1410
     29  CG        14.5700   17.4090  109.4770 C.2    71  ASP71       0.3668
     30  OD1       15.6170   17.9850  109.1190 O.co2  71  ASP71      -0.2456
     31  OD2       13.8950   17.7870  110.4330 O.co2  71  ASP71      -0.2456
     32  N         23.6730   13.2490  109.1200 N.3    95  ASP95      -0.1225
     33  CA        23.8250   14.7080  109.0000 C.3    95  ASP95       0.1805
     34  C         22.9080   15.3590  110.0190 C.2    95  ASP95       0.2598
     35  O         23.0800   16.5100  110.3680 O.2    95  ASP95      -0.2718
     36  CB        23.4240   15.1940  107.5840 C.3    95  ASP95       0.1424
     37  CG        24.4580   14.9090  106.5080 C.2    95  ASP95       0.3668
     38  OD1       25.5090   14.3150  106.8360 O.co2  95  ASP95      -0.2456
     39  OD2       24.1810   15.2100  105.3230 O.co2  95  ASP95      -0.2456
     40  N         21.9080   14.6180  110.4700 N.am   96  ASN96      -0.1961
     41  CA        20.9360   15.1010  111.4330 C.3    96  ASN96       0.1804
     42  C         21.1340   14.3280  112.7430 C.2    96  ASN96       0.2463
     43  O         21.6530   13.2190  112.6910 O.2    96  ASN96      -0.2730
     44  CB        19.5110   14.8310  110.8980 C.3    96  ASN96       0.1195
     45  CG        19.1750   15.5350  109.6140 C.2    96  ASN96       0.2630
     46  OD1       19.0320   16.7460  109.5590 O.2    96  ASN96      -0.2716
     47  ND2       18.9700   14.7820  108.5680 N.am   96  ASN96      -0.0877
     48  N         20.6540   14.8440  113.9030 N.am   97  PRO97      -0.2727
     49  CA        20.7320   14.0540  115.1470 C.3    97  PRO97       0.1402
     50  C         20.0670   12.6850  114.9780 C.2    97  PRO97       0.2269
     51  O         19.2070   12.5170  114.1060 O.2    97  PRO97      -0.2865
     52  CB        19.9590   14.9200  116.1550 C.3    97  PRO97       0.0296
     53  CG        20.0750   16.3210  115.6280 C.3    97  PRO97       0.0237
     54  CD        19.9770   16.1420  114.1390 C.3    97  PRO97       0.0939
     55  N         18.1490   31.8880  102.2940 N.3   395  TYR395     -0.1241
     56  CA        18.7920   30.6820  102.8060 C.3   395  TYR395      0.1605
     57  C         18.9590   29.6650  101.6310 C.2   395  TYR395      0.2264
     58  O         19.9760   28.9720  101.5760 O.2   395  TYR395     -0.2867
     59  CB        18.0070   30.0820  104.0100 C.3   395  TYR395      0.0534
     60  CG        18.7410   28.9940  104.7760 C.ar  395  TYR395     -0.0201
     61  CD1       20.1160   28.8170  104.6380 C.ar  395  TYR395     -0.0009
     62  CD2       18.0670   28.1690  105.6720 C.ar  395  TYR395     -0.0009
     63  CE1       20.7890   27.7990  105.3120 C.ar  395  TYR395      0.0417
     64  CE2       18.7380   27.1710  106.3840 C.ar  395  TYR395      0.0417
     65  CZ        20.0950   26.9830  106.1910 C.ar  395  TYR395      0.1957
     66  OH        20.7650   25.9880  106.8660 O.3   395  TYR395     -0.2866
     67  N         22.2230   27.5340  100.4410 N.3   399  LEU399     -0.1245
     68  CA        22.1740   26.0730  100.3150 C.3   399  LEU399      0.1561
     69  C         22.5720   25.5710   98.9300 C.2   399  LEU399      0.2260
     70  O         23.1090   24.4800   98.8280 O.2   399  LEU399     -0.2867
     71  CB        20.8030   25.5090  100.7340 C.3   399  LEU399      0.0270
     72  CG        20.5130   25.5490  102.2330 C.3   399  LEU399      0.0019
     73  CD1       19.0240   25.3530  102.4950 C.3   399  LEU399      0.0001
     74  CD2       21.3270   24.4750  102.9840 C.3   399  LEU399      0.0001
     75  N         26.4930   25.5920   98.8650 N.3   402  GLN402     -0.1231
     76  CA        27.0380   24.5330   99.7250 C.3   402  GLN402      0.1683
     77  C         25.9410   23.5040   99.9720 C.2   402  GLN402      0.2434
     78  O         25.3100   23.5260  101.0220 O.2   402  GLN402     -0.2733
     79  CB        27.5510   25.1430  101.0420 C.3   402  GLN402      0.0380
     80  CG        28.5200   26.3110  100.8460 C.3   402  GLN402      0.0905
     81  CD        29.8960   25.7910  100.5760 C.2   402  GLN402      0.2608
     82  OE1       30.7520   25.8040  101.4600 O.2   402  GLN402     -0.2717
     83  NE2       30.1300   25.2740   99.3650 N.am  402  GLN402     -0.0878
     84  N         25.6960   22.5980   99.0030 N.am  403  PRO403     -0.2729
     85  CA        24.5630   21.6660   99.1380 C.3   403  PRO403      0.1401
     86  C         24.8480   20.2970   99.7080 C.2   403  PRO403      0.2269
     87  O         23.9010   19.5360   99.9150 O.2   403  PRO403     -0.2865
     88  CB        24.0870   21.5100   97.6810 C.3   403  PRO403      0.0296
     89  CG        25.3210   21.6690   96.8520 C.3   403  PRO403      0.0237
     90  CD        26.3470   22.4530   97.6830 C.3   403  PRO403      0.0939
     91  N         26.3770   19.1010  102.6190 N.3   405  GLY405     -0.1225
     92  CA        26.4830   18.7500  104.0270 C.3   405  GLY405      0.1811
     93  C         27.9140   18.4530  104.4610 C.2   405  GLY405      0.2280
     94  O         28.1240   17.5830  105.3020 O.2   405  GLY405     -0.2866
     95  N         28.2120   22.4060  109.9740 N.3   496  CYS496     -0.1235
     96  CA        27.8910   22.2480  108.5570 C.3   496  CYS496      0.1677
     97  C         28.3610   23.4710  107.7690 C.2   496  CYS496      0.2270
     98  O         28.2170   24.5890  108.2590 O.2   496  CYS496     -0.2867
     99  CB        26.3930   22.0100  108.3690 C.3   496  CYS496      0.0956
    100  SG        25.8790   21.8670  106.6380 S.3   496  CYS496     -0.0801
    101  N         27.0790   24.9910  105.0020 N.3   498  ALA498     -0.1231
    102  CA        26.0070   25.9340  104.6500 C.3   498  ALA498      0.1694
    103  C         25.5720   26.7880  105.8700 C.2   498  ALA498      0.2591
    104  O         25.3250   27.9790  105.7080 O.2   498  ALA498     -0.2718
    105  CB        24.8110   25.1860  104.0530 C.3   498  ALA498      0.0304
    106  N         25.5070   26.1890  107.0780 N.am  499  GLU499     -0.1979
    107  CA        25.1660   26.9120  108.3080 C.3   499  GLU499      0.1602
    108  C         26.2400   27.9640  108.6180 C.2   499  GLU499      0.2287
    109  O         25.9010   29.0870  108.9780 O.2   499  GLU499     -0.2864
    110  CB        24.9720   25.9270  109.4990 C.3   499  GLU499      0.0415
    111  CG        24.7000   26.5810  110.8600 C.3   499  GLU499      0.1163
    112  CD        25.9000   27.1490  111.6130 C.2   499  GLU499      0.3649
    113  OE1       26.7740   26.3650  112.0580 O.co2 499  GLU499     -0.2457
    114  OE2       25.9410   28.3870  111.7940 O.co2 499  GLU499     -0.2457
@<TRIPOS>BOND
     1    89    88    1
     2    89    90    1
     3    88    85    1
     4    90    84    1
     5    70    69    2
     6    75    76    1
     7    69    68    1
     8    84    85    1
     9    84    77   am
    10    85    86    1
    11    83    81   am
    12    86    87    2
    13    76    77    1
    14    76    79    1
    15     4     3    2
    16    77    78    2
    17    68    67    1
    18    68    71    1
    19     3     2    1
    20    81    80    1
    21    81    82    2
    22    71    72    1
    23    80    79    1
    24    58    57    2
    25    57    56    1
    26    15    13   ar
    27    14    13   ar
    28     2     1    1
    29     2     5    1
    30    72    73    1
    31    72    74    1
    32    55    56    1
    33    13    12    1
    34     8     9    1
    35    91    92    1
    36     7     5    1
    37    56    59    1
    38     5     6    1
    39    12     9    1
    40     9    10    1
    41    59    60    1
    42    92    93    1
    43   105   102    1
    44    93    94    2
    45    61    60   ar
    46    61    63   ar
    47   102   101    1
    48   102   103    1
    49    16    10   am
    50    16    17    1
    51    60    62   ar
    52    21    22    1
    53    21    20    1
    54    21    23    1
    55    10    11    2
    56    20    17    1
    57    63    65   ar
    58    39    37   ar
    59    62    64   ar
    60   104   103    2
    61    17    18    1
    62   103   106   am
    63    65    64   ar
    64    65    66    1
    65    18    19    2
    66    26    27    2
    67    26    25    1
    68    37    38   ar
    69    37    36    1
    70   100    99    1
    71    24    25    1
    72   106   107    1
    73    25    28    1
    74    36    33    1
    75    97    98    2
    76    97    96    1
    77   107   108    1
    78   107   110    1
    79    99    96    1
    80    96    95    1
    81    47    45   am
    82   108   109    2
    83    28    29    1
    84    33    32    1
    85    33    34    1
    86    30    29   ar
    87    29    31   ar
    88   110   111    1
    89    46    45    2
    90    45    44    1
    91    34    35    2
    92    34    40   am
    93    40    41    1
    94   111   112    1
    95    44    41    1
    96    41    42    1
    97   112   114   ar
    98   112   113   ar
    99    43    42    2
   100    42    48   am
   101    48    54    1
   102    48    49    1
   103    51    50    2
   104    54    53    1
   105    50    49    1
   106    49    52    1
   107    53    52    1
