@<TRIPOS>MOLECULE
tmp/4wwnA00.pdb
 168 161 0 0 0
SMALL
GASTEIGER

@<TRIPOS>ATOM
      1  N         14.6980   13.5150   12.1180 N.3   556  LYS556     -0.1231
      2  CA        15.2700   14.7710   11.6330 C.3   556  LYS556      0.1693
      3  C         16.7940   14.6790   11.5660 C.2   556  LYS556      0.2592
      4  O         17.3560   13.6360   11.8470 O.2   556  LYS556     -0.2718
      5  CB        14.8150   15.9350   12.5280 C.3   556  LYS556      0.0285
      6  CG        15.3260   15.8550   13.9520 C.3   556  LYS556      0.0035
      7  CD        14.6420   16.8360   14.8900 C.3   556  LYS556      0.0206
      8  CE        15.0060   16.5140   16.3410 C.3   556  LYS556      0.1093
      9  NZ        14.2740   17.3130   17.3600 N.3   556  LYS556     -0.1314
     10  N         17.4450   15.7700   11.1800 N.am  557  VAL557     -0.1966
     11  CA        18.8900   15.8160   11.0180 C.3   557  VAL557      0.1727
     12  C         19.4450   17.0870   11.6360 C.2   557  VAL557      0.2616
     13  O         18.9780   18.1800   11.3430 O.2   557  VAL557     -0.2715
     14  CB        19.2720   15.8180    9.5340 C.3   557  VAL557      0.0290
     15  CG1       20.7180   16.2560    9.3650 C.3   557  VAL557      0.0023
     16  CG2       19.0370   14.4480    8.9280 C.3   557  VAL557      0.0023
     17  N         20.4590   16.9530   12.4780 N.am  558  MET558     -0.1977
     18  CA        20.9730   18.1010   13.2100 C.3   558  MET558      0.1605
     19  C         21.4940   19.1700   12.2560 C.2   558  MET558      0.2287
     20  O         22.0470   18.8490   11.2030 O.2   558  MET558     -0.2864
     21  CB        22.0930   17.6780   14.1710 C.3   558  MET558      0.0413
     22  CG        22.4480   18.7350   15.2070 C.3   558  MET558      0.0598
     23  SD        23.4460   18.1110   16.5750 S.3   558  MET558     -0.1393
     24  CE        23.4000   19.5450   17.6550 C.3   558  MET558      0.0692
     25  N         24.3380   14.3690   12.2230 N.3   564  PRO564     -0.2116
     26  CA        23.8240   13.1350   12.7980 C.3   564  PRO564      0.1372
     27  C         22.3250   12.9740   12.5760 C.2   564  PRO564      0.2244
     28  O         21.6010   13.9630   12.6380 O.2   564  PRO564     -0.2868
     29  CB        24.0860   13.3090   14.3020 C.3   564  PRO564      0.0268
     30  CG        24.2040   14.7820   14.5060 C.3   564  PRO564      0.0207
     31  CD        24.8260   15.3020   13.2490 C.3   564  PRO564      0.0892
     32  N         18.7820   12.0340   13.8880 N.3   566  TRP566     -0.1241
     33  CA        17.8810   11.7480   14.9980 C.3   566  TRP566      0.1605
     34  C         16.7830   10.8700   14.4680 C.2   566  TRP566      0.2264
     35  O         16.0150   11.3170   13.6370 O.2   566  TRP566     -0.2867
     36  CB        17.3300   13.0620   15.5080 C.3   566  TRP566      0.0550
     37  CG        16.3230   12.9960   16.6190 C.ar  566  TRP566      0.0003
     38  CD1       15.0160   12.5150   16.5680 C.ar  566  TRP566      0.0946
     39  CD2       16.5000   13.4840   17.9870 C.ar  566  TRP566      0.0152
     40  NE1       14.3930   12.6590   17.7870 N.ar  566  TRP566     -0.2442
     41  CE2       15.2260   13.2330   18.6830 C.ar  566  TRP566      0.0810
     42  CE3       17.5430   14.0720   18.6850 C.ar  566  TRP566      0.0012
     43  CZ2       15.0380   13.5690   20.0170 C.ar  566  TRP566      0.0191
     44  CZ3       17.3360   14.4190   20.0290 C.ar  566  TRP566      0.0001
     45  CH2       16.1110   14.1690   20.6760 C.ar  566  TRP566      0.0015
     46  N         20.1070    8.1110   17.8760 N.3   585  ILE585     -0.1245
     47  CA        20.9190    9.0290   17.0720 C.3   585  ILE585      0.1561
     48  C         22.0110    8.2550   16.3350 C.2   585  ILE585      0.2260
     49  O         22.7440    7.4670   16.9450 O.2   585  ILE585     -0.2867
     50  CB        21.6280   10.0950   17.9210 C.3   585  ILE585      0.0252
     51  CG1       20.6590   11.1970   18.3450 C.3   585  ILE585      0.0019
     52  CG2       22.7670   10.7120   17.1370 C.3   585  ILE585      0.0019
     53  CD1       21.1520   12.0330   19.5010 C.3   585  ILE585      0.0001
     54  N         24.1140    7.2680   29.0080 N.3   621  TYR621     -0.1241
     55  CA        23.2730    6.8340   27.9030 C.3   621  TYR621      0.1605
     56  C         24.0190    5.7880   27.0560 C.2   621  TYR621      0.2264
     57  O         25.2430    5.7840   27.0200 O.2   621  TYR621     -0.2867
     58  CB        22.8390    8.0520   27.0630 C.3   621  TYR621      0.0534
     59  CG        23.9940    8.9260   26.6510 C.ar  621  TYR621     -0.0201
     60  CD1       24.7210    8.6360   25.5240 C.ar  621  TYR621     -0.0009
     61  CD2       24.3750   10.0220   27.4160 C.ar  621  TYR621     -0.0009
     62  CE1       25.7970    9.4150   25.1460 C.ar  621  TYR621      0.0417
     63  CE2       25.4530   10.8060   27.0500 C.ar  621  TYR621      0.0417
     64  CZ        26.1570   10.4920   25.9100 C.ar  621  TYR621      0.1957
     65  OH        27.2140   11.2600   25.5170 O.3   621  TYR621     -0.2866
     66  N         23.7410    6.2560   19.3300 N.3   633  ILE633     -0.1231
     67  CA        23.6430    6.8540   20.6710 C.3   633  ILE633      0.1692
     68  C         22.1850    6.8980   21.1510 C.2   633  ILE633      0.2592
     69  O         21.2840    7.1750   20.3850 O.2   633  ILE633     -0.2718
     70  CB        24.1780    8.3070   20.6760 C.3   633  ILE633      0.0266
     71  CG1       25.6020    8.3880   20.0990 C.3   633  ILE633      0.0019
     72  CG2       24.1670    8.8860   22.0810 C.3   633  ILE633      0.0020
     73  CD1       26.1060    9.8100   19.9100 C.3   633  ILE633      0.0001
     74  N         21.9500    6.6620   22.4310 N.am  634  GLU634     -0.1966
     75  CA        20.5840    6.6150   22.9380 C.3   634  GLU634      0.1733
     76  C         20.0400    8.0270   23.0610 C.2   634  GLU634      0.2616
     77  O         20.6710    8.8850   23.6830 O.2   634  GLU634     -0.2715
     78  CB        20.5750    5.9340   24.2980 C.3   634  GLU634      0.0429
     79  CG        19.2140    5.7050   24.9280 C.3   634  GLU634      0.1163
     80  CD        19.3190    5.1080   26.3340 C.2   634  GLU634      0.3649
     81  OE1       18.3260    5.1290   27.0710 O.co2 634  GLU634     -0.2457
     82  OE2       20.3940    4.6350   26.7320 O.co2 634  GLU634     -0.2457
     83  N         18.8830    8.2830   22.4590 N.am  635  ILE635     -0.1963
     84  CA        18.2030    9.5500   22.6790 C.3   635  ILE635      0.1727
     85  C         17.5350    9.5050   24.0420 C.2   635  ILE635      0.2616
     86  O         16.7140    8.6160   24.3140 O.2   635  ILE635     -0.2715
     87  CB        17.1480    9.8490   21.6070 C.3   635  ILE635      0.0290
     88  CG1       17.8440   10.1980   20.2830 C.3   635  ILE635      0.0022
     89  CG2       16.2260   10.9740   22.0760 C.3   635  ILE635      0.0023
     90  CD1       16.8950   10.4490   19.1290 C.3   635  ILE635      0.0001
     91  N         17.9120   10.4520   24.8950 N.am  636  VAL636     -0.1977
     92  CA        17.3100   10.5930   26.2080 C.3   636  VAL636      0.1596
     93  C         16.1020   11.4890   26.0560 C.2   636  VAL636      0.2287
     94  O         16.2320   12.6350   25.6320 O.2   636  VAL636     -0.2864
     95  CB        18.2770   11.2200   27.2250 C.3   636  VAL636      0.0276
     96  CG1       17.5660   11.4820   28.5390 C.3   636  VAL636      0.0022
     97  CG2       19.4780   10.3170   27.4420 C.3   636  VAL636      0.0022
     98  N         14.7250   15.8550   27.0880 N.3   639  ALA639     -0.1231
     99  CA        16.0350   16.3920   27.4530 C.3   639  ALA639      0.1694
    100  C         16.4230   17.5380   26.5360 C.2   639  ALA639      0.2593
    101  O         16.1940   17.4890   25.3350 O.2   639  ALA639     -0.2718
    102  CB        17.0810   15.2970   27.4000 C.3   639  ALA639      0.0304
    103  N         16.9990   18.5820   27.1090 N.am  640  THR640     -0.1939
    104  CA        17.4440   19.7200   26.3240 C.3   640  THR640      0.2028
    105  C         18.8600   20.0840   26.7620 C.2   640  THR640      0.2642
    106  O         19.2830   19.7210   27.8660 O.2   640  THR640     -0.2714
    107  CB        16.4860   20.9160   26.4960 C.3   640  THR640      0.1808
    108  OG1       16.6840   21.8510   25.4300 O.3   640  THR640     -0.2208
    109  CG2       16.7040   21.6120   27.8280 C.3   640  THR640      0.0379
    110  N         19.6010   20.7720   25.8900 N.am  641  THR641     -0.1950
    111  CA        20.9340   21.2730   26.2600 C.3   641  THR641      0.1897
    112  C         20.7850   22.4380   27.2250 C.2   641  THR641      0.2313
    113  O         19.7520   23.1010   27.2340 O.2   641  THR641     -0.2863
    114  CB        21.7510   21.7600   25.0400 C.3   641  THR641      0.1794
    115  OG1       20.9770   22.6950   24.2680 O.3   641  THR641     -0.2208
    116  CG2       22.1900   20.5830   24.1660 C.3   641  THR641      0.0378
    117  N         20.7710   25.7240   24.8080 N.3   644  LYS644     -0.1245
    118  CA        19.4880   26.0940   24.2070 C.3   644  LYS644      0.1561
    119  C         18.5260   26.6910   25.2350 C.2   644  LYS644      0.2260
    120  O         17.6960   27.5200   24.8840 O.2   644  LYS644     -0.2867
    121  CB        18.8530   24.8770   23.5260 C.3   644  LYS644      0.0271
    122  CG        17.6430   25.1760   22.6540 C.3   644  LYS644      0.0035
    123  CD        17.1930   23.9230   21.9140 C.3   644  LYS644      0.0206
    124  CE        15.9170   24.1480   21.1110 C.3   644  LYS644      0.1093
    125  NZ        15.5020   22.9100   20.3860 N.3   644  LYS644     -0.1314
    126  N         26.7210   23.5260   25.4370 N.3   704  ASP704     -0.1239
    127  CA        25.8000   22.8410   24.5300 C.3   704  ASP704      0.1674
    128  C         26.0860   21.3380   24.5540 C.2   704  ASP704      0.2266
    129  O         25.3490   20.5590   23.9430 O.2   704  ASP704     -0.2867
    130  CB        25.8560   23.3940   23.0900 C.3   704  ASP704      0.1410
    131  CG        27.2700   23.5410   22.5580 C.2   704  ASP704      0.3668
    132  OD1       28.0740   24.2640   23.1890 O.co2 704  ASP704     -0.2456
    133  OD2       27.5690   22.9560   21.4940 O.co2 704  ASP704     -0.2456
    134  N         23.4640   18.4810   29.0970 N.3   707  MET707     -0.1245
    135  CA        22.0440   18.3810   28.9190 C.3   707  MET707      0.1570
    136  C         21.4010   18.2250   30.2850 C.2   707  MET707      0.2261
    137  O         22.0500   17.8120   31.2520 O.2   707  MET707     -0.2867
    138  CB        21.7190   17.1750   28.0330 C.3   707  MET707      0.0387
    139  CG        22.2450   17.2670   26.6010 C.3   707  MET707      0.0595
    140  SD        21.2700   16.2790   25.4490 S.3   707  MET707     -0.1393
    141  CE        19.7860   17.2530   25.3060 C.3   707  MET707      0.0692
    142  N         23.1800   15.8870   32.7310 N.3   715  PHE715     -0.1241
    143  CA        24.1030   14.8870   32.1930 C.3   715  PHE715      0.1605
    144  C         24.9670   15.3750   31.0220 C.2   715  PHE715      0.2264
    145  O         24.4660   15.9870   30.0590 O.2   715  PHE715     -0.2867
    146  CB        23.3550   13.5850   31.8490 C.3   715  PHE715      0.0534
    147  CG        22.4480   13.6840   30.6670 C.ar  715  PHE715     -0.0203
    148  CD1       21.1930   14.2500   30.7860 C.ar  715  PHE715     -0.0042
    149  CD2       22.8290   13.1680   29.4460 C.ar  715  PHE715     -0.0042
    150  CE1       20.3430   14.3360   29.6890 C.ar  715  PHE715     -0.0003
    151  CE2       21.9860   13.2530   28.3490 C.ar  715  PHE715     -0.0003
    152  CZ        20.7450   13.8430   28.4660 C.ar  715  PHE715     -0.0000
    153  N         27.4410   15.1720   27.6980 N.3   717  ILE717     -0.1231
    154  CA        27.3260   14.4160   26.4550 C.3   717  ILE717      0.1692
    155  C         28.5560   14.5820   25.5780 C.2   717  ILE717      0.2592
    156  O         29.4650   15.3110   25.9250 O.2   717  ILE717     -0.2718
    157  CB        26.0650   14.8120   25.6630 C.3   717  ILE717      0.0266
    158  CG1       26.1210   16.2790   25.2050 C.3   717  ILE717      0.0019
    159  CG2       24.8310   14.5430   26.5050 C.3   717  ILE717      0.0020
    160  CD1       25.2030   16.6060   24.0350 C.3   717  ILE717      0.0001
    161  N         28.5730   13.8650   24.4620 N.am  718  ASP718     -0.1974
    162  CA        29.5640   14.0490   23.4030 C.3   718  ASP718      0.1709
    163  C         31.0090   14.0900   23.9100 C.2   718  ASP718      0.2293
    164  O         31.7540   15.0320   23.6350 O.2   718  ASP718     -0.2864
    165  CB        29.2130   15.2930   22.5720 C.3   718  ASP718      0.1436
    166  CG        27.8370   15.1860   21.9100 C.2   718  ASP718      0.3671
    167  OD1       27.2050   14.1010   22.0000 O.co2 718  ASP718     -0.2456
    168  OD2       27.3820   16.1850   21.2940 O.co2 718  ASP718     -0.2456
@<TRIPOS>BOND
     1    16    14    1
     2    15    14    1
     3    14    11    1
     4    11    10    1
     5    11    12    1
     6    10     3   am
     7    20    19    2
     8    13    12    2
     9     3     2    1
    10     3     4    2
    11     2     1    1
    12     2     5    1
    13    12    17   am
    14    25    26    1
    15    25    31    1
    16    19    18    1
    17    17    18    1
    18     5     6    1
    19    27    28    2
    20    27    26    1
    21    26    29    1
    22    18    21    1
    23    31    30    1
    24    35    34    2
    25    32    33    1
    26     6     7    1
    27    21    22    1
    28    29    30    1
    29    34    33    1
    30     7     8    1
    31    33    36    1
    32    22    23    1
    33    36    37    1
    34    48    49    2
    35    48    47    1
    36     8     9    1
    37    38    37   ar
    38    38    40   ar
    39    23    24    1
    40    37    39   ar
    41    47    46    1
    42    47    50    1
    43    52    50    1
    44    40    41   ar
    45    50    51    1
    46    39    41   ar
    47    39    42   ar
    48    51    53    1
    49    41    43   ar
    50    42    44   ar
    51    90    88    1
    52    66    67    1
    53    73    71    1
    54    43    45   ar
    55    44    45   ar
    56    71    70    1
    57    88    87    1
    58    69    68    2
    59   125   124    1
    60    67    70    1
    61    67    68    1
    62    70    72    1
    63   124   123    1
    64    68    74   am
    65   168   166   ar
    66   133   131   ar
    67    87    89    1
    68    87    84    1
    69   166   167   ar
    70   166   165    1
    71   123   122    1
    72    74    75    1
    73    83    84    1
    74    83    76   am
    75   131   130    1
    76   131   132   ar
    77   165   162    1
    78   122   121    1
    79    84    85    1
    80    75    76    1
    81    75    78    1
    82    76    77    2
    83   130   127    1
    84   162   163    1
    85   162   161    1
    86   121   118    1
    87   164   163    2
    88   129   128    2
    89   160   158    1
    90    85    86    2
    91    85    91   am
    92   116   114    1
    93   118   117    1
    94   118   119    1
    95   115   114    1
    96    78    79    1
    97   161   155   am
    98   127   128    1
    99   127   126    1
   100   120   119    2
   101    91    92    1
   102    79    80    1
   103   114   111    1
   104    62    60   ar
   105    62    64   ar
   106   158   157    1
   107   141   140    1
   108   101   100    2
   109   108   107    1
   110   140   139    1
   111    65    64    1
   112    60    59   ar
   113   155   156    2
   114   155   154    1
   115    94    93    2
   116   157   154    1
   117   157   159    1
   118   110   111    1
   119   110   105   am
   120    64    63   ar
   121    93    92    1
   122    92    95    1
   123   111   112    1
   124   104   107    1
   125   104   105    1
   126   104   103    1
   127    80    82   ar
   128    80    81   ar
   129   154   153    1
   130   107   109    1
   131   100   103   am
   132   100    99    1
   133   139   138    1
   134    59    58    1
   135    59    61   ar
   136   105   106    2
   137    57    56    2
   138    63    61   ar
   139    56    55    1
   140    58    55    1
   141    98    99    1
   142    95    97    1
   143    95    96    1
   144   112   113    2
   145   102    99    1
   146    55    54    1
   147   138   135    1
   148   151   152   ar
   149   151   149   ar
   150   152   150   ar
   151   135   134    1
   152   135   136    1
   153   149   147   ar
   154   150   148   ar
   155   145   144    2
   156   136   137    2
   157   147   148   ar
   158   147   146    1
   159   144   143    1
   160   146   143    1
   161   143   142    1
