@<TRIPOS>MOLECULE
tmp/4wwoA00.pdb
 176 170 0 0 0
SMALL
GASTEIGER

@<TRIPOS>ATOM
      1  N         14.8900   14.0620   12.2180 N.3   543  LYS543     -0.1231
      2  CA        15.4930   15.2960   11.7010 C.3   543  LYS543      0.1693
      3  C         17.0300   15.2780   11.7370 C.2   543  LYS543      0.2592
      4  O         17.6260   14.3340   12.2260 O.2   543  LYS543     -0.2718
      5  CB        14.9510   16.5090   12.4750 C.3   543  LYS543      0.0285
      6  CG        15.4360   16.5940   13.9160 C.3   543  LYS543      0.0035
      7  CD        14.4770   17.3640   14.8220 C.3   543  LYS543      0.0206
      8  CE        14.8680   17.1930   16.2930 C.3   543  LYS543      0.1093
      9  NZ        13.7030   16.8740   17.1660 N.3   543  LYS543     -0.1314
     10  N         17.6430   16.3250   11.1920 N.am  544  VAL544     -0.1966
     11  CA        19.0920   16.5240   11.1760 C.3   544  VAL544      0.1727
     12  C         19.4120   17.7680   12.0000 C.2   544  VAL544      0.2616
     13  O         18.6590   18.7360   11.9720 O.2   544  VAL544     -0.2715
     14  CB        19.6000   16.7490    9.7370 C.3   544  VAL544      0.0290
     15  CG1       21.0980   17.0290    9.7200 C.3   544  VAL544      0.0023
     16  CG2       19.2640   15.5540    8.8610 C.3   544  VAL544      0.0023
     17  N         20.5270   17.7550   12.7220 N.am  545  MET545     -0.1977
     18  CA        20.8600   18.8520   13.6350 C.3   545  MET545      0.1605
     19  C         21.4460   20.0260   12.8800 C.2   545  MET545      0.2287
     20  O         22.2490   19.8370   11.9650 O.2   545  MET545     -0.2864
     21  CB        21.8800   18.4080   14.6950 C.3   545  MET545      0.0413
     22  CG        21.9830   19.3470   15.8980 C.3   545  MET545      0.0598
     23  SD        23.3520   18.9700   17.0150 S.3   545  MET545     -0.1393
     24  CE        22.9760   20.0390   18.4050 C.3   545  MET545      0.0692
     25  N         24.5130   15.1530   12.3540 N.3   551  PRO551     -0.2102
     26  CA        23.9690   13.8740   12.8120 C.3   551  PRO551      0.1504
     27  C         22.4520   13.7470   12.5940 C.2   551  PRO551      0.2576
     28  O         21.7380   14.7580   12.5820 O.2   551  PRO551     -0.2718
     29  CB        24.2830   13.8860   14.3090 C.3   551  PRO551      0.0282
     30  CG        24.4110   15.3270   14.6640 C.3   551  PRO551      0.0208
     31  CD        25.0680   15.9340   13.4750 C.3   551  PRO551      0.0893
     32  N         21.9820   12.5120   12.4300 N.am  552  LEU552     -0.1966
     33  CA        20.5640   12.2090   12.2950 C.3   552  LEU552      0.1728
     34  C         19.9130   11.8680   13.6210 C.2   552  LEU552      0.2616
     35  O         20.3760   10.9810   14.3410 O.2   552  LEU552     -0.2715
     36  CB        20.3630   10.9940   11.4060 C.3   552  LEU552      0.0311
     37  CG        20.7630   11.0750    9.9520 C.3   552  LEU552      0.0022
     38  CD1       20.2890    9.7850    9.3050 C.3   552  LEU552      0.0001
     39  CD2       20.1520   12.3000    9.2710 C.3   552  LEU552      0.0001
     40  N         18.8060   12.5330   13.9090 N.am  553  TRP553     -0.1974
     41  CA        17.9570   12.1880   15.0340 C.3   553  TRP553      0.1640
     42  C         16.8640   11.3220   14.4920 C.2   553  TRP553      0.2290
     43  O         16.0260   11.8020   13.7500 O.2   553  TRP553     -0.2864
     44  CB        17.3980   13.4770   15.6240 C.3   553  TRP553      0.0576
     45  CG        16.3920   13.3780   16.7470 C.ar  553  TRP553      0.0006
     46  CD1       15.0770   12.9280   16.6860 C.ar  553  TRP553      0.0946
     47  CD2       16.5640   13.8470   18.1170 C.ar  553  TRP553      0.0152
     48  NE1       14.4610   13.0530   17.9010 N.ar  553  TRP553     -0.2442
     49  CE2       15.2960   13.5940   18.8030 C.ar  553  TRP553      0.0810
     50  CE3       17.6060   14.4140   18.8240 C.ar  553  TRP553      0.0012
     51  CZ2       15.1080   13.9040   20.1410 C.ar  553  TRP553      0.0191
     52  CZ3       17.4040   14.7290   20.1720 C.ar  553  TRP553      0.0001
     53  CH2       16.1810   14.4800   20.8130 C.ar  553  TRP553      0.0015
     54  N         20.4020    8.4820   17.8660 N.3   572  ILE572     -0.1245
     55  CA        21.2100    9.4030   17.0850 C.3   572  ILE572      0.1561
     56  C         22.2680    8.6190   16.3100 C.2   572  ILE572      0.2260
     57  O         22.9290    7.7390   16.8650 O.2   572  ILE572     -0.2867
     58  CB        21.8930   10.4590   17.9820 C.3   572  ILE572      0.0252
     59  CG1       20.8420   11.4440   18.5390 C.3   572  ILE572      0.0019
     60  CG2       22.9340   11.2380   17.1970 C.3   572  ILE572      0.0019
     61  CD1       21.3790   12.4170   19.5670 C.3   572  ILE572      0.0001
     62  N         24.2680    7.2410   29.0760 N.3   608  TYR608     -0.1241
     63  CA        23.4630    6.7960   27.9530 C.3   608  TYR608      0.1605
     64  C         24.2210    5.8430   27.0330 C.2   608  TYR608      0.2264
     65  O         25.4450    5.8910   26.9240 O.2   608  TYR608     -0.2867
     66  CB        23.0110    8.0130   27.1400 C.3   608  TYR608      0.0534
     67  CG        24.1530    8.8980   26.7060 C.ar  608  TYR608     -0.0201
     68  CD1       24.8960    8.6040   25.5820 C.ar  608  TYR608     -0.0009
     69  CD2       24.4830   10.0420   27.4360 C.ar  608  TYR608     -0.0009
     70  CE1       25.9620    9.4070   25.1940 C.ar  608  TYR608      0.0417
     71  CE2       25.5360   10.8590   27.0600 C.ar  608  TYR608      0.0417
     72  CZ        26.2650   10.5520   25.9310 C.ar  608  TYR608      0.1957
     73  OH        27.3050   11.3810   25.5570 O.3   608  TYR608     -0.2866
     74  N         24.0860    6.8400   19.1920 N.3   620  ILE620     -0.1231
     75  CA        23.9400    7.3560   20.5580 C.3   620  ILE620      0.1692
     76  C         22.4700    7.2810   20.9890 C.2   620  ILE620      0.2592
     77  O         21.5730    7.5850   20.2090 O.2   620  ILE620     -0.2718
     78  CB        24.4520    8.8020   20.6360 C.3   620  ILE620      0.0266
     79  CG1       25.9380    8.8840   20.2650 C.3   620  ILE620      0.0019
     80  CG2       24.2520    9.3890   22.0110 C.3   620  ILE620      0.0020
     81  CD1       26.3480   10.2690   19.8220 C.3   620  ILE620      0.0001
     82  N         22.2170    6.8440   22.2170 N.am  621  GLU621     -0.1966
     83  CA        20.8420    6.7870   22.7460 C.3   621  GLU621      0.1733
     84  C         20.2590    8.1870   22.9810 C.2   621  GLU621      0.2616
     85  O         20.9040    9.0370   23.5980 O.2   621  GLU621     -0.2715
     86  CB        20.8270    6.0250   24.0640 C.3   621  GLU621      0.0429
     87  CG        19.4730    5.9440   24.7620 C.3   621  GLU621      0.1163
     88  CD        19.5660    5.2710   26.1260 C.2   621  GLU621      0.3649
     89  OE1       18.5190    5.0280   26.7290 O.co2 621  GLU621     -0.2457
     90  OE2       20.6900    4.9660   26.6020 O.co2 621  GLU621     -0.2457
     91  N         19.0390    8.4150   22.5000 N.am  622  ILE622     -0.1963
     92  CA        18.3350    9.6730   22.7800 C.3   622  ILE622      0.1727
     93  C         17.7300    9.5960   24.1750 C.2   622  ILE622      0.2616
     94  O         16.9040    8.7300   24.4550 O.2   622  ILE622     -0.2715
     95  CB        17.2390    9.9710   21.7420 C.3   622  ILE622      0.0290
     96  CG1       17.8990   10.3800   20.4180 C.3   622  ILE622      0.0022
     97  CG2       16.3050   11.0710   22.2360 C.3   622  ILE622      0.0023
     98  CD1       16.9420   10.6250   19.2790 C.3   622  ILE622      0.0001
     99  N         18.1900   10.4770   25.0540 N.am  623  VAL623     -0.1977
    100  CA        17.5740   10.6630   26.3630 C.3   623  VAL623      0.1596
    101  C         16.3410   11.5470   26.1850 C.2   623  VAL623      0.2287
    102  O         16.4610   12.7130   25.8010 O.2   623  VAL623     -0.2864
    103  CB        18.5630   11.3250   27.3490 C.3   623  VAL623      0.0276
    104  CG1       17.8520   11.7720   28.6220 C.3   623  VAL623      0.0022
    105  CG2       19.7060   10.3660   27.6750 C.3   623  VAL623      0.0022
    106  N         14.7900   15.9660   27.3380 N.3   626  ALA626     -0.1231
    107  CA        16.0260   16.6360   27.7480 C.3   626  ALA626      0.1694
    108  C         16.4110   17.7460   26.7780 C.2   626  ALA626      0.2593
    109  O         16.1600   17.6560   25.5800 O.2   626  ALA626     -0.2718
    110  CB        17.1580   15.6160   27.8580 C.3   626  ALA626      0.0304
    111  N         17.0240   18.7960   27.3000 N.am  627  THR627     -0.1939
    112  CA        17.5770   19.8520   26.4580 C.3   627  THR627      0.2028
    113  C         18.9460   20.2890   26.9930 C.2   627  THR627      0.2642
    114  O         19.4110   19.7870   28.0320 O.2   627  THR627     -0.2714
    115  CB        16.5910   21.0320   26.3040 C.3   627  THR627      0.1808
    116  OG1       17.2790   22.1690   25.7840 O.3   627  THR627     -0.2208
    117  CG2       15.9460   21.4000   27.6190 C.3   627  THR627      0.0379
    118  N         19.6200   21.1790   26.2650 N.am  628  THR628     -0.1950
    119  CA        20.9390   21.6380   26.6950 C.3   628  THR628      0.1897
    120  C         20.8190   22.8620   27.5860 C.2   628  THR628      0.2313
    121  O         19.8160   23.5880   27.5580 O.2   628  THR628     -0.2863
    122  CB        21.8860   21.9470   25.5210 C.3   628  THR628      0.1794
    123  OG1       21.3570   23.0100   24.7300 O.3   628  THR628     -0.2208
    124  CG2       22.1080   20.7070   24.6460 C.3   628  THR628      0.0378
    125  N         20.8400   25.9640   25.3790 N.3   631  LYS631     -0.1245
    126  CA        19.5330   26.2560   24.7800 C.3   631  LYS631      0.1561
    127  C         18.5970   26.9100   25.7970 C.2   631  LYS631      0.2260
    128  O         17.9190   27.8840   25.4720 O.2   631  LYS631     -0.2867
    129  CB        18.8760   25.0070   24.1770 C.3   631  LYS631      0.0271
    130  CG        17.5860   25.3250   23.4330 C.3   631  LYS631      0.0035
    131  CD        17.0860   24.2010   22.5370 C.3   631  LYS631      0.0206
    132  CE        16.0090   24.7210   21.5880 C.3   631  LYS631      0.1093
    133  NZ        15.1820   23.6350   20.9900 N.3   631  LYS631     -0.1314
    134  N         26.9900   23.7950   25.9480 N.3   687  ASP687     -0.1239
    135  CA        26.1820   23.0950   24.9370 C.3   687  ASP687      0.1674
    136  C         26.5840   21.6190   24.8450 C.2   687  ASP687      0.2266
    137  O         26.0830   20.8850   23.9880 O.2   687  ASP687     -0.2867
    138  CB        26.1660   23.7880   23.5530 C.3   687  ASP687      0.1410
    139  CG        27.5390   24.2440   23.0640 C.2   687  ASP687      0.3668
    140  OD1       28.5680   23.6000   23.3530 O.co2 687  ASP687     -0.2456
    141  OD2       27.5730   25.2730   22.3510 O.co2 687  ASP687     -0.2456
    142  N         23.5450   18.6600   29.5450 N.3   690  MET690     -0.1245
    143  CA        22.0980   18.5730   29.3800 C.3   690  MET690      0.1570
    144  C         21.3800   18.3780   30.7110 C.2   690  MET690      0.2261
    145  O         21.9920   18.0000   31.7070 O.2   690  MET690     -0.2867
    146  CB        21.7250   17.4380   28.4070 C.3   690  MET690      0.0387
    147  CG        22.2930   17.6010   26.9950 C.3   690  MET690      0.0595
    148  SD        21.5030   16.5890   25.7100 S.3   690  MET690     -0.1393
    149  CE        19.9070   17.3890   25.5990 C.3   690  MET690      0.0692
    150  N         23.2510   15.9020   32.9570 N.3   698  PHE698     -0.1241
    151  CA        24.1950   14.9240   32.4300 C.3   698  PHE698      0.1605
    152  C         25.0590   15.4790   31.2960 C.2   698  PHE698      0.2264
    153  O         24.5620   16.1880   30.4470 O.2   698  PHE698     -0.2867
    154  CB        23.4690   13.6460   32.0070 C.3   698  PHE698      0.0534
    155  CG        22.5330   13.8100   30.8500 C.ar  698  PHE698     -0.0203
    156  CD1       21.2560   14.3000   31.0330 C.ar  698  PHE698     -0.0042
    157  CD2       22.9230   13.4340   29.5740 C.ar  698  PHE698     -0.0042
    158  CE1       20.3830   14.4320   29.9630 C.ar  698  PHE698     -0.0003
    159  CE2       22.0630   13.5580   28.5010 C.ar  698  PHE698     -0.0003
    160  CZ        20.7900   14.0580   28.6890 C.ar  698  PHE698     -0.0000
    161  N         27.5590   15.2480   27.8930 N.3   700  ILE700     -0.1231
    162  CA        27.5020   14.5230   26.6210 C.3   700  ILE700      0.1692
    163  C         28.7350   14.8580   25.7920 C.2   700  ILE700      0.2592
    164  O         29.5190   15.6950   26.1980 O.2   700  ILE700     -0.2718
    165  CB        26.2330   14.8950   25.8040 C.3   700  ILE700      0.0266
    166  CG1       26.2160   16.3970   25.4520 C.3   700  ILE700      0.0019
    167  CG2       24.9840   14.4930   26.5700 C.3   700  ILE700      0.0020
    168  CD1       25.1450   16.8290   24.4550 C.3   700  ILE700      0.0001
    169  N         28.8780   14.2200   24.6270 N.am  701  ASP701     -0.1974
    170  CA        29.9170   14.5360   23.6240 C.3   701  ASP701      0.1709
    171  C         31.3470   14.4100   24.1620 C.2   701  ASP701      0.2293
    172  O         32.1350   15.3520   24.1120 O.2   701  ASP701     -0.2864
    173  CB        29.7150   15.9410   23.0440 C.3   701  ASP701      0.1436
    174  CG        28.3600   16.1270   22.3830 C.2   701  ASP701      0.3671
    175  OD1       27.9210   15.2370   21.6230 O.co2 701  ASP701     -0.2456
    176  OD2       27.7410   17.1950   22.6000 O.co2 701  ASP701     -0.2456
@<TRIPOS>BOND
     1    16    14    1
     2    39    37    1
     3    38    37    1
     4    15    14    1
     5    14    11    1
     6    37    36    1
     7    11    10    1
     8    11    12    1
     9    10     3   am
    10    36    33    1
    11     2     3    1
    12     2     1    1
    13     2     5    1
    14     3     4    2
    15    20    19    2
    16    13    12    2
    17    12    17   am
    18    33    32    1
    19    33    34    1
    20    25    26    1
    21    25    31    1
    22    32    27   am
    23     5     6    1
    24    28    27    2
    25    27    26    1
    26    17    18    1
    27    26    29    1
    28    19    18    1
    29    31    30    1
    30    34    40   am
    31    34    35    2
    32    18    21    1
    33    43    42    2
    34    40    41    1
    35     6     7    1
    36    29    30    1
    37    42    41    1
    38    21    22    1
    39     7     8    1
    40    41    44    1
    41    44    45    1
    42    22    23    1
    43     8     9    1
    44    56    57    2
    45    56    55    1
    46    46    45   ar
    47    46    48   ar
    48    45    47   ar
    49    23    24    1
    50    55    54    1
    51    55    58    1
    52    60    58    1
    53    48    49   ar
    54    58    59    1
    55    47    49   ar
    56    47    50   ar
    57    59    61    1
    58    49    51   ar
    59    50    52   ar
    60    74    75    1
    61    98    96    1
    62    81    79    1
    63    51    53   ar
    64    52    53   ar
    65    77    76    2
    66    79    78    1
    67    96    95    1
    68    75    78    1
    69    75    76    1
    70    78    80    1
    71    76    82   am
    72   133   132    1
    73   132   131    1
    74   175   174   ar
    75    95    97    1
    76    95    92    1
    77    82    83    1
    78   141   139   ar
    79   174   176   ar
    80   174   173    1
    81    91    92    1
    82    91    84   am
    83   131   130    1
    84    83    84    1
    85    83    86    1
    86    92    93    1
    87    84    85    2
    88   173   170    1
    89   139   140   ar
    90   139   138    1
    91   130   129    1
    92   138   135    1
    93   170   171    1
    94   170   169    1
    95   137   136    2
    96    86    87    1
    97   172   171    2
    98    93    94    2
    99    93    99   am
   100   129   126    1
   101   168   166    1
   102   169   163   am
   103   124   122    1
   104   123   122    1
   105    87    88    1
   106   126   125    1
   107   126   127    1
   108   136   135    1
   109   135   134    1
   110    99   100    1
   111    70    68   ar
   112    70    72   ar
   113   166   165    1
   114   128   127    2
   115   122   119    1
   116    73    72    1
   117   109   108    2
   118    68    67   ar
   119   149   148    1
   120   148   147    1
   121   116   115    1
   122   163   164    2
   123   163   162    1
   124   102   101    2
   125   165   167    1
   126   165   162    1
   127    72    71   ar
   128    88    90   ar
   129    88    89   ar
   130   101   100    1
   131   118   119    1
   132   118   113   am
   133   115   112    1
   134   115   117    1
   135   100   103    1
   136   112   113    1
   137   112   111    1
   138   162   161    1
   139   119   120    1
   140    67    66    1
   141    67    69   ar
   142   108   111   am
   143   108   107    1
   144    65    64    2
   145   113   114    2
   146   147   146    1
   147    64    63    1
   148    71    69   ar
   149    66    63    1
   150   106   107    1
   151   103   105    1
   152   103   104    1
   153   121   120    2
   154   107   110    1
   155    63    62    1
   156   146   143    1
   157   159   160   ar
   158   159   157   ar
   159   160   158   ar
   160   143   142    1
   161   143   144    1
   162   157   155   ar
   163   158   156   ar
   164   153   152    2
   165   144   145    2
   166   155   156   ar
   167   155   154    1
   168   152   151    1
   169   154   151    1
   170   151   150    1
