@<TRIPOS>MOLECULE
tmp/4wwpA00.pdb
 176 170 0 0 0
SMALL
GASTEIGER

@<TRIPOS>ATOM
      1  N         14.4660   13.9500   12.1120 N.3   545  LYS545     -0.1231
      2  CA        15.0270   15.2360   11.7010 C.3   545  LYS545      0.1693
      3  C         16.5570   15.2210   11.6870 C.2   545  LYS545      0.2592
      4  O         17.1680   14.2500   12.1030 O.2   545  LYS545     -0.2718
      5  CB        14.4910   16.3630   12.6050 C.3   545  LYS545      0.0285
      6  CG        14.8010   16.2000   14.0840 C.3   545  LYS545      0.0035
      7  CD        13.9310   17.0610   14.9990 C.3   545  LYS545      0.0206
      8  CE        14.4190   16.9660   16.4480 C.3   545  LYS545      0.1093
      9  NZ        13.3310   16.7830   17.4500 N.3   545  LYS545     -0.1314
     10  N         17.1590   16.3000   11.1970 N.am  546  VAL546     -0.1966
     11  CA        18.6100   16.4740   11.1530 C.3   546  VAL546      0.1727
     12  C         19.0060   17.7240   11.9410 C.2   546  VAL546      0.2616
     13  O         18.3370   18.7510   11.8600 O.2   546  VAL546     -0.2715
     14  CB        19.1080   16.6360    9.7040 C.3   546  VAL546      0.0290
     15  CG1       20.6170   16.8390    9.6710 C.3   546  VAL546      0.0023
     16  CG2       18.7070   15.4350    8.8670 C.3   546  VAL546      0.0023
     17  N         20.0940   17.6460   12.6990 N.am  547  MET547     -0.1977
     18  CA        20.4890   18.7620   13.5590 C.3   547  MET547      0.1605
     19  C         21.0480   19.9110   12.7460 C.2   547  MET547      0.2287
     20  O         21.7950   19.6920   11.7930 O.2   547  MET547     -0.2864
     21  CB        21.5390   18.3270   14.5810 C.3   547  MET547      0.0413
     22  CG        21.7540   19.3290   15.7090 C.3   547  MET547      0.0598
     23  SD        22.9530   18.7460   16.9240 S.3   547  MET547     -0.1393
     24  CE        22.8030   20.0010   18.1970 C.3   547  MET547      0.0692
     25  N         23.8630   15.1570   12.2670 N.3   553  PRO553     -0.2102
     26  CA        23.3710   13.8440   12.6800 C.3   553  PRO553      0.1504
     27  C         21.8610   13.6690   12.5030 C.2   553  PRO553      0.2576
     28  O         21.1160   14.6530   12.5020 O.2   553  PRO553     -0.2718
     29  CB        23.7170   13.8040   14.1650 C.3   553  PRO553      0.0282
     30  CG        23.7800   15.2280   14.5760 C.3   553  PRO553      0.0208
     31  CD        24.4030   15.9090   13.4120 C.3   553  PRO553      0.0893
     32  N         21.4300   12.4150   12.3870 N.am  554  LEU554     -0.1966
     33  CA        20.0260   12.0720   12.2300 C.3   554  LEU554      0.1728
     34  C         19.3470   11.6960   13.5300 C.2   554  LEU554      0.2616
     35  O         19.7650   10.7880   14.2110 O.2   554  LEU554     -0.2715
     36  CB        19.8680   10.8760   11.3040 C.3   554  LEU554      0.0311
     37  CG        20.3380   11.0250    9.8800 C.3   554  LEU554      0.0022
     38  CD1       19.7750    9.8510    9.0920 C.3   554  LEU554      0.0001
     39  CD2       19.8830   12.3630    9.3120 C.3   554  LEU554      0.0001
     40  N         18.2410   12.3580   13.8120 N.am  555  TRP555     -0.1974
     41  CA        17.3690   12.0030   14.9090 C.3   555  TRP555      0.1640
     42  C         16.3150   11.1130   14.3490 C.2   555  TRP555      0.2290
     43  O         15.5050   11.5500   13.5460 O.2   555  TRP555     -0.2864
     44  CB        16.7640   13.2840   15.4330 C.3   555  TRP555      0.0576
     45  CG        15.7920   13.1830   16.5580 C.ar  555  TRP555      0.0006
     46  CD1       14.4780   12.7480   16.5170 C.ar  555  TRP555      0.0946
     47  CD2       16.0070   13.6290   17.9180 C.ar  555  TRP555      0.0152
     48  NE1       13.8960   12.8570   17.7500 N.ar  555  TRP555     -0.2442
     49  CE2       14.7590   13.3870   18.6330 C.ar  555  TRP555      0.0810
     50  CE3       17.0720   14.1730   18.5960 C.ar  555  TRP555      0.0012
     51  CZ2       14.6120   13.6850   19.9750 C.ar  555  TRP555      0.0191
     52  CZ3       16.9160   14.4690   19.9470 C.ar  555  TRP555      0.0001
     53  CH2       15.7100   14.2320   20.6200 C.ar  555  TRP555      0.0015
     54  N         19.8320    8.4160   17.5990 N.3   574  ILE574     -0.1245
     55  CA        20.6120    9.3790   16.8430 C.3   574  ILE574      0.1561
     56  C         21.6780    8.6220   16.0660 C.2   574  ILE574      0.2260
     57  O         22.4130    7.8450   16.6460 O.2   574  ILE574     -0.2867
     58  CB        21.3350   10.3740   17.7730 C.3   574  ILE574      0.0252
     59  CG1       20.3390   11.3730   18.3680 C.3   574  ILE574      0.0019
     60  CG2       22.4450   11.1060   17.0320 C.3   574  ILE574      0.0019
     61  CD1       20.9280   12.2720   19.4310 C.3   574  ILE574      0.0001
     62  N         23.7410    7.1890   28.6510 N.3   610  TYR610     -0.1241
     63  CA        22.8580    6.7990   27.5810 C.3   610  TYR610      0.1605
     64  C         23.5800    5.8350   26.6420 C.2   610  TYR610      0.2264
     65  O         24.8020    5.8560   26.5360 O.2   610  TYR610     -0.2867
     66  CB        22.3830    8.0480   26.8390 C.3   610  TYR610      0.0534
     67  CG        23.5280    8.9160   26.3790 C.ar  610  TYR610     -0.0201
     68  CD1       24.2110    8.6360   25.2020 C.ar  610  TYR610     -0.0009
     69  CD2       23.9470    9.9970   27.1420 C.ar  610  TYR610     -0.0009
     70  CE1       25.2670    9.4250   24.7900 C.ar  610  TYR610      0.0417
     71  CE2       24.9970   10.7990   26.7370 C.ar  610  TYR610      0.0417
     72  CZ        25.6510   10.5140   25.5620 C.ar  610  TYR610      0.1957
     73  OH        26.6850   11.3170   25.1600 O.3   610  TYR610     -0.2866
     74  N         23.5510    6.7610   18.9340 N.3   622  ILE622     -0.1231
     75  CA        23.4320    7.2770   20.2960 C.3   622  ILE622      0.1692
     76  C         21.9760    7.1500   20.7160 C.2   622  ILE622      0.2592
     77  O         21.0730    7.4270   19.9330 O.2   622  ILE622     -0.2718
     78  CB        23.8710    8.7460   20.3560 C.3   622  ILE622      0.0266
     79  CG1       25.3330    8.8860   19.9400 C.3   622  ILE622      0.0019
     80  CG2       23.6750    9.3270   21.7450 C.3   622  ILE622      0.0020
     81  CD1       25.7490   10.3300   19.7820 C.3   622  ILE622      0.0001
     82  N         21.7400    6.7050   21.9360 N.am  623  GLU623     -0.1966
     83  CA        20.3820    6.6290   22.4610 C.3   623  GLU623      0.1733
     84  C         19.7910    8.0290   22.6660 C.2   623  GLU623      0.2616
     85  O         20.4050    8.8900   23.3120 O.2   623  GLU623     -0.2715
     86  CB        20.3830    5.8650   23.7770 C.3   623  GLU623      0.0429
     87  CG        19.0290    5.7510   24.4760 C.3   623  GLU623      0.1163
     88  CD        19.1620    5.1010   25.8380 C.2   623  GLU623      0.3649
     89  OE1       18.1380    4.8260   26.4810 O.co2 623  GLU623     -0.2457
     90  OE2       20.3070    4.8630   26.2760 O.co2 623  GLU623     -0.2457
     91  N         18.6130    8.2650   22.0920 N.am  624  ILE624     -0.1963
     92  CA        17.8810    9.5010   22.3660 C.3   624  ILE624      0.1727
     93  C         17.3320    9.4320   23.7770 C.2   624  ILE624      0.2616
     94  O         16.5240    8.5610   24.0890 O.2   624  ILE624     -0.2715
     95  CB        16.6950    9.7270   21.4110 C.3   624  ILE624      0.0290
     96  CG1       17.1940   10.0420   20.0000 C.3   624  ILE624      0.0022
     97  CG2       15.8110   10.8570   21.9280 C.3   624  ILE624      0.0023
     98  CD1       16.0710   10.2820   19.0100 C.3   624  ILE624      0.0001
     99  N         17.7930   10.3330   24.6310 N.am  625  VAL625     -0.1977
    100  CA        17.1650   10.5370   25.9260 C.3   625  VAL625      0.1596
    101  C         15.9680   11.4630   25.7280 C.2   625  VAL625      0.2287
    102  O         16.1410   12.6450   25.4650 O.2   625  VAL625     -0.2864
    103  CB        18.1300   11.1700   26.9400 C.3   625  VAL625      0.0276
    104  CG1       17.3740   11.5620   28.2070 C.3   625  VAL625      0.0022
    105  CG2       19.2790   10.2150   27.2470 C.3   625  VAL625      0.0022
    106  N         14.3190   15.8100   26.9170 N.3   628  ALA628     -0.1231
    107  CA        15.5320   16.5020   27.3610 C.3   628  ALA628      0.1694
    108  C         15.9550   17.5740   26.3710 C.2   628  ALA628      0.2593
    109  O         15.7740   17.4260   25.1710 O.2   628  ALA628     -0.2718
    110  CB        16.6690   15.5100   27.5550 C.3   628  ALA628      0.0304
    111  N         16.5460   18.6380   26.8840 N.am  629  THR629     -0.1939
    112  CA        17.1060   19.6770   26.0420 C.3   629  THR629      0.2028
    113  C         18.4500   20.1130   26.6210 C.2   629  THR629      0.2642
    114  O         18.8170   19.7180   27.7350 O.2   629  THR629     -0.2714
    115  CB        16.1450   20.8840   25.9250 C.3   629  THR629      0.1808
    116  OG1       16.8000   21.9510   25.2400 O.3   629  THR629     -0.2208
    117  CG2       15.6990   21.3700   27.2790 C.3   629  THR629      0.0379
    118  N         19.1980   20.9060   25.8560 N.am  630  THR630     -0.1950
    119  CA        20.4870   21.3940   26.3380 C.3   630  THR630      0.1897
    120  C         20.2780   22.5880   27.2410 C.2   630  THR630      0.2313
    121  O         19.2640   23.2700   27.1610 O.2   630  THR630     -0.2863
    122  CB        21.4280   21.8100   25.2020 C.3   630  THR630      0.1794
    123  OG1       20.8920   22.9560   24.5300 O.3   630  THR630     -0.2208
    124  CG2       21.6380   20.6520   24.2120 C.3   630  THR630      0.0378
    125  N         20.2550   25.9040   25.2200 N.3   633  LYS633     -0.1245
    126  CA        18.9610   26.2480   24.6370 C.3   633  LYS633      0.1561
    127  C         18.0710   26.9310   25.6750 C.2   633  LYS633      0.2260
    128  O         17.3310   27.8660   25.3460 O.2   633  LYS633     -0.2867
    129  CB        18.2520   25.0110   24.0630 C.3   633  LYS633      0.0271
    130  CG        17.1530   25.3650   23.0750 C.3   633  LYS633      0.0035
    131  CD        16.3390   24.1750   22.5810 C.3   633  LYS633      0.0206
    132  CE        15.2580   24.6670   21.6170 C.3   633  LYS633      0.1093
    133  NZ        14.2560   23.6230   21.2690 N.3   633  LYS633     -0.1314
    134  N         26.2400   23.7050   25.7590 N.3   693  ASP693     -0.1239
    135  CA        25.4870   23.0340   24.6880 C.3   693  ASP693      0.1674
    136  C         25.8680   21.5580   24.5540 C.2   693  ASP693      0.2266
    137  O         25.3050   20.8470   23.7180 O.2   693  ASP693     -0.2867
    138  CB        25.6020   23.7720   23.3350 C.3   693  ASP693      0.1410
    139  CG        27.0270   23.8560   22.8020 C.2   693  ASP693      0.3668
    140  OD1       27.9310   23.1680   23.3220 O.co2 693  ASP693     -0.2456
    141  OD2       27.2340   24.6390   21.8430 O.co2 693  ASP693     -0.2456
    142  N         23.0600   18.5780   29.1930 N.3   696  MET696     -0.1245
    143  CA        21.6290   18.4500   28.9760 C.3   696  MET696      0.1570
    144  C         20.9000   18.2650   30.2900 C.2   696  MET696      0.2261
    145  O         21.4960   17.8500   31.2790 O.2   696  MET696     -0.2867
    146  CB        21.3240   17.2700   28.0490 C.3   696  MET696      0.0387
    147  CG        21.8470   17.4390   26.6280 C.3   696  MET696      0.0595
    148  SD        21.0090   16.3740   25.4300 S.3   696  MET696     -0.1393
    149  CE        19.4840   17.2810   25.2210 C.3   696  MET696      0.0692
    150  N         22.5760   15.6720   32.5260 N.3   704  PHE704     -0.1241
    151  CA        23.5600   14.7420   31.9980 C.3   704  PHE704      0.1605
    152  C         24.4230   15.3650   30.9010 C.2   704  PHE704      0.2264
    153  O         23.9300   16.1290   30.0880 O.2   704  PHE704     -0.2867
    154  CB        22.8860   13.4610   31.5060 C.3   704  PHE704      0.0534
    155  CG        21.9500   13.6590   30.3530 C.ar  704  PHE704     -0.0203
    156  CD1       20.6600   14.1210   30.5590 C.ar  704  PHE704     -0.0042
    157  CD2       22.3460   13.3540   29.0640 C.ar  704  PHE704     -0.0042
    158  CE1       19.7820   14.2860   29.5010 C.ar  704  PHE704     -0.0003
    159  CE2       21.4800   13.5300   27.9940 C.ar  704  PHE704     -0.0003
    160  CZ        20.1940   13.9890   28.2120 C.ar  704  PHE704     -0.0000
    161  N         26.7890   15.1830   27.4780 N.3   706  ILE706     -0.1231
    162  CA        26.7550   14.4350   26.2120 C.3   706  ILE706      0.1692
    163  C         28.0110   14.7490   25.4060 C.2   706  ILE706      0.2592
    164  O         28.7830   15.5870   25.8270 O.2   706  ILE706     -0.2718
    165  CB        25.5110   14.7840   25.3640 C.3   706  ILE706      0.0266
    166  CG1       25.4650   16.2880   25.0260 C.3   706  ILE706      0.0019
    167  CG2       24.2550   14.3390   26.0790 C.3   706  ILE706      0.0020
    168  CD1       24.4560   16.6880   23.9550 C.3   706  ILE706      0.0001
    169  N         28.2020   14.0910   24.2600 N.am  707  ASP707     -0.1974
    170  CA        29.2680   14.4250   23.2870 C.3   707  ASP707      0.1709
    171  C         30.6640   14.3610   23.9020 C.2   707  ASP707      0.2293
    172  O         31.4110   15.3340   23.8960 O.2   707  ASP707     -0.2864
    173  CB        29.0580   15.8190   22.6670 C.3   707  ASP707      0.1436
    174  CG        27.7450   15.9530   21.8870 C.2   707  ASP707      0.3671
    175  OD1       27.3010   14.9860   21.2310 O.co2 707  ASP707     -0.2456
    176  OD2       27.1700   17.0630   21.9120 O.co2 707  ASP707     -0.2456
@<TRIPOS>BOND
     1    16    14    1
     2    38    37    1
     3    39    37    1
     4    15    14    1
     5    14    11    1
     6    37    36    1
     7    11    10    1
     8    11    12    1
     9    10     3   am
    10    36    33    1
    11     3     2    1
    12     3     4    2
    13     2     1    1
    14     2     5    1
    15    20    19    2
    16    13    12    2
    17    12    17   am
    18    33    32    1
    19    33    34    1
    20    25    26    1
    21    25    31    1
    22    32    27   am
    23    28    27    2
    24    27    26    1
    25     5     6    1
    26    26    29    1
    27    17    18    1
    28    19    18    1
    29    31    30    1
    30    34    40   am
    31    34    35    2
    32    43    42    2
    33    18    21    1
    34    40    41    1
    35     6     7    1
    36    29    30    1
    37    42    41    1
    38    21    22    1
    39    41    44    1
    40     7     8    1
    41    44    45    1
    42    22    23    1
    43    56    57    2
    44    56    55    1
    45     8     9    1
    46    46    45   ar
    47    46    48   ar
    48    45    47   ar
    49    55    54    1
    50    55    58    1
    51    23    24    1
    52    60    58    1
    53    48    49   ar
    54    58    59    1
    55    47    50   ar
    56    47    49   ar
    57    59    61    1
    58    50    52   ar
    59    49    51   ar
    60    74    75    1
    61    98    96    1
    62    81    79    1
    63    77    76    2
    64    79    78    1
    65    52    53   ar
    66    51    53   ar
    67    96    95    1
    68    75    78    1
    69    75    76    1
    70    78    80    1
    71    76    82   am
    72   175   174   ar
    73   133   132    1
    74    95    97    1
    75    95    92    1
    76   132   131    1
    77   141   139   ar
    78   174   176   ar
    79   174   173    1
    80    82    83    1
    81    91    92    1
    82    91    84   am
    83    92    93    1
    84    83    84    1
    85    83    86    1
    86   131   130    1
    87    84    85    2
    88   173   170    1
    89   139   140   ar
    90   139   138    1
    91   130   129    1
    92   170   171    1
    93   170   169    1
    94   138   135    1
    95   137   136    2
    96    86    87    1
    97    93    94    2
    98    93    99   am
    99   172   171    2
   100   168   166    1
   101   129   126    1
   102   124   122    1
   103   169   163   am
   104    87    88    1
   105   123   122    1
   106   136   135    1
   107    99   100    1
   108   126   125    1
   109   126   127    1
   110   135   134    1
   111    70    68   ar
   112    70    72   ar
   113   166   165    1
   114    73    72    1
   115   109   108    2
   116    68    67   ar
   117   122   119    1
   118   149   148    1
   119   116   115    1
   120   128   127    2
   121   165   167    1
   122   165   162    1
   123   163   164    2
   124   163   162    1
   125   148   147    1
   126   102   101    2
   127    72    71   ar
   128   101   100    1
   129    88    90   ar
   130    88    89   ar
   131   118   119    1
   132   118   113   am
   133   115   112    1
   134   115   117    1
   135   100   103    1
   136   112   113    1
   137   112   111    1
   138   162   161    1
   139   119   120    1
   140   108   111   am
   141   108   107    1
   142    67    66    1
   143    67    69   ar
   144    65    64    2
   145   113   114    2
   146   147   146    1
   147    64    63    1
   148    71    69   ar
   149    66    63    1
   150   106   107    1
   151   103   105    1
   152   103   104    1
   153   121   120    2
   154   107   110    1
   155    63    62    1
   156   159   160   ar
   157   159   157   ar
   158   146   143    1
   159   160   158   ar
   160   143   142    1
   161   143   144    1
   162   157   155   ar
   163   158   156   ar
   164   153   152    2
   165   144   145    2
   166   155   156   ar
   167   155   154    1
   168   152   151    1
   169   154   151    1
   170   151   150    1
