@<TRIPOS>MOLECULE
tmp/4wx0A00.pdb
 183 179 0 0 0
SMALL
GASTEIGER

@<TRIPOS>ATOM
      1  N         16.3570    6.7510    9.3660 N.3    40  TYR40      -0.1241
      2  CA        16.6550    5.4120    9.9140 C.3    40  TYR40       0.1605
      3  C         16.0030    4.2640    9.1330 C.2    40  TYR40       0.2264
      4  O         16.5940    3.2020    9.0130 O.2    40  TYR40      -0.2867
      5  CB        16.2630    5.3350   11.3790 C.3    40  TYR40       0.0534
      6  CG        17.0840    6.2910   12.2490 C.ar   40  TYR40      -0.0201
      7  CD1       18.4800    6.2790   12.2120 C.ar   40  TYR40      -0.0009
      8  CD2       16.4690    7.2000   13.0820 C.ar   40  TYR40      -0.0009
      9  CE1       19.2480    7.1460   12.9920 C.ar   40  TYR40       0.0417
     10  CE2       17.2130    8.0490   13.8870 C.ar   40  TYR40       0.0417
     11  CZ        18.6040    8.0250   13.8360 C.ar   40  TYR40       0.1957
     12  OH        19.3580    8.8750   14.6470 O.3    40  TYR40      -0.2866
     13  N         26.3400   11.8330    8.6250 N.3    56  TYR56      -0.1241
     14  CA        25.7620   11.2220    9.8280 C.3    56  TYR56       0.1605
     15  C         26.8810   10.8090   10.7910 C.2    56  TYR56       0.2264
     16  O         26.8490   11.1740   12.0020 O.2    56  TYR56      -0.2867
     17  CB        24.8400   10.0270    9.4950 C.3    56  TYR56       0.0534
     18  CG        24.0930    9.5300   10.7050 C.ar   56  TYR56      -0.0201
     19  CD1       24.6810    8.6080   11.5950 C.ar   56  TYR56      -0.0009
     20  CD2       22.8260    9.9920   10.9850 C.ar   56  TYR56      -0.0009
     21  CE1       23.9980    8.1740   12.7300 C.ar   56  TYR56       0.0417
     22  CE2       22.1540    9.5960   12.1360 C.ar   56  TYR56       0.0417
     23  CZ        22.7590    8.6930   13.0060 C.ar   56  TYR56       0.1957
     24  OH        22.0800    8.2970   14.1340 O.3    56  TYR56      -0.2866
     25  N         27.6260   12.8300   14.2550 N.3    60  GLY60      -0.1225
     26  CA        27.2810   12.1550   15.5030 C.3    60  GLY60       0.1811
     27  C         28.4650   12.0370   16.4450 C.2    60  GLY60       0.2280
     28  O         28.2860   11.8710   17.6680 O.2    60  GLY60      -0.2866
     29  N         29.0680   13.8200   20.1200 N.3    63  VAL63      -0.1231
     30  CA        28.2160   13.2890   21.1930 C.3    63  VAL63       0.1692
     31  C         28.7050   11.9240   21.6600 C.2    63  VAL63       0.2591
     32  O         28.7700   11.6460   22.8610 O.2    63  VAL63      -0.2718
     33  CB        26.7110   13.2490   20.7800 C.3    63  VAL63       0.0266
     34  CG1       25.8590   12.5910   21.8640 C.3    63  VAL63       0.0020
     35  CG2       26.1970   14.6510   20.5260 C.3    63  VAL63       0.0020
     36  N         29.1100   11.0890   20.6970 N.am   64  VAL64      -0.1980
     37  CA        29.6520    9.7920   20.9880 C.3    64  VAL64       0.1595
     38  C         30.9320    9.9010   21.8120 C.2    64  VAL64       0.2287
     39  O         31.0850    9.2170   22.8340 O.2    64  VAL64      -0.2864
     40  CB        29.9330    9.0330   19.6570 C.3    64  VAL64       0.0276
     41  CG1       30.8080    7.8230   19.8770 C.3    64  VAL64       0.0022
     42  CG2       28.5880    8.6700   19.0120 C.3    64  VAL64       0.0022
     43  N         30.3060   11.4110   25.3900 N.3    67  PHE67      -0.1241
     44  CA        29.1500   10.9090   26.1980 C.3    67  PHE67       0.1605
     45  C         29.5680   10.5970   27.6410 C.2    67  PHE67       0.2264
     46  O         28.8650   10.9980   28.5820 O.2    67  PHE67      -0.2867
     47  CB        28.4850    9.6900   25.5800 C.3    67  PHE67       0.0534
     48  CG        27.0590    9.5150   26.0010 C.ar   67  PHE67      -0.0203
     49  CD1       26.0800   10.3520   25.5060 C.ar   67  PHE67      -0.0042
     50  CD2       26.7080    8.5260   26.9040 C.ar   67  PHE67      -0.0042
     51  CE1       24.7580   10.2070   25.8990 C.ar   67  PHE67      -0.0003
     52  CE2       25.3870    8.3650   27.2870 C.ar   67  PHE67      -0.0003
     53  CZ        24.4190    9.2210   26.8020 C.ar   67  PHE67      -0.0000
     54  N         30.8670    2.5750   28.6960 N.3   100  GLU100     -0.1245
     55  CA        31.1720    3.2620   27.4640 C.3   100  GLU100      0.1567
     56  C         32.6520    3.1340   27.0180 C.2   100  GLU100      0.2260
     57  O         33.0370    3.7120   25.9970 O.2   100  GLU100     -0.2867
     58  CB        30.8510    4.7710   27.5960 C.3   100  GLU100      0.0388
     59  CG        29.4360    5.1510   27.9710 C.3   100  GLU100      0.1160
     60  CD        28.4040    4.6370   26.9950 C.2   100  GLU100      0.3649
     61  OE1       28.6010    4.7750   25.7580 O.co2 100  GLU100     -0.2457
     62  OE2       27.3860    4.0840   27.4720 O.co2 100  GLU100     -0.2457
     63  N         33.1410    2.3220   23.2940 N.3   103  HIS103     -0.1241
     64  CA        32.0930    2.7140   22.3480 C.3   103  HIS103      0.1621
     65  C         32.5430    3.7380   21.2890 C.2   103  HIS103      0.2264
     66  O         32.1800    3.6230   20.1220 O.2   103  HIS103     -0.2867
     67  CB        30.8420    3.1550   23.0810 C.3   103  HIS103      0.0745
     68  CG        30.1250    2.0180   23.7500 C.ar  103  HIS103      0.0817
     69  ND1       28.8330    2.1220   24.2090 N.ar  103  HIS103     -0.2268
     70  CD2       30.5200    0.7550   24.0310 C.ar  103  HIS103      0.1154
     71  CE1       28.4700    0.9890   24.7710 C.ar  103  HIS103      0.1986
     72  NE2       29.4650    0.1280   24.6490 N.ar  103  HIS103     -0.2212
     73  N         32.5970    3.3670   17.1730 N.3   107  TRP107     -0.1241
     74  CA        32.0640    4.3250   16.2110 C.3   107  TRP107      0.1605
     75  C         33.1160    4.6270   15.1300 C.2   107  TRP107      0.2264
     76  O         32.7850    4.8050   13.9630 O.2   107  TRP107     -0.2867
     77  CB        31.6750    5.6020   16.9020 C.3   107  TRP107      0.0550
     78  CG        30.9870    6.6320   16.0480 C.ar  107  TRP107      0.0003
     79  CD1       31.5760    7.5230   15.2310 C.ar  107  TRP107      0.0946
     80  CD2       29.5660    6.8550   15.9340 C.ar  107  TRP107      0.0152
     81  NE1       30.6440    8.3290   14.6470 N.ar  107  TRP107     -0.2442
     82  CE2       29.3910    7.9460   15.0690 C.ar  107  TRP107      0.0810
     83  CE3       28.4400    6.2740   16.5140 C.ar  107  TRP107      0.0012
     84  CZ2       28.1300    8.4380   14.7460 C.ar  107  TRP107      0.0191
     85  CZ3       27.2160    6.7760   16.2290 C.ar  107  TRP107      0.0001
     86  CH2       27.0620    7.8730   15.3580 C.ar  107  TRP107      0.0015
     87  N         23.1560   19.3680   18.8270 N.3   133  LEU133     -0.1245
     88  CA        22.9770   18.3550   19.8780 C.3   133  LEU133      0.1561
     89  C         24.1750   18.3230   20.8630 C.2   133  LEU133      0.2260
     90  O         23.9850   18.3580   22.0820 O.2   133  LEU133     -0.2867
     91  CB        22.7460   16.9790   19.2450 C.3   133  LEU133      0.0270
     92  CG        22.4750   15.8430   20.2180 C.3   133  LEU133      0.0019
     93  CD1       21.2220   16.0560   21.0290 C.3   133  LEU133      0.0001
     94  CD2       22.4000   14.5190   19.4440 C.3   133  LEU133      0.0001
     95  N         18.7410   10.7080   25.1790 N.3   157  ILE157     -0.1231
     96  CA        19.6150   10.3240   24.0250 C.3   157  ILE157      0.1692
     97  C         19.8650    8.8140   23.9950 C.2   157  ILE157      0.2591
     98  O         19.6690    8.1550   22.9710 O.2   157  ILE157     -0.2718
     99  CB        20.8950   11.1210   23.9780 C.3   157  ILE157      0.0266
    100  CG1       20.5550   12.5950   23.7700 C.3   157  ILE157      0.0019
    101  CG2       21.8000   10.5890   22.8570 C.3   157  ILE157      0.0020
    102  CD1       21.7210   13.5140   23.9130 C.3   157  ILE157      0.0001
    103  N         20.2120    8.2340   25.1340 N.am  158  GLU158     -0.1979
    104  CA        20.4530    6.7980   25.1650 C.3   158  GLU158      0.1602
    105  C         19.1720    6.0260   24.8740 C.2   158  GLU158      0.2287
    106  O         19.2150    5.0180   24.1720 O.2   158  GLU158     -0.2864
    107  CB        21.0930    6.3430   26.4740 C.3   158  GLU158      0.0415
    108  CG        21.5770    4.8900   26.4580 C.3   158  GLU158      0.1163
    109  CD        22.8970    4.6640   25.7150 C.2   158  GLU158      0.3649
    110  OE1       23.3520    3.4870   25.6420 O.co2 158  GLU158     -0.2457
    111  OE2       23.4920    5.6320   25.2260 O.co2 158  GLU158     -0.2457
    112  N         18.4210    6.2300   21.2140 N.3   161  THR161     -0.1218
    113  CA        19.4800    5.5400   20.5050 C.3   161  THR161      0.1862
    114  C         19.3210    4.0370   20.5280 C.2   161  THR161      0.2287
    115  O         19.5830    3.3730   19.5170 O.2   161  THR161     -0.2866
    116  CB        20.8640    6.0140   20.9880 C.3   161  THR161      0.1770
    117  OG1       21.0120    7.4050   20.6270 O.3   161  THR161     -0.2211
    118  CG2       21.9690    5.2280   20.3530 C.3   161  THR161      0.0375
    119  N         16.5150    3.7320   17.7630 N.3   164  TRP164     -0.1241
    120  CA        16.9200    3.9430   16.3500 C.3   164  TRP164      0.1605
    121  C         17.9450    2.9090   15.9060 C.2   164  TRP164      0.2264
    122  O         17.8880    2.4630   14.7610 O.2   164  TRP164     -0.2867
    123  CB        17.3430    5.3780   16.0080 C.3   164  TRP164      0.0550
    124  CG        18.6330    5.9240   16.5220 C.ar  164  TRP164      0.0003
    125  CD1       18.7660    6.9200   17.4610 C.ar  164  TRP164      0.0946
    126  CD2       19.9580    5.6890   16.0180 C.ar  164  TRP164      0.0152
    127  NE1       20.0880    7.2220   17.6370 N.ar  164  TRP164     -0.2442
    128  CE2       20.8360    6.4760   16.7720 C.ar  164  TRP164      0.0810
    129  CE3       20.4980    4.8260   15.0620 C.ar  164  TRP164      0.0012
    130  CZ2       22.2180    6.4640   16.5700 C.ar  164  TRP164      0.0191
    131  CZ3       21.8760    4.8210   14.8570 C.ar  164  TRP164      0.0001
    132  CH2       22.7170    5.6270   15.6170 C.ar  164  TRP164      0.0015
    133  N         29.2130   -1.1110   16.9140 N.3   189  TRP189     -0.1241
    134  CA        28.5850   -0.0100   17.6180 C.3   189  TRP189      0.1605
    135  C         27.0730   -0.2030   17.6160 C.2   189  TRP189      0.2264
    136  O         26.4000   -0.1030   18.6730 O.2   189  TRP189     -0.2867
    137  CB        28.9820    1.3670   17.0450 C.3   189  TRP189      0.0550
    138  CG        28.5050    2.5030   17.9010 C.ar  189  TRP189      0.0003
    139  CD1       29.2240    3.1450   18.8650 C.ar  189  TRP189      0.0946
    140  CD2       27.1940    3.0840   17.9210 C.ar  189  TRP189      0.0152
    141  NE1       28.4460    4.1140   19.4720 N.ar  189  TRP189     -0.2442
    142  CE2       27.1930    4.0900   18.9010 C.ar  189  TRP189      0.0810
    143  CE3       26.0150    2.8620   17.1920 C.ar  189  TRP189      0.0012
    144  CZ2       26.0660    4.8540   19.1700 C.ar  189  TRP189      0.0191
    145  CZ3       24.8830    3.6200   17.4860 C.ar  189  TRP189      0.0001
    146  CH2       24.9240    4.6110   18.4560 C.ar  189  TRP189      0.0015
    147  N         24.2560   -1.1320   20.9330 N.3   193  HIS193     -0.1241
    148  CA        23.1790   -0.2650   21.3230 C.3   193  HIS193      0.1621
    149  C         21.7870   -0.7760   21.0090 C.2   193  HIS193      0.2264
    150  O         20.8590   -0.4060   21.6240 O.2   193  HIS193     -0.2867
    151  CB        23.3900    1.1450   20.7790 C.3   193  HIS193      0.0745
    152  CG        24.6030    1.7940   21.3210 C.ar  193  HIS193      0.0817
    153  ND1       25.8490    1.5910   20.7980 N.ar  193  HIS193     -0.2268
    154  CD2       24.7750    2.5820   22.4020 C.ar  193  HIS193      0.1154
    155  CE1       26.7360    2.2430   21.5170 C.ar  193  HIS193      0.1986
    156  NE2       26.1060    2.8400   22.4990 N.ar  193  HIS193     -0.2212
    157  N         18.1390   16.0190   17.9980 N.3   235  MET235     -0.1245
    158  CA        18.2670   14.8420   17.1610 C.3   235  MET235      0.1570
    159  C         17.4140   15.0120   15.8960 C.2   235  MET235      0.2261
    160  O         17.8700   14.7000   14.7980 O.2   235  MET235     -0.2867
    161  CB        17.8840   13.5580   17.9060 C.3   235  MET235      0.0387
    162  CG        18.7680   13.2640   19.1190 C.3   235  MET235      0.0595
    163  SD        18.2750   11.8110   20.0500 S.3   235  MET235     -0.1393
    164  CE        18.9290   10.4890   19.0580 C.3   235  MET235      0.0692
    165  N         19.0160   17.4470   13.4100 N.3   238  PHE238     -0.1227
    166  CA        20.1490   16.7580   12.7860 C.3   238  PHE238      0.1736
    167  C         19.6170   15.8930   11.6260 C.2   238  PHE238      0.2595
    168  O         20.1330   15.9580   10.4840 O.2   238  PHE238     -0.2718
    169  CB        20.8130   15.9070   13.8870 C.3   238  PHE238      0.0547
    170  CG        22.0390   15.1500   13.5040 C.ar  238  PHE238     -0.0202
    171  CD1       21.9990   14.1210   12.5520 C.ar  238  PHE238     -0.0042
    172  CD2       23.2240   15.3430   14.2330 C.ar  238  PHE238     -0.0042
    173  CE1       23.1290   13.3810   12.2750 C.ar  238  PHE238     -0.0003
    174  CE2       24.3630   14.6170   13.9610 C.ar  238  PHE238     -0.0003
    175  CZ        24.3180   13.6120   12.9810 C.ar  238  PHE238     -0.0000
    176  N         18.5760   15.1200   11.9160 N.am  239  LEU239     -0.1980
    177  CA        18.0220   14.1280   10.9680 C.3   239  LEU239      0.1596
    178  C         17.3280   14.8060    9.7850 C.2   239  LEU239      0.2287
    179  O         17.4990   14.3780    8.6320 O.2   239  LEU239     -0.2864
    180  CB        17.0580   13.1780   11.6740 C.3   239  LEU239      0.0297
    181  CG        17.7300   12.2830   12.7350 C.3   239  LEU239      0.0022
    182  CD1       16.6580   11.6710   13.6520 C.3   239  LEU239      0.0001
    183  CD2       18.5440   11.1890   12.0760 C.3   239  LEU239      0.0001
@<TRIPOS>BOND
     1    13    14    1
     2   179   178    2
     3     4     3    2
     4     3     2    1
     5     1     2    1
     6    17    14    1
     7    17    18    1
     8   178   177    1
     9    14    15    1
    10     2     5    1
    11   168   167    2
    12    18    20   ar
    13    18    19   ar
    14    15    16    2
    15   177   180    1
    16   177   176    1
    17    20    22   ar
    18     5     6    1
    19    19    21   ar
    20   167   176   am
    21   167   166    1
    22   180   181    1
    23   183   181    1
    24    22    23   ar
    25     7     6   ar
    26     7     9   ar
    27     6     8   ar
    28   173   171   ar
    29   173   175   ar
    30   171   170   ar
    31    21    23   ar
    32   181   182    1
    33   166   165    1
    34   166   169    1
    35   175   174   ar
    36     9    11   ar
    37    23    24    1
    38     8    10   ar
    39   170   169    1
    40   170   172   ar
    41    11    10   ar
    42    11    12    1
    43   174   172   ar
    44    76    75    2
    45    25    26    1
    46    81    82   ar
    47    81    79   ar
    48    84    82   ar
    49    84    86   ar
    50   122   121    2
    51   160   159    2
    52   131   129   ar
    53   131   132   ar
    54   129   126   ar
    55    82    80   ar
    56    75    74    1
    57    79    78   ar
    58    86    85   ar
    59    26    27    1
    60   132   130   ar
    61   159   158    1
    62   121   120    1
    63    80    78   ar
    64    80    83   ar
    65   123   120    1
    66   123   124    1
    67   126   124   ar
    68   126   128   ar
    69    78    77    1
    70    74    77    1
    71    74    73    1
    72    85    83   ar
    73   120   119    1
    74    27    28    2
    75   124   125   ar
    76   130   128   ar
    77   128   127   ar
    78   133   134    1
    79   137   134    1
    80   137   138    1
    81   158   161    1
    82   158   157    1
    83   143   145   ar
    84   143   140   ar
    85   125   127   ar
    86   145   146   ar
    87   135   134    1
    88   135   136    2
    89   138   140   ar
    90   138   139   ar
    91   161   162    1
    92   140   142   ar
    93   146   144   ar
    94    87    88    1
    95   139   141   ar
    96   142   144   ar
    97   142   141   ar
    98    42    40    1
    99   164   163    1
   100   162   163    1
   101    91    88    1
   102    91    92    1
   103    94    92    1
   104   115   114    2
   105    40    41    1
   106    40    37    1
   107    88    89    1
   108    29    30    1
   109    66    65    2
   110    92    93    1
   111   118   116    1
   112   113   114    1
   113   113   116    1
   114   113   112    1
   115    35    33    1
   116   117   116    1
   117    36    37    1
   118    36    31   am
   119   151   152    1
   120   151   148    1
   121    33    30    1
   122    33    34    1
   123   153   152   ar
   124   153   155   ar
   125    89    90    2
   126   147   148    1
   127    37    38    1
   128   149   148    1
   129   149   150    2
   130    30    31    1
   131    65    64    1
   132   152   154   ar
   133   155   156   ar
   134    31    32    2
   135    38    39    2
   136    64    67    1
   137    64    63    1
   138   154   156   ar
   139   101    99    1
   140    98    97    2
   141    67    68    1
   142    68    70   ar
   143    68    69   ar
   144   100   102    1
   145   100    99    1
   146    99    96    1
   147    97    96    1
   148    97   103   am
   149    96    95    1
   150    70    72   ar
   151   106   105    2
   152    69    71   ar
   153    72    71   ar
   154   105   104    1
   155   103   104    1
   156   104   107    1
   157   111   109   ar
   158    43    44    1
   159    49    51   ar
   160    49    48   ar
   161    47    48    1
   162    47    44    1
   163   110   109   ar
   164   109   108    1
   165    61    60   ar
   166    51    53   ar
   167    57    56    2
   168    48    50   ar
   169    44    45    1
   170   108   107    1
   171    53    52   ar
   172    50    52   ar
   173    60    62   ar
   174    60    59    1
   175    56    55    1
   176    55    58    1
   177    55    54    1
   178    58    59    1
   179    45    46    2
