@<TRIPOS>MOLECULE
tmp/4wx2A01.pdb
 72 69 0 0 0
SMALL
GASTEIGER

@<TRIPOS>ATOM
      1  N         43.8480   44.5010   17.1090 N.3    22  PHE22      -0.1241
      2  CA        42.5400   44.1310   16.5580 C.3    22  PHE22       0.1605
      3  C         41.5980   45.3570   16.5900 C.2    22  PHE22       0.2264
      4  O         41.4980   46.0200   17.6210 O.2    22  PHE22      -0.2867
      5  CB        41.9060   42.9650   17.3090 C.3    22  PHE22       0.0534
      6  CG        40.4470   42.7760   16.9610 C.ar   22  PHE22      -0.0203
      7  CD1       40.0700   41.9890   15.8950 C.ar   22  PHE22      -0.0042
      8  CD2       39.4430   43.4630   17.6770 C.ar   22  PHE22      -0.0042
      9  CE1       38.7390   41.8470   15.5410 C.ar   22  PHE22      -0.0003
     10  CE2       38.1110   43.3660   17.2840 C.ar   22  PHE22      -0.0003
     11  CZ        37.7740   42.5340   16.2240 C.ar   22  PHE22      -0.0000
     12  N         28.8650   36.6150   18.8820 N.3    58  LEU58      -0.1231
     13  CA        28.8210   35.7310   20.0460 C.3    58  LEU58       0.1693
     14  C         30.1320   35.7110   20.8450 C.2    58  LEU58       0.2592
     15  O         30.1080   35.8120   22.0790 O.2    58  LEU58      -0.2718
     16  CB        28.5210   34.2980   19.6100 C.3    58  LEU58       0.0284
     17  CG        28.8490   33.2490   20.6710 C.3    58  LEU58       0.0019
     18  CD1       28.0890   33.5620   21.9490 C.3    58  LEU58       0.0001
     19  CD2       28.5290   31.8250   20.2020 C.3    58  LEU58       0.0001
     20  N         31.2450   35.5690   20.1260 N.am   59  ALA59      -0.1966
     21  CA        32.5580   35.3280   20.7670 C.3    59  ALA59       0.1728
     22  C         33.3040   36.5970   21.1900 C.2    59  ALA59       0.2616
     23  O         34.4960   36.5390   21.6260 O.2    59  ALA59      -0.2715
     24  CB        33.4430   34.4940   19.8610 C.3    59  ALA59       0.0334
     25  N         32.6110   37.7230   21.1080 N.am   60  ASP60      -0.1957
     26  CA        33.1960   39.0040   21.4460 C.3    60  ASP60       0.1840
     27  C         32.5980   39.5650   22.7470 C.2    60  ASP60       0.2622
     28  O         31.4250   39.3200   23.0640 O.2    60  ASP60      -0.2715
     29  CB        32.9720   39.9650   20.2790 C.3    60  ASP60       0.1450
     30  CG        33.8790   39.6210   19.0710 C.2    60  ASP60       0.3671
     31  OD1       35.1190   39.6330   19.2740 O.co2  60  ASP60      -0.2456
     32  OD2       33.3530   39.3310   17.9680 O.co2  60  ASP60      -0.2456
     33  N         33.4210   40.3300   23.4700 N.am   61  GLY61      -0.1954
     34  CA        33.0270   40.9240   24.7380 C.3    61  GLY61       0.1869
     35  C         32.4110   42.2810   24.4780 C.2    61  GLY61       0.2309
     36  O         32.3490   42.7300   23.3410 O.2    61  GLY61      -0.2863
     37  N         33.1360   45.4700   24.7120 N.3    63  THR63      -0.1203
     38  CA        33.8450   46.5390   24.0370 C.3    63  THR63       0.1994
     39  C         33.7470   46.3420   22.5280 C.2    63  THR63       0.2617
     40  O         33.3970   47.2840   21.8050 O.2    63  THR63      -0.2717
     41  CB        35.3090   46.5850   24.4410 C.3    63  THR63       0.1784
     42  OG1       35.3670   46.8200   25.8430 O.3    63  THR63      -0.2211
     43  CG2       36.0540   47.7250   23.6840 C.3    63  THR63       0.0376
     44  N         33.9640   45.1050   22.0980 N.am   64  ILE64      -0.1979
     45  CA        33.9090   44.7810   20.6770 C.3    64  ILE64       0.1595
     46  C         32.4530   44.6840   20.1730 C.2    64  ILE64       0.2287
     47  O         32.1580   45.1130   19.0790 O.2    64  ILE64      -0.2864
     48  CB        34.6760   43.4920   20.3370 C.3    64  ILE64       0.0276
     49  CG1       36.1870   43.6000   20.7140 C.3    64  ILE64       0.0022
     50  CG2       34.5100   43.1580   18.8480 C.3    64  ILE64       0.0022
     51  CD1       36.9130   44.8150   20.1960 C.3    64  ILE64       0.0001
     52  N         43.9070   37.8360   23.8320 N.3   197  PHE197     -0.1241
     53  CA        42.8740   37.8980   24.9110 C.3   197  PHE197      0.1605
     54  C         43.4800   38.5580   26.1770 C.2   197  PHE197      0.2264
     55  O         44.4140   38.0210   26.7930 O.2   197  PHE197     -0.2867
     56  CB        42.2570   36.5260   25.2860 C.3   197  PHE197      0.0534
     57  CG        41.2410   35.9770   24.2940 C.ar  197  PHE197     -0.0203
     58  CD1       41.3440   36.1970   22.9160 C.ar  197  PHE197     -0.0042
     59  CD2       40.2290   35.1330   24.7550 C.ar  197  PHE197     -0.0042
     60  CE1       40.3970   35.6470   22.0370 C.ar  197  PHE197     -0.0003
     61  CE2       39.2950   34.5840   23.8850 C.ar  197  PHE197     -0.0003
     62  CZ        39.3800   34.8420   22.5230 C.ar  197  PHE197     -0.0000
     63  N         43.0610   43.8440   21.3030 N.3   219  GLY219     -0.1210
     64  CA        41.9210   44.4870   20.6930 C.3   219  GLY219      0.1956
     65  C         41.1530   45.3800   21.6340 C.2   219  GLY219      0.2612
     66  O         41.1010   46.6170   21.4100 O.2   219  GLY219     -0.2717
     67  N         40.5880   44.7930   22.7000 N.am  220  SER220     -0.1952
     68  CA        39.7700   45.5990   23.6270 C.3   220  SER220      0.1924
     69  C         40.4700   46.8830   24.0400 C.2   220  SER220      0.2314
     70  O         39.8760   47.9780   23.9670 O.2   220  SER220     -0.2863
     71  CB        39.3820   44.7880   24.8820 C.3   220  SER220      0.2116
     72  OG        38.5140   43.7340   24.4860 O.3   220  SER220     -0.2180
@<TRIPOS>BOND
     1     9     7   ar
     2     9    11   ar
     3     7     6   ar
     4    11    10   ar
     5     2     3    1
     6     2     1    1
     7     2     5    1
     8     3     4    2
     9     6     5    1
    10     6     8   ar
    11    10     8   ar
    12    32    30   ar
    13    50    48    1
    14    12    13    1
    15    30    31   ar
    16    30    29    1
    17    47    46    2
    18    16    13    1
    19    16    17    1
    20    24    21    1
    21    13    14    1
    22    20    21    1
    23    20    14   am
    24    46    45    1
    25    51    49    1
    26    19    17    1
    27    29    26    1
    28    48    45    1
    29    48    49    1
    30    17    18    1
    31    45    44    1
    32    64    63    1
    33    64    65    1
    34    21    22    1
    35    14    15    2
    36    25    22   am
    37    25    26    1
    38    22    23    2
    39    66    65    2
    40    26    27    1
    41    65    67   am
    42    40    39    2
    43    60    62   ar
    44    60    58   ar
    45    44    39   am
    46    62    61   ar
    47    39    38    1
    48    67    68    1
    49    27    28    2
    50    27    33   am
    51    58    57   ar
    52    36    35    2
    53    33    34    1
    54    68    69    1
    55    68    71    1
    56    43    41    1
    57    52    53    1
    58    61    59   ar
    59    70    69    2
    60    38    41    1
    61    38    37    1
    62    57    59   ar
    63    57    56    1
    64    41    42    1
    65    35    34    1
    66    72    71    1
    67    53    56    1
    68    53    54    1
    69    54    55    2
