@<TRIPOS>MOLECULE
tmp/4wx4A01.pdb
 177 172 0 0 0
SMALL
GASTEIGER

@<TRIPOS>ATOM
      1  N        -12.5060   -4.4070   19.3440 N.3     1  SER1       -0.1202
      2  CA       -11.8040   -3.4330   20.1850 C.3     1  SER1        0.2020
      3  C        -10.9170   -2.5740   19.2660 C.2     1  SER1        0.2619
      4  O        -10.2030   -3.0990   18.4410 O.2     1  SER1       -0.2717
      5  CB       -10.9390   -4.1370   21.2350 C.3     1  SER1        0.2103
      6  OG       -10.4660   -3.1990   22.1510 O.3     1  SER1       -0.2182
      7  N        -10.9500   -1.2820   19.4780 N.am    2  GLY2       -0.1942
      8  CA       -10.1620   -0.3890   18.7140 C.3     2  GLY2        0.2014
      9  C        -10.6750   -0.1970   17.2850 C.2     2  GLY2        0.2640
     10  O        -11.8140   -0.5290   16.9970 O.2     2  GLY2       -0.2714
     11  N         -9.9280    0.3080   16.4090 N.am    3  SER3       -0.1935
     12  CA       -10.3050    0.6860   15.0380 C.3     3  SER3        0.2055
     13  C        -10.1640   -0.4820   14.0430 C.2     3  SER3        0.2644
     14  O         -9.1550   -1.1820   14.0080 O.2     3  SER3       -0.2714
     15  CB        -9.3870    1.7960   14.5760 C.3     3  SER3        0.2130
     16  OG        -9.4200    2.9370   15.3910 O.3     3  SER3       -0.2179
     17  N        -11.1790   -0.5750   13.1770 N.am    4  SER4       -0.1935
     18  CA       -11.1980   -1.5170   12.0540 C.3     4  SER4        0.2055
     19  C        -10.3100   -1.0590   10.9380 C.2     4  SER4        0.2643
     20  O         -9.9920    0.1250   10.7770 O.2     4  SER4       -0.2714
     21  CB       -12.6110   -1.7130   11.5140 C.3     4  SER4        0.2130
     22  OG       -13.0320   -0.5350   10.7940 O.3     4  SER4       -0.2179
     23  N        -10.0150   -2.0130   10.0250 N.am    5  GLU5       -0.1963
     24  CA        -9.2260   -1.6800    8.8740 C.3     5  GLU5        0.1733
     25  C         -9.8520   -0.6100    8.0060 C.2     5  GLU5        0.2616
     26  O         -9.1690    0.2540    7.4690 O.2     5  GLU5       -0.2715
     27  CB        -8.8930   -2.9530    8.0050 C.3     5  GLU5        0.0429
     28  CG       -10.0890   -3.6340    7.4300 C.3     5  GLU5        0.1163
     29  CD        -9.8410   -4.9600    6.7790 C.2     5  GLU5        0.3649
     30  OE1       -8.6790   -5.2960    6.4590 O.co2   5  GLU5       -0.2457
     31  OE2      -10.7880   -5.7730    6.5580 O.co2   5  GLU5       -0.2457
     32  N        -11.1810   -0.6820    7.8570 N.am    6  GLN6       -0.1977
     33  CA       -11.8410    0.2640    6.9990 C.3     6  GLN6        0.1601
     34  C        -11.9140    1.6720    7.6280 C.2     6  GLN6        0.2287
     35  O        -11.8240    2.6790    6.9160 O.2     6  GLN6       -0.2864
     36  CB       -13.2590   -0.2140    6.6120 C.3     6  GLN6        0.0394
     37  CG       -13.2550   -1.5400    5.9140 C.3     6  GLN6        0.0908
     38  CD       -13.5860   -2.7440    6.9320 C.2     6  GLN6        0.2608
     39  OE1      -14.1650   -3.7360    6.4610 O.2     6  GLN6       -0.2717
     40  NE2      -13.2500   -2.6950    8.2520 N.am    6  GLN6       -0.0878
     41  N         -4.0960   -0.9200    5.0390 N.3    24  THR24      -0.1203
     42  CA        -4.0490   -1.4420    6.3710 C.3    24  THR24       0.1994
     43  C         -3.7040   -2.9320    6.3340 C.2    24  THR24       0.2618
     44  O         -4.4060   -3.6780    5.6240 O.2    24  THR24      -0.2717
     45  CB        -5.3790   -1.2190    7.1130 C.3    24  THR24       0.1784
     46  OG1       -5.8020    0.1790    6.9700 O.3    24  THR24      -0.2211
     47  CG2       -5.2530   -1.4640    8.6050 C.3    24  THR24       0.0376
     48  N         -2.6890   -3.3510    7.0560 N.am   25  HIS25      -0.1961
     49  CA        -2.1610   -4.6990    7.0020 C.3    25  HIS25       0.1787
     50  C         -2.1160   -5.3430    8.3770 C.2    25  HIS25       0.2620
     51  O         -2.0170   -4.6470    9.3980 O.2    25  HIS25      -0.2715
     52  CB        -0.7200   -4.6990    6.4710 C.3    25  HIS25       0.0785
     53  CG        -0.5700   -4.3890    5.0260 C.ar   25  HIS25       0.0821
     54  ND1       -0.7360   -3.1480    4.4520 N.ar   25  HIS25      -0.2267
     55  CD2       -0.2970   -5.2190    3.9940 C.ar   25  HIS25       0.1154
     56  CE1       -0.5520   -3.2840    3.1300 C.ar   25  HIS25       0.1986
     57  NE2       -0.2860   -4.5400    2.8200 N.ar   25  HIS25      -0.2212
     58  N         -2.1010   -6.6670    8.3870 N.am   26  ASP26      -0.1971
     59  CA        -1.6430   -7.4170    9.5420 C.3    26  ASP26       0.1709
     60  C         -0.1120   -7.3950    9.6050 C.2    26  ASP26       0.2293
     61  O          0.5640   -6.6880    8.8440 O.2    26  ASP26      -0.2864
     62  CB        -2.2500   -8.8280    9.5490 C.3    26  ASP26       0.1436
     63  CG        -1.6140   -9.8000    8.5640 C.2    26  ASP26       0.3671
     64  OD1       -0.6730   -9.4750    7.8580 O.co2  26  ASP26      -0.2456
     65  OD2       -2.1680  -10.9690    8.5640 O.co2  26  ASP26      -0.2456
     66  N         -0.6670   -4.0880   11.8270 N.3    44  ASN44      -0.1240
     67  CA        -0.9500   -4.6840   13.1210 C.3    44  ASN44       0.1653
     68  C          0.2500   -5.4700   13.6290 C.2    44  ASN44       0.2266
     69  O          0.9850   -6.0610   12.8540 O.2    44  ASN44      -0.2867
     70  CB        -2.1820   -5.6140   13.0180 C.3    44  ASN44       0.1155
     71  CG        -2.9960   -5.6740   14.2520 C.2    44  ASN44       0.2627
     72  OD1       -2.6940   -6.4300   15.2090 O.2    44  ASN44      -0.2716
     73  ND2       -4.0740   -4.8890   14.2920 N.am   44  ASN44      -0.0877
     74  N         -0.2590   -8.2520   15.1020 N.3    46  ALA46      -0.1231
     75  CA        -0.7430   -9.6280   15.0510 C.3    46  ALA46       0.1694
     76  C         -1.1940   -9.9930   13.6330 C.2    46  ALA46       0.2593
     77  O         -1.4000   -9.1510   12.7630 O.2    46  ALA46      -0.2718
     78  CB        -1.8330   -9.8340   16.0580 C.3    46  ALA46       0.0304
     79  N         -1.4080  -11.2960   13.4320 N.am   47  GLY47      -0.1942
     80  CA        -1.9580  -11.7710   12.1720 C.3    47  GLY47       0.2014
     81  C         -3.4610  -11.5190   12.0770 C.2    47  GLY47       0.2638
     82  O         -4.1760  -11.4820   13.0640 O.2    47  GLY47      -0.2714
     83  N         -3.9380  -11.4070   10.8090 N.am   48  ARG48      -0.1977
     84  CA        -5.3470  -11.1210   10.5950 C.3    48  ARG48       0.1597
     85  C         -6.2890  -12.0940   11.3410 C.2    48  ARG48       0.2287
     86  O         -7.3300  -11.7010   11.8640 O.2    48  ARG48      -0.2864
     87  CB        -5.6480  -11.1390    9.0800 C.3    48  ARG48       0.0334
     88  CG        -7.0010  -10.6510    8.7310 C.3    48  ARG48       0.0492
     89  CD        -7.2680  -10.7680    7.2300 C.3    48  ARG48       0.2205
     90  NE        -8.5930  -10.2460    6.8740 N.pl3  48  ARG48      -0.0865
     91  CZ        -8.8590   -8.9700    6.6630 C.cat  48  ARG48       0.5346
     92  NH1       -7.9030   -8.0530    6.7060 N.pl3  48  ARG48       0.1354
     93  NH2      -10.0850   -8.5950    6.3580 N.pl3  48  ARG48       0.1354
     94  N         -7.8680  -11.4610   14.8780 N.3    51  GLY51      -0.1210
     95  CA        -8.7330  -10.3640   15.1610 C.3    51  GLY51       0.1956
     96  C         -8.0090   -9.0270   15.4690 C.2    51  GLY51       0.2612
     97  O         -8.6930   -8.0080   15.6040 O.2    51  GLY51      -0.2717
     98  N         -6.6810   -9.0780   15.5440 N.am   52  GLY52      -0.1942
     99  CA        -5.8920   -7.8700   15.7310 C.3    52  GLY52       0.2014
    100  C         -5.6150   -7.5770   17.1890 C.2    52  GLY52       0.2639
    101  O         -6.3750   -7.9450   18.1110 O.2    52  GLY52      -0.2714
    102  N         -4.4920   -6.8900   17.4220 N.am   53  VAL53      -0.1963
    103  CA        -4.0250   -6.5780   18.7870 C.3    53  VAL53       0.1727
    104  C         -3.6140   -5.1150   18.9420 C.2    53  VAL53       0.2616
    105  O         -4.0430   -4.4550   19.8990 O.2    53  VAL53      -0.2715
    106  CB        -2.8680   -7.5080   19.1650 C.3    53  VAL53       0.0290
    107  CG1       -2.3220   -7.1480   20.5630 C.3    53  VAL53       0.0023
    108  CG2       -3.3750   -8.9760   19.1930 C.3    53  VAL53       0.0023
    109  N         -2.7460   -4.5990   18.0590 N.am   54  HIS54      -0.1959
    110  CA        -2.2060   -3.2560   18.2700 C.3    54  HIS54       0.1787
    111  C         -1.8130   -2.7330   16.9190 C.2    54  HIS54       0.2620
    112  O         -1.3030   -3.4980   16.0670 O.2    54  HIS54      -0.2715
    113  CB        -0.9620   -3.3440   19.2020 C.3    54  HIS54       0.0785
    114  CG        -0.3580   -2.0290   19.5100 C.ar   54  HIS54       0.0821
    115  ND1       -1.0210   -0.9870   20.0760 N.ar   54  HIS54      -0.2267
    116  CD2        0.9450   -1.6160   19.2960 C.ar   54  HIS54       0.1154
    117  CE1       -0.1560   -0.0010   20.2290 C.ar   54  HIS54       0.1986
    118  NE2        1.0470   -0.3420   19.7540 N.ar   54  HIS54      -0.2212
    119  N         -1.9760   -1.4410   16.6700 N.am   55  TRP55      -0.1974
    120  CA        -1.7030   -0.7900   15.3970 C.3    55  TRP55       0.1640
    121  C         -0.4200    0.0450   15.4980 C.2    55  TRP55       0.2290
    122  O         -0.2570    0.8450   16.4140 O.2    55  TRP55      -0.2864
    123  CB        -2.8050    0.1120   14.9430 C.3    55  TRP55       0.0576
    124  CG        -4.0870   -0.5780   14.6130 C.ar   55  TRP55       0.0006
    125  CD1       -5.3210   -0.4380   15.2500 C.ar   55  TRP55       0.0946
    126  CD2       -4.3460   -1.4760   13.5130 C.ar   55  TRP55       0.0152
    127  NE1       -6.2850   -1.1530   14.6020 N.ar   55  TRP55      -0.2442
    128  CE2       -5.7310   -1.7880   13.5330 C.ar   55  TRP55       0.0810
    129  CE3       -3.5440   -2.0010   12.4900 C.ar   55  TRP55       0.0012
    130  CZ2       -6.3100   -2.6070   12.5750 C.ar   55  TRP55       0.0191
    131  CZ3       -4.1350   -2.8250   11.5240 C.ar   55  TRP55       0.0001
    132  CH2       -5.5050   -3.0990   11.5910 C.ar   55  TRP55       0.0015
    133  N          2.9080    3.6970   21.5870 N.3    73  PHE73      -0.1241
    134  CA         3.5160    3.4790   22.9120 C.3    73  PHE73       0.1605
    135  C          5.0200    3.7200   22.9330 C.2    73  PHE73       0.2264
    136  O          5.6030    3.8070   24.0300 O.2    73  PHE73      -0.2867
    137  CB         3.2550    2.0590   23.3840 C.3    73  PHE73       0.0534
    138  CG         1.8200    1.7740   23.7410 C.ar   73  PHE73      -0.0203
    139  CD1        1.0310    2.6530   24.5480 C.ar   73  PHE73      -0.0042
    140  CD2        1.2350    0.5630   23.3310 C.ar   73  PHE73      -0.0042
    141  CE1       -0.2560    2.3260   24.9140 C.ar   73  PHE73      -0.0003
    142  CE2       -0.0810    0.2700   23.7330 C.ar   73  PHE73      -0.0003
    143  CZ        -0.7970    1.1560   24.5030 C.ar   73  PHE73      -0.0000
    144  N          0.1770    7.5420   24.2100 N.3   115  GLN115     -0.1245
    145  CA        -1.0850    6.8800   24.4360 C.3   115  GLN115      0.1566
    146  C         -1.1330    6.2790   25.8340 C.2   115  GLN115      0.2260
    147  O         -0.1610    5.6670   26.3240 O.2   115  GLN115     -0.2867
    148  CB        -1.2380    5.7670   23.3940 C.3   115  GLN115      0.0367
    149  CG        -2.5130    5.0060   23.5250 C.3   115  GLN115      0.0905
    150  CD        -2.7220    4.0030   22.4680 C.2   115  GLN115      0.2608
    151  OE1       -2.2980    4.1480   21.3340 O.2   115  GLN115     -0.2717
    152  NE2       -3.3670    2.8570   22.8190 N.am  115  GLN115     -0.0878
    153  N         -5.8350    2.5770   26.5780 N.3   119  SER119     -0.1202
    154  CA        -6.5840    3.2290   25.4990 C.3   119  SER119      0.2020
    155  C         -6.6880    2.3060   24.2860 C.2   119  SER119      0.2618
    156  O         -5.8100    1.4940   24.0040 O.2   119  SER119     -0.2717
    157  CB        -5.8170    4.4730   25.1140 C.3   119  SER119      0.2103
    158  OG        -6.4140    5.0640   23.9680 O.3   119  SER119     -0.2182
    159  N         -7.8070    2.4730   23.5580 N.am  120  ALA120     -0.1979
    160  CA        -8.0510    1.7750   22.3040 C.3   120  ALA120      0.1597
    161  C         -7.8220    2.6730   21.0830 C.2   120  ALA120      0.2287
    162  O         -8.2960    2.3230   19.9920 O.2   120  ALA120     -0.2864
    163  CB        -9.3970    1.0840   22.3210 C.3   120  ALA120      0.0319
    164  N         -4.9450    3.4520   19.4780 N.3   122  CYS122     -0.1235
    165  CA        -3.6950    3.3030   18.7480 C.3   122  CYS122      0.1677
    166  C         -3.8210    3.5630   17.2440 C.2   122  CYS122      0.2270
    167  O         -2.9520    4.2000   16.6610 O.2   122  CYS122     -0.2867
    168  CB        -3.0670    1.9460   18.9870 C.3   122  CYS122      0.0956
    169  SG        -4.0990    0.5270   18.5650 S.3   122  CYS122     -0.0801
    170  N         -9.7660   -0.4860   27.4970 N.3   201  MET201     -0.1301
    171  CA        -9.2180   -1.7960   27.6650 C.3   201  MET201      0.1256
    172  C         -9.3020   -2.1190   29.2200 C.3   201  MET201      0.2010
    173  O         -8.9030   -3.2810   29.6270 O.3   201  MET201     -0.2188
    174  CB        -7.8380   -1.9010   26.9320 C.3   201  MET201      0.0333
    175  CG        -7.8450   -1.5740   25.3750 C.3   201  MET201      0.0592
    176  SD        -9.0410   -2.5030   24.4050 S.3   201  MET201     -0.1393
    177  CE        -8.2440   -4.1050   24.5180 C.3   201  MET201      0.0692
@<TRIPOS>BOND
     1    57    56   ar
     2    57    55   ar
     3    56    54   ar
     4    55    53   ar
     5    54    53   ar
     6    53    52    1
     7    41    42    1
     8    44    43    2
     9    37    36    1
    10    37    38    1
    11    43    42    1
    12    43    48   am
    13    93    91    1
    14    42    45    1
    15    30    29   ar
    16    39    38    2
    17    52    49    1
    18    31    29   ar
    19    36    33    1
    20    91    92    1
    21    91    90    2
    22    29    28    1
    23    90    89    1
    24    35    34    2
    25    38    40   am
    26    46    45    1
    27    33    34    1
    28    33    32    1
    29    49    48    1
    30    49    50    1
    31    45    47    1
    32    89    88    1
    33    28    27    1
    34    26    25    2
    35    32    25   am
    36    64    63   ar
    37    27    24    1
    38    25    24    1
    39    50    58   am
    40    50    51    2
    41    58    59    1
    42    63    65   ar
    43    63    62    1
    44    88    87    1
    45    61    60    2
    46    24    23    1
    47    87    84    1
    48    59    62    1
    49    59    60    1
    50    23    19   am
    51    84    83    1
    52    84    85    1
    53    20    19    2
    54    22    21    1
    55    83    81   am
    56    19    18    1
    57    85    86    2
    58    21    18    1
    59   131   132   ar
    60   131   129   ar
    61   132   130   ar
    62    66    67    1
    63    18    17    1
    64    81    80    1
    65    81    82    2
    66    80    79    1
    67   129   126   ar
    68   130   128   ar
    69    77    76    2
    70    69    68    2
    71    70    67    1
    72    70    71    1
    73    67    68    1
    74    17    13   am
    75    79    76   am
    76   126   128   ar
    77   126   124   ar
    78   128   127   ar
    79    76    75    1
    80    14    13    2
    81    13    12    1
    82    71    73   am
    83    71    72    2
    84    15    12    1
    85    15    16    1
    86   127   125   ar
    87   124   123    1
    88   124   125   ar
    89    94    95    1
    90   123   120    1
    91    12    11    1
    92    75    74    1
    93    75    78    1
    94    95    96    1
    95   120   121    1
    96   120   119    1
    97    96    98   am
    98    96    97    2
    99   121   122    2
   100    98    99    1
   101    99   100    1
   102   112   111    2
   103    11     9   am
   104   167   166    2
   105   119   111   am
   106   111   110    1
   107    10     9    2
   108   100   102   am
   109   100   101    2
   110   166   165    1
   111     9     8    1
   112   102   103    1
   113   109   110    1
   114   109   104   am
   115   110   113    1
   116     4     3    2
   117   169   168    1
   118     8     7    1
   119   165   168    1
   120   165   164    1
   121   103   104    1
   122   103   106    1
   123   104   105    2
   124   106   108    1
   125   106   107    1
   126   113   114    1
   127     3     7   am
   128     3     2    1
   129   116   114   ar
   130   116   118   ar
   131     1     2    1
   132   114   115   ar
   133   118   117   ar
   134   162   161    2
   135   115   117   ar
   136     2     5    1
   137   161   160    1
   138     5     6    1
   139   151   150    2
   140   133   134    1
   141   160   163    1
   142   160   159    1
   143   150   152   am
   144   150   149    1
   145   134   135    1
   146   134   137    1
   147   135   136    2
   148   140   142   ar
   149   140   138   ar
   150   137   138    1
   151   148   149    1
   152   148   145    1
   153   159   155   am
   154   142   143   ar
   155   138   139   ar
   156   158   157    1
   157   156   155    2
   158   144   145    1
   159   155   154    1
   160   176   177    1
   161   176   175    1
   162   145   146    1
   163   143   141   ar
   164   139   141   ar
   165   157   154    1
   166   175   174    1
   167   154   153    1
   168   146   147    2
   169   174   171    1
   170   170   171    1
   171   171   172    1
   172   172   173    1
