@<TRIPOS>MOLECULE
tmp/4wx4A00.pdb
 129 123 0 0 0
SMALL
GASTEIGER

@<TRIPOS>ATOM
      1  N         15.6030   10.2520    1.3990 N.3    64  SER64      -0.1202
      2  CA        16.5760   10.0280    2.4310 C.3    64  SER64       0.2020
      3  C         16.7720    8.5270    2.7000 C.2    64  SER64       0.2618
      4  O         17.6440    8.1660    3.4940 O.2    64  SER64      -0.2717
      5  CB        16.2020   10.7750    3.6790 C.3    64  SER64       0.2103
      6  OG        15.0030   10.2340    4.1880 O.3    64  SER64      -0.2182
      7  N         16.0040    7.6750    2.0850 N.am   65  ARG65      -0.1979
      8  CA        15.9860    6.2210    2.4050 C.3    65  ARG65       0.1597
      9  C         15.8010    6.0240    3.8930 C.2    65  ARG65       0.2287
     10  O         16.5180    5.1870    4.5070 O.2    65  ARG65      -0.2864
     11  CB        17.1270    5.4620    1.7580 C.3    65  ARG65       0.0334
     12  CG        16.9960    5.5190    0.2030 C.3    65  ARG65       0.0492
     13  CD        18.0890    4.7410   -0.4970 C.3    65  ARG65       0.2205
     14  NE        19.3940    5.3760   -0.3610 N.pl3  65  ARG65      -0.0865
     15  CZ        20.4800    4.9240    0.3460 C.cat  65  ARG65       0.5346
     16  NH1       21.6060    5.6240    0.3020 N.pl3  65  ARG65       0.1354
     17  NH2       20.4740    3.8100    1.0990 N.pl3  65  ARG65       0.1354
     18  N         12.2580   -2.2490   19.6840 N.3    77  ASP77      -0.1239
     19  CA        12.0550   -3.4700   18.9190 C.3    77  ASP77       0.1674
     20  C         12.0430   -4.6920   19.8190 C.2    77  ASP77       0.2266
     21  O         11.2640   -5.6300   19.6120 O.2    77  ASP77      -0.2867
     22  CB        13.1460   -3.6480   17.8460 C.3    77  ASP77       0.1410
     23  CG        13.0790   -2.6110   16.7220 C.2    77  ASP77       0.3668
     24  OD1       12.1400   -1.7910   16.7290 O.co2  77  ASP77      -0.2456
     25  OD2       13.9540   -2.7310   15.8310 O.co2  77  ASP77      -0.2456
     26  N          9.9120   -6.9780   12.6200 N.3    88  TYR88      -0.1227
     27  CA         9.7950   -6.3310   11.2900 C.3    88  TYR88       0.1736
     28  C         11.1280   -6.2070   10.6000 C.2    88  TYR88       0.2595
     29  O         11.2670   -5.5090    9.5910 O.2    88  TYR88      -0.2718
     30  CB         9.0350   -4.9820   11.3720 C.3    88  TYR88       0.0548
     31  CG         9.7200   -3.9230   12.1540 C.ar   88  TYR88      -0.0200
     32  CD1        9.6610   -3.9160   13.5340 C.ar   88  TYR88      -0.0009
     33  CD2       10.4110   -2.8950   11.5220 C.ar   88  TYR88      -0.0009
     34  CE1       10.2600   -2.9060   14.2720 C.ar   88  TYR88       0.0417
     35  CE2       11.0070   -1.8990   12.2250 C.ar   88  TYR88       0.0417
     36  CZ        10.9410   -1.8860   13.6330 C.ar   88  TYR88       0.1957
     37  OH        11.5350   -0.8590   14.2960 O.3    88  TYR88      -0.2866
     38  N         12.1630   -6.9210   11.0900 N.am   89  GLU89      -0.1979
     39  CA        13.4440   -6.9330   10.4120 C.3    89  GLU89       0.1602
     40  C         13.3490   -7.5080    8.9930 C.2    89  GLU89       0.2287
     41  O         14.0100   -7.0130    8.0760 O.2    89  GLU89      -0.2864
     42  CB        14.4860   -7.7390   11.1910 C.3    89  GLU89       0.0415
     43  CG        15.2080   -6.9020   12.2460 C.3    89  GLU89       0.1163
     44  CD        16.0270   -5.6650   11.7890 C.2    89  GLU89       0.3649
     45  OE1       16.8700   -5.6390   10.8590 O.co2  89  GLU89      -0.2457
     46  OE2       15.8170   -4.7090   12.4890 O.co2  89  GLU89      -0.2457
     47  N         12.1400   -4.8190    6.6920 N.3    92  LEU92      -0.1231
     48  CA        13.1970   -3.7860    6.4350 C.3    92  LEU92       0.1693
     49  C         14.2060   -4.3230    5.4620 C.2    92  LEU92       0.2591
     50  O         14.6500   -3.6200    4.5450 O.2    92  LEU92      -0.2718
     51  CB        13.9330   -3.3920    7.6870 C.3    92  LEU92       0.0284
     52  CG        13.1240   -2.6620    8.7530 C.3    92  LEU92       0.0019
     53  CD1       14.0040   -2.3360    9.9470 C.3    92  LEU92       0.0001
     54  CD2       12.4690   -1.3890    8.1990 C.3    92  LEU92       0.0001
     55  N         14.6340   -5.5920    5.6410 N.am   93  ARG93      -0.1980
     56  CA        15.6200   -6.2000    4.7340 C.3    93  ARG93       0.1597
     57  C         15.0800   -6.2180    3.3170 C.2    93  ARG93       0.2287
     58  O         15.7870   -5.8550    2.3510 O.2    93  ARG93      -0.2864
     59  CB        15.9360   -7.5950    5.1840 C.3    93  ARG93       0.0334
     60  CG        16.9150   -8.3050    4.2870 C.3    93  ARG93       0.0492
     61  CD        17.2320   -9.7410    4.8110 C.3    93  ARG93       0.2205
     62  NE        18.5970  -10.1710    4.3660 N.pl3  93  ARG93      -0.0865
     63  CZ        18.8370  -10.7740    3.1950 C.cat  93  ARG93       0.5346
     64  NH1       17.8510  -11.0180    2.3900 N.pl3  93  ARG93       0.1354
     65  NH2       20.0420  -11.2150    2.8540 N.pl3  93  ARG93       0.1354
     66  N         16.7920   -4.1200    0.1810 N.3    97  LEU97      -0.1245
     67  CA        17.3160   -4.8140   -1.0090 C.3    97  LEU97       0.1561
     68  C         16.5630   -4.4170   -2.2350 C.2    97  LEU97       0.2260
     69  O         17.1430   -4.4580   -3.3240 O.2    97  LEU97      -0.2867
     70  CB        17.3040   -6.3230   -0.7720 C.3    97  LEU97       0.0270
     71  CG        18.4360   -6.9770   -0.0750 C.3    97  LEU97       0.0019
     72  CD1       18.8810   -6.3770    1.0930 C.3    97  LEU97       0.0001
     73  CD2       18.2440   -8.4030    0.2350 C.3    97  LEU97       0.0001
     74  N         22.7590    0.6010   -1.9510 N.3   102  ASP102     -0.1225
     75  CA        23.7930    0.1060   -1.0820 C.3   102  ASP102      0.1805
     76  C         23.2510   -0.9350   -0.0700 C.2   102  ASP102      0.2598
     77  O         23.9640   -1.3130    0.8410 O.2   102  ASP102     -0.2718
     78  CB        24.4490    1.3330   -0.3350 C.3   102  ASP102      0.1424
     79  CG        23.4620    2.0810    0.6160 C.2   102  ASP102      0.3668
     80  OD1       22.2440    1.8240    0.6700 O.co2 102  ASP102     -0.2456
     81  OD2       23.9450    2.9570    1.4090 O.co2 102  ASP102     -0.2456
     82  N         22.0110   -1.3960   -0.2540 N.am  103  ARG103     -0.1966
     83  CA        21.4100   -2.4000    0.6360 C.3   103  ARG103      0.1729
     84  C         21.2610   -1.8900    2.0950 C.2   103  ARG103      0.2616
     85  O         21.1620   -2.6950    3.0110 O.2   103  ARG103     -0.2715
     86  CB        22.0950   -3.7650    0.6200 C.3   103  ARG103      0.0348
     87  CG        22.0920   -4.4100   -0.7840 C.3   103  ARG103      0.0492
     88  CD        23.1720   -5.5640   -0.8100 C.3   103  ARG103      0.2205
     89  NE        22.8630   -6.6540    0.1410 N.pl3 103  ARG103     -0.0865
     90  CZ        22.3810   -7.8530   -0.1750 C.cat 103  ARG103      0.5346
     91  NH1       22.1040   -8.2030   -1.4210 N.pl3 103  ARG103      0.1354
     92  NH2       22.0800   -8.6530    0.8080 N.pl3 103  ARG103      0.1354
     93  N         21.1920   -0.5400    2.2320 N.am  104  CYS104     -0.1954
     94  CA        21.0360    0.0210    3.5930 C.3   104  CYS104      0.1843
     95  C         19.8550    0.9900    3.5910 C.2   104  CYS104      0.2625
     96  O         19.4520    1.5850    2.5820 O.2   104  CYS104     -0.2714
     97  CB        22.2520    0.8320    3.9890 C.3   104  CYS104      0.0997
     98  SG        23.8410   -0.0620    3.9030 S.3   104  CYS104     -0.0797
     99  N         19.3560    1.2380    4.7830 N.am  105  LEU105     -0.1963
    100  CA        18.3350    2.2590    5.0180 C.3   105  LEU105      0.1728
    101  C         18.5520    2.7920    6.4170 C.2   105  LEU105      0.2617
    102  O         19.3410    2.2410    7.1950 O.2   105  LEU105     -0.2715
    103  CB        16.8770    1.7450    4.7850 C.3   105  LEU105      0.0311
    104  CG        16.4320    0.5060    5.5580 C.3   105  LEU105      0.0022
    105  CD1       16.2290    0.7360    7.0290 C.3   105  LEU105      0.0001
    106  CD2       15.1560   -0.0430    4.8940 C.3   105  LEU105      0.0001
    107  N         17.8880    3.8960    6.7590 N.am  106  SER106     -0.1936
    108  CA        17.8610    4.4000    8.1080 C.3   106  SER106      0.2055
    109  C         16.4830    4.1240    8.6960 C.2   106  SER106      0.2642
    110  O         15.4760    4.2420    7.9900 O.2   106  SER106     -0.2714
    111  CB        18.1280    5.8930    8.1420 C.3   106  SER106      0.2130
    112  OG        19.4090    6.2230    7.6150 O.3   106  SER106     -0.2179
    113  N         16.4400    3.6910    9.9600 N.am  107  LEU107     -0.1977
    114  CA        15.2050    3.3690   10.6630 C.3   107  LEU107      0.1596
    115  C         15.0630    4.3480   11.8060 C.2   107  LEU107      0.2287
    116  O         15.9360    4.3570   12.7070 O.2   107  LEU107     -0.2864
    117  CB        15.2710    1.9500   11.1860 C.3   107  LEU107      0.0297
    118  CG        14.0000    1.4290   11.8420 C.3   107  LEU107      0.0022
    119  CD1       13.3610    1.9590   13.0240 C.3   107  LEU107      0.0001
    120  CD2       12.7350    1.5260   11.0040 C.3   107  LEU107      0.0001
    121  N         12.5230    5.5650   14.9490 N.3   109  GLN109     -0.1245
    122  CA        11.3790    5.1060   15.7470 C.3   109  GLN109      0.1566
    123  C         11.2790    5.9440   17.0320 C.2   109  GLN109      0.2260
    124  O         12.2980    6.5180   17.4960 O.2   109  GLN109     -0.2867
    125  CB        11.4970    3.6340   16.0880 C.3   109  GLN109      0.0367
    126  CG        12.5750    3.3040   17.1200 C.3   109  GLN109      0.0905
    127  CD        12.8480    1.8300   17.0890 C.2   109  GLN109      0.2608
    128  OE1       13.8880    1.4260   16.4980 O.2   109  GLN109     -0.2717
    129  NE2       12.0040    1.0150   17.6610 N.am  109  GLN109     -0.0878
@<TRIPOS>BOND
     1    69    68    2
     2    68    67    1
     3    74    75    1
     4    91    90    1
     5    75    78    1
     6    75    76    1
     7    67    70    1
     8    67    66    1
     9    88    87    1
    10    88    89    1
    11    87    86    1
    12    70    71    1
    13    13    14    1
    14    13    12    1
    15    14    15    2
    16    78    79    1
    17    82    76   am
    18    82    83    1
    19    90    89    2
    20    90    92    1
    21    71    73    1
    22    71    72    1
    23    76    77    2
    24    12    11    1
    25    16    15    1
    26    15    17    1
    27    79    80   ar
    28    79    81   ar
    29    86    83    1
    30    83    84    1
    31     1     2    1
    32    11     8    1
    33     7     8    1
    34     7     3   am
    35    84    93   am
    36    84    85    2
    37    93    94    1
    38    58    57    2
    39    64    63    1
    40     8     9    1
    41     2     3    1
    42     2     5    1
    43    96    95    2
    44     3     4    2
    45    65    63    1
    46    63    62    2
    47    57    56    1
    48    95    94    1
    49    95    99   am
    50    94    97    1
    51     5     6    1
    52     9    10    2
    53    98    97    1
    54    60    61    1
    55    60    59    1
    56    62    61    1
    57    50    49    2
    58    56    59    1
    59    56    55    1
    60    99   100    1
    61   103   100    1
    62   103   104    1
    63   106   104    1
    64   100   101    1
    65    49    55   am
    66    49    48    1
    67   104   105    1
    68   101   107   am
    69   101   102    2
    70    48    47    1
    71    48    51    1
    72   107   108    1
    73   112   111    1
    74    51    52    1
    75   110   109    2
    76    41    40    2
    77   108   111    1
    78   108   109    1
    79    54    52    1
    80   109   113   am
    81    52    53    1
    82    40    39    1
    83    29    28    2
    84   113   114    1
    85    39    38    1
    86    39    42    1
    87    28    38   am
    88    28    27    1
    89   114   117    1
    90   114   115    1
    91    45    44   ar
    92   120   118    1
    93   117   118    1
    94    42    43    1
    95    27    30    1
    96    27    26    1
    97    30    31    1
    98    33    31   ar
    99    33    35   ar
   100    44    43    1
   101    44    46   ar
   102   115   116    2
   103   118   119    1
   104    31    32   ar
   105    35    36   ar
   106    32    34   ar
   107    36    34   ar
   108    36    37    1
   109   121   122    1
   110   122   125    1
   111   122   123    1
   112    25    23   ar
   113   125   126    1
   114   128   127    2
   115    23    24   ar
   116    23    22    1
   117   123   124    2
   118   127   126    1
   119   127   129   am
   120    22    19    1
   121    19    18    1
   122    19    20    1
   123    21    20    2
