@<TRIPOS>MOLECULE
tmp/4wx6C01.pdb
 193 188 0 0 0
SMALL
GASTEIGER

@<TRIPOS>ATOM
      1  N         31.2170   29.6220  -24.4470 N.3     1  SER1       -0.1202
      2  CA        31.5490   30.7890  -25.3020 C.3     1  SER1        0.2020
      3  C         32.0170   31.8410  -24.3310 C.2     1  SER1        0.2619
      4  O         31.2280   32.6370  -23.8000 O.2     1  SER1       -0.2717
      5  CB        30.3370   31.2750  -26.1110 C.3     1  SER1        0.2103
      6  OG        30.6440   32.4300  -26.9100 O.3     1  SER1       -0.2182
      7  N         33.3170   31.7970  -24.0770 N.am    2  GLY2       -0.1942
      8  CA        33.9370   32.6310  -23.0770 C.3     2  GLY2        0.2014
      9  C         34.3050   31.8800  -21.8190 C.2     2  GLY2        0.2640
     10  O         34.5620   30.6530  -21.8180 O.2     2  GLY2       -0.2714
     11  N         34.3170   32.6580  -20.7490 N.am    3  SER3       -0.1935
     12  CA        34.7660   32.2580  -19.4530 C.3     3  SER3        0.2055
     13  C         33.5720   32.4270  -18.5470 C.2     3  SER3        0.2644
     14  O         32.8560   33.4500  -18.6210 O.2     3  SER3       -0.2714
     15  CB        35.8880   33.2020  -18.9800 C.3     3  SER3        0.2130
     16  OG        37.0830   33.1020  -19.7620 O.3     3  SER3       -0.2179
     17  N         33.3290   31.4220  -17.7090 N.am    4  SER4       -0.1935
     18  CA        32.4120   31.5860  -16.5770 C.3     4  SER4        0.2055
     19  C         33.1840   32.1690  -15.3780 C.2     4  SER4        0.2643
     20  O         34.4290   32.1640  -15.3740 O.2     4  SER4       -0.2714
     21  CB        31.8020   30.2390  -16.1940 C.3     4  SER4        0.2130
     22  OG        32.7870   29.4420  -15.5440 O.3     4  SER4       -0.2179
     23  N         32.4430   32.6070  -14.3540 N.am    5  GLU5       -0.1963
     24  CA        33.0160   33.2110  -13.1230 C.3     5  GLU5        0.1733
     25  C         34.1000   32.3980  -12.3610 C.2     5  GLU5        0.2616
     26  O         35.1040   32.9640  -11.8600 O.2     5  GLU5       -0.2715
     27  CB        31.8970   33.7130  -12.1720 C.3     5  GLU5        0.0429
     28  CG        30.9600   32.6660  -11.5660 C.3     5  GLU5        0.1163
     29  CD        30.1980   33.1670  -10.3310 C.2     5  GLU5        0.3649
     30  OE1       28.9350   33.1300  -10.3380 O.co2   5  GLU5       -0.2457
     31  OE2       30.8530   33.6060   -9.3440 O.co2   5  GLU5       -0.2457
     32  N         33.9020   31.0830  -12.2830 N.am    6  GLN6       -0.1977
     33  CA        34.8090   30.1830  -11.5290 C.3     6  GLN6        0.1601
     34  C         36.1590   30.1300  -12.2080 C.2     6  GLN6        0.2287
     35  O         37.2130   30.2630  -11.5570 O.2     6  GLN6       -0.2864
     36  CB        34.2630   28.7340  -11.4210 C.3     6  GLN6        0.0394
     37  CG        32.8550   28.5950  -10.8690 C.3     6  GLN6        0.0908
     38  CD        31.7590   28.9000  -11.9050 C.2     6  GLN6        0.2608
     39  OE1       31.7840   28.3830  -13.0360 O.2     6  GLN6       -0.2717
     40  NE2       30.7910   29.7460  -11.5200 N.am    6  GLN6       -0.0878
     41  N         33.5570   38.0400   -8.3570 N.3    24  THR24      -0.1203
     42  CA        33.2410   38.3140   -9.7320 C.3    24  THR24       0.1994
     43  C         31.7810   38.6140   -9.6280 C.2    24  THR24       0.2618
     44  O         31.0670   37.9490   -8.8860 O.2    24  THR24      -0.2717
     45  CB        33.4410   37.0980  -10.6550 C.3    24  THR24       0.1784
     46  OG1       32.5300   36.0760  -10.2480 O.3    24  THR24      -0.2211
     47  CG2       34.9190   36.5630  -10.6470 C.3    24  THR24       0.0376
     48  N         31.3500   39.6670  -10.3120 N.am   25  HIS25      -0.1961
     49  CA        29.9850   40.1370  -10.1460 C.3    25  HIS25       0.1787
     50  C         29.3360   40.3990  -11.4490 C.2    25  HIS25       0.2620
     51  O         30.0160   40.4830  -12.4420 O.2    25  HIS25      -0.2715
     52  CB        29.9370   41.3930   -9.3050 C.3    25  HIS25       0.0785
     53  CG        29.9960   41.1050   -7.8490 C.ar   25  HIS25       0.0821
     54  ND1       31.1540   40.6690   -7.2430 N.ar   25  HIS25      -0.2267
     55  CD2       29.0440   41.1440   -6.8840 C.ar   25  HIS25       0.1154
     56  CE1       30.9190   40.4690   -5.9570 C.ar   25  HIS25       0.1986
     57  NE2       29.6490   40.7580   -5.7130 N.ar   25  HIS25      -0.2212
     58  N         28.0180   40.5080  -11.4250 N.am   26  ASP26      -0.1971
     59  CA        27.3180   41.0080  -12.5530 C.3    26  ASP26       0.1709
     60  C         27.3260   42.5510  -12.4330 C.2    26  ASP26       0.2293
     61  O         27.9510   43.0910  -11.5200 O.2    26  ASP26      -0.2864
     62  CB        25.9250   40.3930  -12.6190 C.3    26  ASP26       0.1436
     63  CG        25.0550   40.7290  -11.4170 C.2    26  ASP26       0.3671
     64  OD1       25.4380   41.5770  -10.5530 O.co2  26  ASP26      -0.2456
     65  OD2       23.9530   40.1470  -11.3800 O.co2  26  ASP26      -0.2456
     66  N         30.6250   41.6910  -14.6170 N.3    44  ASN44      -0.1240
     67  CA        29.9610   41.4800  -15.9050 C.3    44  ASN44       0.1653
     68  C         29.0960   42.6900  -16.2460 C.2    44  ASN44       0.2266
     69  O         28.4150   43.2120  -15.3690 O.2    44  ASN44      -0.2867
     70  CB        29.0770   40.2110  -15.8630 C.3    44  ASN44       0.1155
     71  CG        28.8750   39.5610  -17.2490 C.2    44  ASN44       0.2627
     72  OD1       29.6620   38.7010  -17.6670 O.2    44  ASN44      -0.2716
     73  ND2       27.7760   39.9150  -17.9190 N.am   44  ASN44      -0.0877
     74  N         26.5120   42.6310  -17.5790 N.3    46  ALA46      -0.1231
     75  CA        25.1340   42.2470  -17.4940 C.3    46  ALA46       0.1694
     76  C         24.8720   41.7330  -16.1140 C.2    46  ALA46       0.2593
     77  O         25.7940   41.5320  -15.3490 O.2    46  ALA46      -0.2718
     78  CB        24.8330   41.1970  -18.5460 C.3    46  ALA46       0.0304
     79  N         23.6110   41.5420  -15.7900 N.am   47  GLY47      -0.1942
     80  CA        23.1920   41.0390  -14.4930 C.3    47  GLY47       0.2014
     81  C         22.7180   39.6260  -14.6950 C.2    47  GLY47       0.2638
     82  O         22.5510   39.1950  -15.8290 O.2    47  GLY47      -0.2714
     83  N         22.5040   38.9010  -13.6020 N.am   48  ARG48      -0.1977
     84  CA        22.3590   37.4420  -13.6820 C.3    48  ARG48       0.1597
     85  C         21.2150   37.0000  -14.6080 C.2    48  ARG48       0.2287
     86  O         21.4540   36.3520  -15.6170 O.2    48  ARG48      -0.2864
     87  CB        22.4030   36.7680  -12.2760 C.3    48  ARG48       0.0334
     88  CG        23.7900   36.1150  -12.0080 C.3    48  ARG48       0.0492
     89  CD        24.0460   35.6150  -10.5880 C.3    48  ARG48       0.2205
     90  NE        25.0850   36.3950   -9.8960 N.pl3  48  ARG48      -0.0865
     91  CZ        26.3660   36.0410   -9.7770 C.cat  48  ARG48       0.5346
     92  NH1       27.1930   36.8350   -9.1270 N.pl3  48  ARG48       0.1354
     93  NH2       26.8310   34.9130  -10.3060 N.pl3  48  ARG48       0.1354
     94  N         22.5850   36.0370  -17.7540 N.3    51  GLY51      -0.1210
     95  CA        23.6680   35.0400  -17.8490 C.3    51  GLY51       0.1956
     96  C         25.0020   35.6270  -18.2330 C.2    51  GLY51       0.2612
     97  O         26.0190   34.9010  -18.3190 O.2    51  GLY51      -0.2717
     98  N         24.9950   36.9380  -18.4650 N.am   52  GLY52      -0.1942
     99  CA        26.2140   37.6620  -18.7000 C.3    52  GLY52       0.2014
    100  C         26.5140   37.8460  -20.1680 C.2    52  GLY52       0.2639
    101  O         25.9660   37.1230  -21.0320 O.2    52  GLY52      -0.2714
    102  N         27.3950   38.8130  -20.4460 N.am   53  VAL53      -0.1963
    103  CA        27.8200   39.1050  -21.8140 C.3    53  VAL53       0.1727
    104  C         29.3310   39.3430  -21.8750 C.2    53  VAL53       0.2616
    105  O         30.0030   38.7950  -22.7360 O.2    53  VAL53      -0.2715
    106  CB        27.0600   40.3130  -22.4330 C.3    53  VAL53       0.0290
    107  CG1       27.2080   40.3120  -23.9480 C.3    53  VAL53       0.0023
    108  CG2       25.5660   40.2900  -22.0980 C.3    53  VAL53       0.0023
    109  N         29.8670   40.1280  -20.9510 N.am   54  HIS54      -0.1959
    110  CA        31.2130   40.7000  -21.1280 C.3    54  HIS54       0.1787
    111  C         31.7790   41.0950  -19.8090 C.2    54  HIS54       0.2620
    112  O         31.0360   41.4310  -18.9470 O.2    54  HIS54      -0.2715
    113  CB        31.1290   41.9600  -22.0170 C.3    54  HIS54       0.0785
    114  CG        32.4420   42.6580  -22.1970 C.ar   54  HIS54       0.0821
    115  ND1       33.5790   42.0040  -22.6010 N.ar   54  HIS54      -0.2267
    116  CD2       32.7970   43.9520  -22.0200 C.ar   54  HIS54       0.1154
    117  CE1       34.5750   42.8710  -22.6900 C.ar   54  HIS54       0.1986
    118  NE2       34.1180   44.0630  -22.3650 N.ar   54  HIS54      -0.2212
    119  N         33.1040   41.0570  -19.6950 N.am   55  TRP55      -0.1974
    120  CA        33.8490   41.1290  -18.4320 C.3    55  TRP55       0.1640
    121  C         34.7890   42.3220  -18.4310 C.2    55  TRP55       0.2290
    122  O         35.6160   42.4500  -19.3540 O.2    55  TRP55      -0.2864
    123  CB        34.7540   39.8880  -18.2600 C.3    55  TRP55       0.0576
    124  CG        34.0420   38.6160  -17.9490 C.ar   55  TRP55       0.0006
    125  CD1       33.9870   37.4820  -18.7310 C.ar   55  TRP55       0.0946
    126  CD2       33.2980   38.3180  -16.7660 C.ar   55  TRP55       0.0152
    127  NE1       33.2600   36.5020  -18.0940 N.ar   55  TRP55      -0.2442
    128  CE2       32.7940   37.0010  -16.9110 C.ar   55  TRP55       0.0810
    129  CE3       32.9800   39.0470  -15.6030 C.ar   55  TRP55       0.0012
    130  CZ2       32.0420   36.3750  -15.9100 C.ar   55  TRP55       0.0191
    131  CZ3       32.2070   38.4290  -14.6190 C.ar   55  TRP55       0.0001
    132  CH2       31.7430   37.1090  -14.7870 C.ar   55  TRP55       0.0015
    133  N         39.0300   46.0500  -24.4180 N.3    73  PHE73      -0.1241
    134  CA        38.8550   46.7550  -25.6860 C.3    73  PHE73       0.1605
    135  C         39.0690   48.2880  -25.5440 C.2    73  PHE73       0.2264
    136  O         38.9790   49.0460  -26.5340 O.2    73  PHE73      -0.2867
    137  CB        37.3950   46.6100  -26.1220 C.3    73  PHE73       0.0534
    138  CG        36.9560   45.2010  -26.5270 C.ar   73  PHE73      -0.0203
    139  CD1       37.7440   44.3910  -27.3370 C.ar   73  PHE73      -0.0042
    140  CD2       35.6860   44.7420  -26.1610 C.ar   73  PHE73      -0.0042
    141  CE1       37.2890   43.1410  -27.7270 C.ar   73  PHE73      -0.0003
    142  CE2       35.2360   43.4940  -26.5410 C.ar   73  PHE73      -0.0003
    143  CZ        36.0290   42.6970  -27.3340 C.ar   73  PHE73      -0.0000
    144  N         26.8730   47.9180  -24.5170 N.3    84  TYR84      -0.1241
    145  CA        26.6950   46.9320  -23.4440 C.3    84  TYR84       0.1605
    146  C         25.6480   47.1970  -22.3410 C.2    84  TYR84       0.2264
    147  O         25.4560   46.3270  -21.4610 O.2    84  TYR84      -0.2867
    148  CB        28.0620   46.6290  -22.7940 C.3    84  TYR84       0.0534
    149  CG        28.9750   45.8150  -23.6780 C.ar   84  TYR84      -0.0201
    150  CD1       28.9550   44.4150  -23.6480 C.ar   84  TYR84      -0.0009
    151  CD2       29.8610   46.4310  -24.5270 C.ar   84  TYR84      -0.0009
    152  CE1       29.7910   43.6630  -24.4660 C.ar   84  TYR84       0.0417
    153  CE2       30.6960   45.6970  -25.3560 C.ar   84  TYR84       0.0417
    154  CZ        30.6600   44.3130  -25.3220 C.ar   84  TYR84       0.1957
    155  OH        31.5060   43.5990  -26.1550 O.3    84  TYR84      -0.2866
    156  N         41.9490   43.5710  -27.6160 N.3   115  GLN115     -0.1245
    157  CA        41.1550   42.3950  -28.0420 C.3   115  GLN115      0.1566
    158  C         40.4250   42.5010  -29.4040 C.2   115  GLN115      0.2260
    159  O         39.8790   43.5520  -29.7500 O.2   115  GLN115     -0.2867
    160  CB        40.1820   41.9780  -26.9310 C.3   115  GLN115      0.0367
    161  CG        39.5550   40.5920  -27.1420 C.3   115  GLN115      0.0905
    162  CD        38.3790   40.4140  -26.2300 C.2   115  GLN115      0.2608
    163  OE1       38.4580   40.7650  -25.0470 O.2   115  GLN115     -0.2717
    164  NE2       37.2720   39.9010  -26.7610 N.am  115  GLN115     -0.0878
    165  N         37.0310   38.2830  -30.8850 N.3   119  SER119     -0.1202
    166  CA        37.5380   37.5070  -29.7730 C.3   119  SER119      0.2020
    167  C         36.5450   37.4200  -28.6250 C.2   119  SER119      0.2618
    168  O         35.7110   38.3490  -28.4100 O.2   119  SER119     -0.2717
    169  CB        38.8720   38.0540  -29.2930 C.3   119  SER119      0.2103
    170  OG        39.3550   37.2930  -28.1760 O.3   119  SER119     -0.2182
    171  N         36.6300   36.2930  -27.8940 N.am  120  ALA120     -0.1979
    172  CA        35.7390   36.0620  -26.7570 C.3   120  ALA120      0.1597
    173  C         36.5220   35.8480  -25.4900 C.2   120  ALA120      0.2287
    174  O         35.9710   35.3400  -24.5280 O.2   120  ALA120     -0.2864
    175  CB        34.7980   34.8780  -27.0280 C.3   120  ALA120      0.0319
    176  N         37.6390   38.0840  -23.3120 N.3   122  CYS122     -0.1221
    177  CA        37.5280   39.3040  -22.5000 C.3   122  CYS122      0.1808
    178  C         37.8730   39.1280  -21.0060 C.2   122  CYS122      0.2601
    179  O         38.6740   39.8920  -20.4460 O.2   122  CYS122     -0.2717
    180  CB        36.1100   39.8840  -22.6330 C.3   122  CYS122      0.0970
    181  SG        34.7470   38.8530  -22.0070 S.3   122  CYS122     -0.0800
    182  N         37.2470   38.1300  -20.3810 N.am  123  GLY123     -0.1957
    183  CA        37.5270   37.7290  -18.9900 C.3   123  GLY123      0.1869
    184  C         38.9580   37.2760  -18.7500 C.2   123  GLY123      0.2309
    185  O         39.5720   37.6260  -17.7520 O.2   123  GLY123     -0.2863
    186  N         33.6410   34.6940  -31.9760 N.3   201  MET201     -0.1245
    187  CA        32.2910   35.2150  -32.1870 C.3   201  MET201      0.1570
    188  C         31.6620   34.8650  -33.5580 C.2   201  MET201      0.2261
    189  O         30.4240   34.8690  -33.7020 O.2   201  MET201     -0.2867
    190  CB        32.2380   36.7170  -31.8940 C.3   201  MET201      0.0387
    191  CG        32.5950   37.0910  -30.4420 C.3   201  MET201      0.0595
    192  SD        31.9160   36.1270  -29.0500 S.3   201  MET201     -0.1393
    193  CE        30.1350   36.2660  -29.2780 C.3   201  MET201      0.0692
@<TRIPOS>BOND
     1   189   188    2
     2   188   187    1
     3   187   186    1
     4   187   190    1
     5   190   191    1
     6   165   166    1
     7   191   192    1
     8   166   169    1
     9   166   167    1
    10   159   158    2
    11   158   157    1
    12   169   170    1
    13   193   192    1
    14   167   168    2
    15   167   171   am
    16   157   156    1
    17   157   160    1
    18   171   172    1
    19   141   139   ar
    20   141   143   ar
    21   139   138   ar
    22   143   142   ar
    23   161   160    1
    24   161   162    1
    25   175   172    1
    26     6     5    1
    27   164   162   am
    28   172   173    1
    29   142   140   ar
    30   136   135    2
    31   138   140   ar
    32   138   137    1
    33   162   163    2
    34   155   154    1
    35   137   134    1
    36     5     2    1
    37   134   135    1
    38   134   133    1
    39   173   174    2
    40   153   154   ar
    41   153   151   ar
    42   154   152   ar
    43     2     1    1
    44     2     3    1
    45   151   149   ar
    46   144   145    1
    47   152   150   ar
    48     3     7   am
    49     3     4    2
    50     7     8    1
    51   107   106    1
    52   149   150   ar
    53   149   148    1
    54   145   148    1
    55   145   146    1
    56   176   177    1
    57     8     9    1
    58   105   104    2
    59   117   115   ar
    60   117   118   ar
    61   180   177    1
    62   180   181    1
    63   115   114   ar
    64   177   178    1
    65   106   108    1
    66   106   103    1
    67   118   116   ar
    68   146   147    2
    69   114   116   ar
    70   114   113    1
    71   113   110    1
    72   104   103    1
    73   104   109   am
    74     9    10    2
    75     9    11   am
    76   103   102    1
    77   110   109    1
    78   110   111    1
    79   101   100    2
    80   178   179    2
    81   178   182   am
    82    11    12    1
    83   102   100   am
    84   182   183    1
    85   100    99    1
    86   111   119   am
    87   111   112    2
    88    16    15    1
    89   119   120    1
    90    12    15    1
    91    12    13    1
    92   122   121    2
    93   183   184    1
    94   184   185    2
    95   125   127   ar
    96   125   124   ar
    97    99    98    1
    98    14    13    2
    99    13    17   am
   100    78    75    1
   101    98    96   am
   102   120   121    1
   103   120   123    1
   104    97    96    2
   105   123   124    1
   106    96    95    1
   107   127   128   ar
   108   124   126   ar
   109    73    71   am
   110    95    94    1
   111    17    18    1
   112    72    71    2
   113    74    75    1
   114    75    76    1
   115    71    70    1
   116   128   126   ar
   117   128   130   ar
   118   126   129   ar
   119    18    21    1
   120    18    19    1
   121    68    67    1
   122    68    69    2
   123    21    22    1
   124    76    79   am
   125    76    77    2
   126   130   132   ar
   127    67    70    1
   128    67    66    1
   129    82    81    2
   130    79    80    1
   131    86    85    2
   132   129   131   ar
   133    19    20    2
   134    19    23   am
   135   132   131   ar
   136    81    80    1
   137    81    83   am
   138    85    84    1
   139    23    24    1
   140    84    83    1
   141    84    87    1
   142    24    25    1
   143    24    27    1
   144    39    38    2
   145    62    59    1
   146    62    63    1
   147    59    60    1
   148    59    58    1
   149    51    50    2
   150    60    61    2
   151    25    32   am
   152    25    26    2
   153    32    33    1
   154    87    88    1
   155    34    35    2
   156    34    33    1
   157    27    28    1
   158    88    89    1
   159    38    40   am
   160    38    37    1
   161    28    29    1
   162    33    36    1
   163    50    58   am
   164    50    49    1
   165    36    37    1
   166    63    65   ar
   167    63    64   ar
   168    45    47    1
   169    45    46    1
   170    45    42    1
   171    89    90    1
   172    30    29   ar
   173    29    31   ar
   174    48    49    1
   175    48    43   am
   176    93    91    1
   177    49    52    1
   178    90    91    2
   179    91    92    1
   180    42    43    1
   181    42    41    1
   182    43    44    2
   183    52    53    1
   184    53    54   ar
   185    53    55   ar
   186    54    56   ar
   187    55    57   ar
   188    56    57   ar
