@<TRIPOS>MOLECULE
tmp/4wx7C01.pdb
 177 172 0 0 0
SMALL
GASTEIGER

@<TRIPOS>ATOM
      1  N         19.1760   47.3340   24.0240 N.3     1  SER1       -0.1202
      2  CA        20.5010   47.0260   24.6400 C.3     1  SER1        0.2020
      3  C         21.6300   46.8770   23.6250 C.2     1  SER1        0.2619
      4  O         21.6420   45.9450   22.8110 O.2     1  SER1       -0.2717
      5  CB        20.4300   45.7710   25.5000 C.3     1  SER1        0.2103
      6  OG        21.7310   45.3960   25.9240 O.3     1  SER1       -0.2182
      7  N         22.5940   47.7880   23.7160 N.am    2  GLY2       -0.1942
      8  CA        23.7650   47.7680   22.8440 C.3     2  GLY2        0.2014
      9  C         23.5360   48.4680   21.5190 C.2     2  GLY2        0.2640
     10  O         22.8780   49.5140   21.4750 O.2     2  GLY2       -0.2714
     11  N         24.0900   47.8950   20.4460 N.am    3  SER3       -0.1935
     12  CA        23.8890   48.4260   19.0940 C.3     3  SER3        0.2055
     13  C         23.6280   47.4010   17.9770 C.2     3  SER3        0.2644
     14  O         24.3060   46.3930   17.8520 O.2     3  SER3       -0.2714
     15  CB        25.0070   49.4100   18.6880 C.3     3  SER3        0.2130
     16  OG        26.1540   49.3870   19.5230 O.3     3  SER3       -0.2179
     17  N         22.6580   47.7080   17.1450 N.am    4  SER4       -0.1935
     18  CA        22.2550   46.8640   16.0390 C.3     4  SER4        0.2055
     19  C         22.9600   47.2440   14.7320 C.2     4  SER4        0.2643
     20  O         23.2770   48.4070   14.5450 O.2     4  SER4       -0.2714
     21  CB        20.7540   47.0550   15.8350 C.3     4  SER4        0.2130
     22  OG        20.4670   48.3880   15.4330 O.3     4  SER4       -0.2179
     23  N         23.1160   46.2780   13.8150 N.am    5  GLU5       -0.1963
     24  CA        23.8320   46.4530   12.5180 C.3     5  GLU5        0.1733
     25  C         23.4840   47.7290   11.7190 C.2     5  GLU5        0.2616
     26  O         24.3330   48.3220   11.0440 O.2     5  GLU5       -0.2715
     27  CB        23.7230   45.1780   11.6340 C.3     5  GLU5        0.0429
     28  CG        22.7580   45.2300   10.4540 C.3     5  GLU5        0.1163
     29  CD        22.6760   43.9090    9.6640 C.2     5  GLU5        0.3649
     30  OE1       21.9070   43.0000   10.1110 O.co2   5  GLU5       -0.2457
     31  OE2       23.3440   43.7750    8.5830 O.co2   5  GLU5       -0.2457
     32  N         22.2340   48.1610   11.7970 N.am    6  GLN6       -0.1977
     33  CA        21.7940   49.3310   11.0310 C.3     6  GLN6        0.1601
     34  C         22.4360   50.6360   11.5810 C.2     6  GLN6        0.2287
     35  O         22.7650   51.5660   10.8600 O.2     6  GLN6       -0.2864
     36  CB        20.2580   49.3600   10.9730 C.3     6  GLN6        0.0394
     37  CG        19.6230   47.9810   10.6660 C.3     6  GLN6        0.0908
     38  CD        19.4160   47.1150   11.9240 C.2     6  GLN6        0.2608
     39  OE1       20.0780   46.0750   12.1300 O.2     6  GLN6       -0.2717
     40  NE2       18.5300   47.5730   12.7930 N.am    6  GLN6       -0.0878
     41  N         28.6690   45.1550    8.2100 N.3    24  THR24      -0.1203
     42  CA        28.7470   44.5410    9.5190 C.3    24  THR24       0.1994
     43  C         28.2090   43.1080    9.4360 C.2    24  THR24       0.2618
     44  O         27.3480   42.7650    8.6040 O.2    24  THR24      -0.2717
     45  CB        28.0470   45.3640   10.6010 C.3    24  THR24       0.1784
     46  OG1       26.6430   45.2470   10.4340 O.3    24  THR24      -0.2211
     47  CG2       28.4320   46.8250   10.5140 C.3    24  THR24       0.0376
     48  N         28.7510   42.2680   10.2880 N.am   25  HIS25      -0.1961
     49  CA        28.6000   40.8610   10.1020 C.3    25  HIS25       0.1787
     50  C         28.4350   40.1230   11.4310 C.2    25  HIS25       0.2620
     51  O         28.9810   40.5300   12.4660 O.2    25  HIS25      -0.2715
     52  CB        29.8470   40.3340    9.4040 C.3    25  HIS25       0.0785
     53  CG        29.8110   40.4600    7.9270 C.ar   25  HIS25       0.0821
     54  ND1       29.8300   41.6770    7.2880 N.ar   25  HIS25      -0.2267
     55  CD2       29.7780   39.5200    6.9530 C.ar   25  HIS25       0.1154
     56  CE1       29.7900   41.4860    5.9800 C.ar   25  HIS25       0.1986
     57  NE2       29.7620   40.1860    5.7510 N.ar   25  HIS25      -0.2212
     58  N         27.6660   39.0460   11.3700 N.am   26  ASP26      -0.1971
     59  CA        27.7580   37.9720   12.3340 C.3    26  ASP26       0.1709
     60  C         29.1390   37.2740   12.2320 C.2    26  ASP26       0.2293
     61  O         29.9420   37.6510   11.3550 O.2    26  ASP26      -0.2864
     62  CB        26.5660   37.0080   12.1480 C.3    26  ASP26       0.1436
     63  CG        26.8270   35.8850   11.1530 C.2    26  ASP26       0.3671
     64  OD1       27.8160   35.9310   10.4160 O.co2  26  ASP26      -0.2456
     65  OD2       26.0410   34.9250   11.1200 O.co2  26  ASP26      -0.2456
     66  N         30.3060   40.3020   14.4190 N.3    44  ASN44      -0.1240
     67  CA        29.7860   39.8330   15.6660 C.3    44  ASN44       0.1653
     68  C         30.4580   38.4990   16.0890 C.2    44  ASN44       0.2266
     69  O         30.9910   37.7910   15.2420 O.2    44  ASN44      -0.2867
     70  CB        28.2940   39.6490   15.5610 C.3    44  ASN44       0.1155
     71  CG        27.6330   39.7260   16.8920 C.2    44  ASN44       0.2627
     72  OD1       27.6510   38.7640   17.6600 O.2    44  ASN44      -0.2716
     73  ND2       26.9940   40.8330   17.1560 N.am   44  ASN44      -0.0877
     74  N         28.7930   35.9830   17.7870 N.3    46  ALA46      -0.1231
     75  CA        27.8100   34.9280   17.6320 C.3    46  ALA46       0.1694
     76  C         27.2610   34.9150   16.1880 C.2    46  ALA46       0.2593
     77  O         27.7050   35.7080   15.3410 O.2    46  ALA46      -0.2718
     78  CB        26.6850   35.1160   18.6550 C.3    46  ALA46       0.0304
     79  N         26.3350   33.9980   15.8930 N.am   47  GLY47      -0.1942
     80  CA        25.5880   34.0270   14.6200 C.3    47  GLY47       0.2014
     81  C         24.4120   35.0030   14.6820 C.2    47  GLY47       0.2638
     82  O         23.9760   35.3770   15.7870 O.2    47  GLY47      -0.2714
     83  N         23.8960   35.4260   13.5180 N.am   48  ARG48      -0.1977
     84  CA        22.6590   36.2460   13.4630 C.3    48  ARG48       0.1597
     85  C         21.5900   35.4850   14.2540 C.2    48  ARG48       0.2287
     86  O         20.7400   36.0660   14.9020 O.2    48  ARG48      -0.2864
     87  CB        22.2260   36.4300   11.9880 C.3    48  ARG48       0.0334
     88  CG        21.0250   37.3740   11.7260 C.3    48  ARG48       0.0492
     89  CD        20.9250   37.8990   10.2730 C.3    48  ARG48       0.2205
     90  NE        22.2630   37.8960    9.6550 N.pl3  48  ARG48      -0.0865
     91  CZ        23.0400   38.9560    9.4280 C.cat  48  ARG48       0.5346
     92  NH1       24.2540   38.7610    8.8980 N.pl3  48  ARG48       0.1354
     93  NH2       22.6110   40.1940    9.7070 N.pl3  48  ARG48       0.1354
     94  N         20.8370   36.3480   17.7860 N.3    51  GLY51      -0.1210
     95  CA        20.4000   37.7190   18.0400 C.3    51  GLY51       0.1956
     96  C         21.5370   38.7060   18.2980 C.2    51  GLY51       0.2612
     97  O         21.3340   39.9210   18.2060 O.2    51  GLY51      -0.2717
     98  N         22.7370   38.1820   18.5970 N.am   52  GLY52      -0.1942
     99  CA        23.9500   39.0170   18.7080 C.3    52  GLY52       0.2014
    100  C         24.4790   39.1010   20.1330 C.2    52  GLY52       0.2639
    101  O         23.7190   39.0760   21.0850 O.2    52  GLY52      -0.2714
    102  N         25.7980   39.1600   20.2510 N.am   53  VAL53      -0.1963
    103  CA        26.5100   39.1050   21.5130 C.3    53  VAL53       0.1727
    104  C         27.5930   40.2270   21.5790 C.2    53  VAL53       0.2616
    105  O         27.3730   41.2460   22.2120 O.2    53  VAL53      -0.2715
    106  CB        27.0600   37.6640   21.7750 C.3    53  VAL53       0.0290
    107  CG1       27.8660   37.5860   23.0700 C.3    53  VAL53       0.0023
    108  CG2       25.9320   36.6540   21.8430 C.3    53  VAL53       0.0023
    109  N         28.7360   40.0550   20.9230 N.am   54  HIS54      -0.1959
    110  CA        29.8170   41.0760   20.9700 C.3    54  HIS54       0.1787
    111  C         30.2530   41.6270   19.5960 C.2    54  HIS54       0.2620
    112  O         30.4490   40.8970   18.6330 O.2    54  HIS54      -0.2715
    113  CB        31.0290   40.5430   21.7460 C.3    54  HIS54       0.0785
    114  CG        31.9580   41.6090   22.2240 C.ar   54  HIS54       0.0821
    115  ND1       31.6200   42.4980   23.2200 N.ar   54  HIS54      -0.2267
    116  CD2       33.2220   41.9200   21.8560 C.ar   54  HIS54       0.1154
    117  CE1       32.6230   43.3350   23.4190 C.ar   54  HIS54       0.1986
    118  NE2       33.6050   43.0120   22.5950 N.ar   54  HIS54      -0.2212
    119  N         30.3790   42.9380   19.5230 N.am   55  TRP55      -0.1974
    120  CA        30.9440   43.6010   18.3680 C.3    55  TRP55       0.1640
    121  C         32.4670   43.6070   18.4350 C.2    55  TRP55       0.2290
    122  O         33.0240   44.0830   19.4350 O.2    55  TRP55      -0.2864
    123  CB        30.3780   45.0150   18.2490 C.3    55  TRP55       0.0576
    124  CG        28.8860   45.0320   17.7930 C.ar   55  TRP55       0.0006
    125  CD1       27.8500   45.7120   18.3760 C.ar   55  TRP55       0.0946
    126  CD2       28.3070   44.3220   16.6610 C.ar   55  TRP55       0.0152
    127  NE1       26.6660   45.4650   17.6890 N.ar   55  TRP55      -0.2442
    128  CE2       26.9300   44.6330   16.6290 C.ar   55  TRP55       0.0810
    129  CE3       28.8260   43.4690   15.6810 C.ar   55  TRP55       0.0012
    130  CZ2       26.0740   44.1350   15.6370 C.ar   55  TRP55       0.0191
    131  CZ3       27.9800   42.9820   14.6990 C.ar   55  TRP55       0.0001
    132  CH2       26.6200   43.3080   14.6960 C.ar   55  TRP55       0.0015
    133  N         37.5160   44.9420   24.4170 N.3    73  PHE73      -0.1241
    134  CA        37.9200   44.3110   25.6540 C.3    73  PHE73       0.1605
    135  C         39.3800   43.8660   25.6390 C.2    73  PHE73       0.2264
    136  O         39.9860   43.6200   26.6750 O.2    73  PHE73      -0.2867
    137  CB        36.9800   43.1350   25.9840 C.3    73  PHE73       0.0534
    138  CG        35.6540   43.5650   26.5580 C.ar   73  PHE73      -0.0203
    139  CD1       34.4680   43.0080   26.1200 C.ar   73  PHE73      -0.0042
    140  CD2       35.5910   44.5350   27.5620 C.ar   73  PHE73      -0.0042
    141  CE1       33.2480   43.3830   26.6760 C.ar   73  PHE73      -0.0003
    142  CE2       34.3700   44.9230   28.1000 C.ar   73  PHE73      -0.0003
    143  CZ        33.1980   44.3390   27.6660 C.ar   73  PHE73      -0.0000
    144  N         37.0230   49.3030   27.2950 N.3   115  GLN115     -0.1245
    145  CA        35.6250   49.1740   27.6040 C.3   115  GLN115      0.1566
    146  C         35.3780   48.6900   29.0540 C.2   115  GLN115      0.2260
    147  O         35.9070   47.6530   29.4940 O.2   115  GLN115     -0.2867
    148  CB        34.9910   48.2350   26.5770 C.3   115  GLN115      0.0367
    149  CG        33.6120   48.6550   26.1270 C.3   115  GLN115      0.0905
    150  CD        32.7710   47.4640   25.7530 C.2   115  GLN115      0.2608
    151  OE1       31.9360   47.0220   26.5410 O.2   115  GLN115     -0.2717
    152  NE2       33.0120   46.9060   24.5670 N.am  115  GLN115     -0.0878
    153  N         29.7190   47.5350   30.2800 N.3   119  SER119     -0.1202
    154  CA        29.3680   48.4090   29.1690 C.3   119  SER119      0.2020
    155  C         28.7220   47.6480   28.0070 C.2   119  SER119      0.2618
    156  O         29.0410   46.4920   27.7870 O.2   119  SER119     -0.2717
    157  CB        30.6340   49.1440   28.6900 C.3   119  SER119      0.2103
    158  OG        30.2950   50.2130   27.8060 O.3   119  SER119     -0.2182
    159  N         27.8280   48.3090   27.2700 N.am  120  ALA120     -0.1979
    160  CA        27.2710   47.7640   26.0440 C.3   120  ALA120      0.1597
    161  C         27.6540   48.6120   24.8310 C.2   120  ALA120      0.2287
    162  O         26.9510   48.6140   23.8430 O.2   120  ALA120     -0.2864
    163  CB        25.7650   47.6280   26.1380 C.3   120  ALA120      0.0319
    164  N         30.2140   48.2470   22.9390 N.3   122  CYS122     -0.1235
    165  CA        31.2550   47.5890   22.1820 C.3   122  CYS122      0.1677
    166  C         31.1680   48.0000   20.7400 C.2   122  CYS122      0.2270
    167  O         32.1710   48.3800   20.1380 O.2   122  CYS122     -0.2867
    168  CB        31.1610   46.0780   22.2940 C.3   122  CYS122      0.0956
    169  SG        29.5660   45.4080   21.7940 S.3   122  CYS122     -0.0801
    170  N         24.7250   46.3600   31.2500 N.3   201  MET201     -0.1245
    171  CA        24.6180   44.9880   31.7530 C.3   201  MET201      0.1570
    172  C         24.0720   44.8830   33.2110 C.2   201  MET201      0.2261
    173  O         23.3470   43.9370   33.5470 O.2   201  MET201     -0.2867
    174  CB        25.9510   44.2510   31.5790 C.3   201  MET201      0.0387
    175  CG        26.4980   44.2720   30.1550 C.3   201  MET201      0.0595
    176  SD        25.3090   43.7290   28.8920 S.3   201  MET201     -0.1393
    177  CE        25.9790   42.1420   28.3700 C.3   201  MET201      0.0692
@<TRIPOS>BOND
     1    57    56   ar
     2    57    55   ar
     3    56    54   ar
     4    55    53   ar
     5    54    53   ar
     6    53    52    1
     7    41    42    1
     8    31    29   ar
     9    44    43    2
    10    92    91    1
    11    52    49    1
    12    91    90    2
    13    91    93    1
    14    43    42    1
    15    43    48   am
    16    42    45    1
    17    90    89    1
    18    29    30   ar
    19    29    28    1
    20    49    48    1
    21    49    50    1
    22    89    88    1
    23    64    63   ar
    24    46    45    1
    25    28    27    1
    26    47    45    1
    27    37    36    1
    28    37    38    1
    29    35    34    2
    30    36    33    1
    31    33    34    1
    32    33    32    1
    33    26    25    2
    34    65    63   ar
    35    63    62    1
    36    61    60    2
    37    58    50   am
    38    58    59    1
    39    50    51    2
    40    27    24    1
    41    25    32   am
    42    25    24    1
    43    88    87    1
    44    38    39    2
    45    38    40   am
    46    87    84    1
    47    62    59    1
    48    60    59    1
    49    24    23    1
    50    84    83    1
    51    84    85    1
    52    83    81   am
    53    23    19   am
    54    85    86    2
    55    66    67    1
    56    20    19    2
    57    80    81    1
    58    80    79    1
    59    81    82    2
    60   132   131   ar
    61   132   130   ar
    62   131   129   ar
    63    19    18    1
    64    69    68    2
    65    77    76    2
    66    22    21    1
    67    70    67    1
    68    70    71    1
    69   130   128   ar
    70    67    68    1
    71   129   126   ar
    72    21    18    1
    73    79    76   am
    74    18    17    1
    75    76    75    1
    76   128   126   ar
    77   128   127   ar
    78   126   124   ar
    79    71    73   am
    80    71    72    2
    81    17    13   am
    82    75    74    1
    83    75    78    1
    84   127   125   ar
    85    94    95    1
    86   124   123    1
    87   124   125   ar
    88    14    13    2
    89    13    12    1
    90    95    96    1
    91    97    96    2
    92   123   120    1
    93    96    98   am
    94   120   121    1
    95   120   119    1
    96   121   122    2
    97    98    99    1
    98   112   111    2
    99    15    12    1
   100    15    16    1
   101    99   100    1
   102    12    11    1
   103   119   111   am
   104   111   110    1
   105   100   102   am
   106   100   101    2
   107   167   166    2
   108   102   103    1
   109    11     9   am
   110   166   165    1
   111   109   110    1
   112   109   104   am
   113   110   113    1
   114    10     9    2
   115   103   104    1
   116   103   106    1
   117     9     8    1
   118   104   105    2
   119   113   114    1
   120   106   108    1
   121   106   107    1
   122   169   168    1
   123   116   114   ar
   124   116   118   ar
   125   165   168    1
   126   165   164    1
   127   114   115   ar
   128   118   117   ar
   129     4     3    2
   130     8     7    1
   131   115   117   ar
   132     3     7   am
   133     3     2    1
   134   162   161    2
   135     1     2    1
   136   133   134    1
   137   152   150   am
   138     2     5    1
   139   161   160    1
   140     5     6    1
   141   135   134    1
   142   135   136    2
   143   134   137    1
   144   150   149    1
   145   150   151    2
   146   137   138    1
   147   160   163    1
   148   160   159    1
   149   139   138   ar
   150   139   141   ar
   151   149   148    1
   152   138   140   ar
   153   148   145    1
   154   141   143   ar
   155   159   155   am
   156   144   145    1
   157   140   142   ar
   158   145   146    1
   159   143   142   ar
   160   156   155    2
   161   158   157    1
   162   155   154    1
   163   177   176    1
   164   157   154    1
   165   176   175    1
   166   146   147    2
   167   154   153    1
   168   175   174    1
   169   170   171    1
   170   174   171    1
   171   171   172    1
   172   172   173    2
