@<TRIPOS>MOLECULE
tmp/4wxeA00.pdb
 107 102 0 0 0
SMALL
GASTEIGER

@<TRIPOS>ATOM
      1  N         20.9310   30.7070   56.3090 N.3    19  ASN19      -0.1240
      2  CA        21.4670   29.3770   56.6420 C.3    19  ASN19       0.1653
      3  C         21.5950   29.3440   58.1630 C.2    19  ASN19       0.2266
      4  O         22.3530   30.1040   58.7340 O.2    19  ASN19      -0.2867
      5  CB        22.8100   29.2080   55.9650 C.3    19  ASN19       0.1155
      6  CG        23.5190   27.9460   56.3630 C.2    19  ASN19       0.2627
      7  OD1       23.3150   27.4210   57.4470 O.2    19  ASN19      -0.2716
      8  ND2       24.4100   27.4880   55.5090 N.am   19  ASN19      -0.0877
      9  N         23.0760   27.6070   60.2990 N.3    21  PHE21      -0.1227
     10  CA        24.4100   27.4750   60.8270 C.3    21  PHE21       0.1736
     11  C         25.1050   28.8570   60.8940 C.2    21  PHE21       0.2595
     12  O         25.6980   29.2280   61.9190 O.2    21  PHE21      -0.2718
     13  CB        25.2610   26.5000   59.9730 C.3    21  PHE21       0.0547
     14  CG        26.7260   26.5920   60.2700 C.ar   21  PHE21      -0.0202
     15  CD1       27.2250   26.1100   61.4610 C.ar   21  PHE21      -0.0042
     16  CD2       27.5740   27.2520   59.4060 C.ar   21  PHE21      -0.0042
     17  CE1       28.5500   26.2460   61.7640 C.ar   21  PHE21      -0.0003
     18  CE2       28.9120   27.3960   59.7290 C.ar   21  PHE21      -0.0003
     19  CZ        29.3770   26.8780   60.9070 C.ar   21  PHE21      -0.0000
     20  N         25.0310   29.6220   59.8040 N.am   22  PHE22      -0.1976
     21  CA        25.6310   30.9620   59.7970 C.3    22  PHE22       0.1639
     22  C         24.9270   31.9270   60.7330 C.2    22  PHE22       0.2290
     23  O         25.5710   32.7730   61.3680 O.2    22  PHE22      -0.2864
     24  CB        25.7070   31.5250   58.3950 C.3    22  PHE22       0.0560
     25  CG        26.8340   30.9540   57.5740 C.ar   22  PHE22      -0.0200
     26  CD1       28.1690   31.2360   57.8880 C.ar   22  PHE22      -0.0042
     27  CD2       26.5630   30.1590   56.4770 C.ar   22  PHE22      -0.0042
     28  CE1       29.2020   30.7070   57.1220 C.ar   22  PHE22      -0.0003
     29  CE2       27.6040   29.6160   55.7070 C.ar   22  PHE22      -0.0003
     30  CZ        28.9110   29.8900   56.0420 C.ar   22  PHE22      -0.0000
     31  N         27.9470   22.5950   48.0000 N.3   130  GLY130     -0.1225
     32  CA        27.5710   23.9560   47.6540 C.3   130  GLY130      0.1811
     33  C         28.6200   24.5450   46.7360 C.2   130  GLY130      0.2280
     34  O         28.3810   25.5360   46.0400 O.2   130  GLY130     -0.2866
     35  N         36.2340   18.9250   51.8090 N.3   142  ARG142     -0.1245
     36  CA        35.2690   17.8440   51.9120 C.3   142  ARG142      0.1563
     37  C         35.1490   17.0570   50.6120 C.2   142  ARG142      0.2260
     38  O         35.0230   15.8310   50.6240 O.2   142  ARG142     -0.2867
     39  CB        33.9100   18.3950   52.3310 C.3   142  ARG142      0.0307
     40  CG        33.9330   19.1510   53.6540 C.3   142  ARG142      0.0489
     41  CD        32.5390   19.5130   54.0130 C.3   142  ARG142      0.2205
     42  NE        32.4520   20.6190   54.9440 N.pl3 142  ARG142     -0.0865
     43  CZ        31.3070   21.1260   55.3660 C.cat 142  ARG142      0.5346
     44  NH1       30.1500   20.6140   54.9620 N.pl3 142  ARG142      0.1354
     45  NH2       31.3500   22.1410   56.2100 N.pl3 142  ARG142      0.1354
     46  N         22.6860   24.3650   47.8330 N.3   166  HIS166     -0.1241
     47  CA        22.7980   25.0140   49.1490 C.3   166  HIS166      0.1621
     48  C         21.5680   24.9800   50.0330 C.2   166  HIS166      0.2264
     49  O         21.6880   24.9660   51.2540 O.2   166  HIS166     -0.2867
     50  CB        23.1480   26.5070   48.9970 C.3   166  HIS166      0.0745
     51  CG        24.4400   26.7550   48.2980 C.ar  166  HIS166      0.0817
     52  ND1       24.5260   26.9370   46.9380 N.ar  166  HIS166     -0.2268
     53  CD2       25.6970   26.8710   48.7770 C.ar  166  HIS166      0.1154
     54  CE1       25.7870   27.1440   46.6070 C.ar  166  HIS166      0.1986
     55  NE2       26.5180   27.1120   47.7050 N.ar  166  HIS166     -0.2212
     56  N         26.2010   17.5610   52.7440 N.3   193  ASN193     -0.1225
     57  CA        26.9820   18.7250   53.1550 C.3   193  ASN193      0.1785
     58  C         26.1830   19.8640   53.7770 C.2   193  ASN193      0.2597
     59  O         26.7190   20.9520   53.9690 O.2   193  ASN193     -0.2718
     60  CB        27.8120   19.2400   51.9960 C.3   193  ASN193      0.1169
     61  CG        29.2010   18.6300   51.9650 C.2   193  ASN193      0.2627
     62  OD1       29.8740   18.5030   52.9920 O.2   193  ASN193     -0.2716
     63  ND2       29.6180   18.2250   50.7860 N.am  193  ASN193     -0.0877
     64  N         24.9150   19.6220   54.1140 N.am  194  SER194     -0.1952
     65  CA        24.0610   20.6860   54.6530 C.3   194  SER194      0.1924
     66  C         22.7690   20.1610   55.2120 C.2   194  SER194      0.2314
     67  O         22.0590   19.4600   54.5110 O.2   194  SER194     -0.2863
     68  CB        23.7040   21.6580   53.5410 C.3   194  SER194      0.2116
     69  OG        22.5480   22.3940   53.9120 O.3   194  SER194     -0.2180
     70  N         24.7420   17.8480   57.4060 N.3   220  TYR220     -0.1227
     71  CA        25.9660   18.4650   57.9310 C.3   220  TYR220      0.1736
     72  C         25.6070   19.7550   58.6610 C.2   220  TYR220      0.2595
     73  O         24.8810   20.5980   58.1080 O.2   220  TYR220     -0.2718
     74  CB        26.9720   18.7520   56.8070 C.3   220  TYR220      0.0548
     75  CG        28.4460   18.6670   57.1690 C.ar  220  TYR220     -0.0200
     76  CD1       29.0470   19.6220   57.9750 C.ar  220  TYR220     -0.0009
     77  CD2       29.2340   17.6540   56.6590 C.ar  220  TYR220     -0.0009
     78  CE1       30.4030   19.5890   58.2650 C.ar  220  TYR220      0.0417
     79  CE2       30.6020   17.5950   56.9590 C.ar  220  TYR220      0.0417
     80  CZ        31.1670   18.5620   57.7450 C.ar  220  TYR220      0.1957
     81  OH        32.5220   18.4920   58.0340 O.3   220  TYR220     -0.2866
     82  N         26.0910   19.8500   59.9090 N.am  221  ASP221     -0.1974
     83  CA        26.1640   21.0290   60.7790 C.3   221  ASP221      0.1709
     84  C         25.5530   20.7750   62.1560 C.2   221  ASP221      0.2293
     85  O         26.0250   21.3170   63.1480 O.2   221  ASP221     -0.2864
     86  CB        25.5000   22.2930   60.2180 C.3   221  ASP221      0.1436
     87  CG        26.1800   22.8620   58.9990 C.2   221  ASP221      0.3671
     88  OD1       27.3350   22.5150   58.6940 O.co2 221  ASP221     -0.2456
     89  OD2       25.5190   23.6880   58.3460 O.co2 221  ASP221     -0.2456
     90  N         22.1730   21.7070   62.8070 N.3   223  GLN223     -0.1245
     91  CA        21.4160   22.9400   62.9150 C.3   223  GLN223      0.1566
     92  C         20.2280   22.7930   63.8460 C.2   223  GLN223      0.2260
     93  O         19.8320   21.6910   64.1960 O.2   223  GLN223     -0.2867
     94  CB        20.9690   23.3830   61.5270 C.3   223  GLN223      0.0367
     95  CG        22.1280   23.7770   60.6410 C.3   223  GLN223      0.0905
     96  CD        21.7320   24.1360   59.2170 C.2   223  GLN223      0.2608
     97  OE1       20.5770   24.4570   58.9380 O.2   223  GLN223     -0.2717
     98  NE2       22.7040   24.0940   58.3070 N.am  223  GLN223     -0.0878
     99  N         28.8160   20.7450   64.0050 N.3   238  GLN238     -0.1245
    100  CA        29.7320   21.9000   64.0570 C.3   238  GLN238      0.1566
    101  C         29.6390   22.5430   65.4310 C.2   238  GLN238      0.2260
    102  O         28.5440   22.8970   65.8940 O.2   238  GLN238     -0.2867
    103  CB        29.3490   22.9490   63.0080 C.3   238  GLN238      0.0367
    104  CG        29.4580   22.4820   61.5950 C.3   238  GLN238      0.0905
    105  CD        30.4180   23.2730   60.7220 C.2   238  GLN238      0.2608
    106  OE1       31.4790   23.7490   61.1680 O.2   238  GLN238     -0.2717
    107  NE2       30.0610   23.3910   59.4600 N.am  238  GLN238     -0.0878
@<TRIPOS>BOND
     1    34    33    2
     2    54    52   ar
     3    54    55   ar
     4    33    32    1
     5    52    51   ar
     6    32    31    1
     7    55    53   ar
     8    46    47    1
     9    51    53   ar
    10    51    50    1
    11    50    47    1
    12    47    48    1
    13    48    49    2
    14    37    38    2
    15    37    36    1
    16    63    61   am
    17    35    36    1
    18    36    39    1
    19    61    60    1
    20    61    62    2
    21    60    57    1
    22    39    40    1
    23    56    57    1
    24    57    58    1
    25    68    69    1
    26    68    65    1
    27    40    41    1
    28    58    59    2
    29    58    64   am
    30    41    42    1
    31    64    65    1
    32    67    66    2
    33    65    66    1
    34    42    43    2
    35    44    43    1
    36    43    45    1
    37     8     6   am
    38    29    30   ar
    39    29    27   ar
    40     5     6    1
    41     5     2    1
    42    30    28   ar
    43     1     2    1
    44     6     7    2
    45    27    25   ar
    46     2     3    1
    47    77    79   ar
    48    77    75   ar
    49    74    75    1
    50    74    71    1
    51    79    80   ar
    52    28    26   ar
    53    75    76   ar
    54    70    71    1
    55    25    26   ar
    56    25    24    1
    57    80    81    1
    58    80    78   ar
    59    71    72    1
    60    76    78   ar
    61    73    72    2
    62     3     4    2
    63    98    96   am
    64    89    87   ar
    65    24    21    1
    66    72    82   am
    67    88    87   ar
    68    97    96    2
    69    87    86    1
    70    96    95    1
    71    16    18   ar
    72    16    14   ar
    73   107   105   am
    74    18    19   ar
    75    21    20    1
    76    21    22    1
    77    20    11   am
    78    82    83    1
    79    13    14    1
    80    13    10    1
    81    86    83    1
    82    14    15   ar
    83     9    10    1
    84    95    94    1
    85   105   106    2
    86   105   104    1
    87    22    23    2
    88    83    84    1
    89    10    11    1
    90    11    12    2
    91    19    17   ar
    92    15    17   ar
    93    94    91    1
    94   104   103    1
    95    84    85    2
    96    90    91    1
    97    91    92    1
    98   103   100    1
    99    92    93    2
   100    99   100    1
   101   100   101    1
   102   101   102    2
