@<TRIPOS>MOLECULE
tmp/4wxfA00.pdb
 132 124 0 0 0
SMALL
GASTEIGER

@<TRIPOS>ATOM
      1  N        -12.5310  -39.8900    9.6430 N.3    29  SER29      -0.1217
      2  CA       -12.9530  -40.8030    8.5930 C.3    29  SER29       0.1889
      3  C        -13.5160  -42.1220    9.1330 C.2    29  SER29       0.2288
      4  O        -13.9350  -42.9360    8.3510 O.2    29  SER29      -0.2866
      5  CB       -11.7100  -41.0960    7.7250 C.3    29  SER29       0.2089
      6  OG       -10.5990  -41.6190    8.4870 O.3    29  SER29      -0.2183
      7  N        -14.0910  -49.6870   -2.8560 N.3    91  SER91      -0.1202
      8  CA       -13.4980  -48.7090   -1.9930 C.3    91  SER91       0.2020
      9  C        -13.7540  -47.3650   -2.6340 C.2    91  SER91       0.2619
     10  O        -14.2910  -47.2800   -3.7340 O.2    91  SER91      -0.2717
     11  CB       -11.9900  -48.9210   -1.8930 C.3    91  SER91       0.2103
     12  OG       -11.4720  -48.6870   -3.1880 O.3    91  SER91      -0.2182
     13  N        -13.3660  -46.3030   -1.9430 N.am   92  GLY92      -0.1942
     14  CA       -13.4960  -44.9710   -2.5100 C.3    92  GLY92       0.2014
     15  C        -12.4790  -44.7720   -3.6340 C.2    92  GLY92       0.2639
     16  O        -12.7870  -44.0990   -4.6250 O.2    92  GLY92      -0.2714
     17  N        -11.2750  -45.3200   -3.4420 N.am   93  SER93      -0.1949
     18  CA       -10.2100  -45.2480   -4.3970 C.3    93  SER93       0.1924
     19  C        -10.6640  -45.9150   -5.7150 C.2    93  SER93       0.2314
     20  O        -10.4950  -45.3640   -6.8130 O.2    93  SER93      -0.2863
     21  CB        -8.9510  -45.9310   -3.8340 C.3    93  SER93       0.2116
     22  OG        -8.3840  -45.3060   -2.6770 O.3    93  SER93      -0.2180
     23  N        -13.2460  -43.8870   -7.5440 N.3    96  ASN96      -0.1240
     24  CA       -12.6690  -42.7370   -8.2190 C.3    96  ASN96       0.1653
     25  C        -11.9260  -43.1340   -9.4990 C.2    96  ASN96       0.2266
     26  O        -12.0170  -42.4590  -10.5150 O.2    96  ASN96      -0.2867
     27  CB       -11.7210  -41.9930   -7.3010 C.3    96  ASN96       0.1155
     28  CG       -12.4440  -41.1570   -6.2530 C.2    96  ASN96       0.2627
     29  OD1      -13.6910  -41.0720   -6.1980 O.2    96  ASN96      -0.2716
     30  ND2      -11.6490  -40.5700   -5.3680 N.am   96  ASN96      -0.0877
     31  N         -7.2410  -35.7910   -1.4950 N.3   120  HIS120     -0.1241
     32  CA        -6.9280  -37.1860   -1.2600 C.3   120  HIS120      0.1621
     33  C         -5.8570  -37.6910   -2.2440 C.2   120  HIS120      0.2264
     34  O         -5.6640  -37.1010   -3.3050 O.2   120  HIS120     -0.2867
     35  CB        -8.2240  -38.0270   -1.3410 C.3   120  HIS120      0.0745
     36  CG        -8.0130  -39.4830   -1.0570 C.ar  120  HIS120      0.0817
     37  ND1       -8.0140  -40.4450   -2.0480 N.ar  120  HIS120     -0.2268
     38  CD2       -7.7500  -40.1300    0.0960 C.ar  120  HIS120      0.1154
     39  CE1       -7.7840  -41.6270   -1.5130 C.ar  120  HIS120      0.1986
     40  NE2       -7.6420  -41.4620   -0.2070 N.ar  120  HIS120     -0.2212
     41  N         -6.6600  -37.9280   -5.8310 N.3   123  HIS123     -0.1241
     42  CA        -6.8080  -36.6250   -6.4980 C.3   123  HIS123      0.1621
     43  C         -5.4450  -36.0730   -6.9990 C.2   123  HIS123      0.2264
     44  O         -5.2350  -34.8400   -7.1390 O.2   123  HIS123     -0.2867
     45  CB        -7.4410  -35.6380   -5.5280 C.3   123  HIS123      0.0745
     46  CG        -8.7200  -36.1080   -4.8980 C.ar  123  HIS123      0.0817
     47  ND1       -9.3820  -35.3660   -3.9540 N.ar  123  HIS123     -0.2268
     48  CD2       -9.4700  -37.2180   -5.0880 C.ar  123  HIS123      0.1154
     49  CE1      -10.4880  -35.9840   -3.5920 C.ar  123  HIS123      0.1986
     50  NE2      -10.5830  -37.0970   -4.2900 N.ar  123  HIS123     -0.2212
     51  N        -12.8440  -33.1750   -0.4210 N.3   169  ALA169     -0.1231
     52  CA       -11.6570  -33.2200    0.4240 C.3   169  ALA169      0.1694
     53  C        -11.7540  -34.1910    1.5870 C.2   169  ALA169      0.2592
     54  O        -12.8060  -34.7230    1.8990 O.2   169  ALA169     -0.2718
     55  CB       -11.3530  -31.8110    0.9340 C.3   169  ALA169      0.0304
     56  N        -10.5970  -34.3790    2.1980 N.am  170  SER170     -0.1952
     57  CA       -10.3840  -35.1950    3.3640 C.3   170  SER170      0.1924
     58  C        -10.1710  -34.3390    4.5680 C.2   170  SER170      0.2314
     59  O        -10.1660  -34.8630    5.6700 O.2   170  SER170     -0.2863
     60  CB        -9.1030  -36.0230    3.1820 C.3   170  SER170      0.2116
     61  OG        -9.3190  -37.0630    2.2150 O.3   170  SER170     -0.2180
     62  N        -15.9930  -35.8520   -5.0930 N.3   195  ASP195     -0.1239
     63  CA       -15.7150  -36.9430   -4.2190 C.3   195  ASP195      0.1674
     64  C        -16.1800  -36.4900   -2.8550 C.2   195  ASP195      0.2266
     65  O        -15.4710  -35.7450   -2.1650 O.2   195  ASP195     -0.2867
     66  CB       -14.2210  -37.1730   -4.1640 C.3   195  ASP195      0.1410
     67  CG       -13.8490  -38.3530   -3.3280 C.2   195  ASP195      0.3668
     68  OD1      -14.7550  -38.8560   -2.6480 O.co2 195  ASP195     -0.2456
     69  OD2      -12.6440  -38.7510   -3.3320 O.co2 195  ASP195     -0.2456
     70  N        -16.7750  -38.3110   -0.1680 N.3   197  ALA197     -0.1231
     71  CA       -16.5850  -39.3460    0.7970 C.3   197  ALA197      0.1694
     72  C        -16.8140  -38.8580    2.2080 C.2   197  ALA197      0.2592
     73  O        -17.5660  -39.4640    2.9670 O.2   197  ALA197     -0.2718
     74  CB       -15.1720  -39.9000    0.6880 C.3   197  ALA197      0.0304
     75  N        -16.1120  -37.8020    2.5820 N.am  198  HIS198     -0.1976
     76  CA       -16.1460  -37.3480    3.9520 C.3   198  HIS198      0.1656
     77  C        -17.5100  -36.8300    4.3690 C.2   198  HIS198      0.2291
     78  O        -17.9120  -37.0110    5.5250 O.2   198  HIS198     -0.2864
     79  CB       -15.0490  -36.3110    4.2450 C.3   198  HIS198      0.0771
     80  CG       -13.8270  -36.9470    4.8100 C.ar  198  HIS198      0.0820
     81  ND1      -13.6010  -37.0680    6.1670 N.ar  198  HIS198     -0.2267
     82  CD2      -12.8360  -37.6390    4.2060 C.ar  198  HIS198      0.1154
     83  CE1      -12.4860  -37.7450    6.3680 C.ar  198  HIS198      0.1986
     84  NE2      -12.0000  -38.1040    5.1890 N.ar  198  HIS198     -0.2212
     85  N        -17.1840  -42.8780   -0.4410 N.3   221  THR221     -0.1218
     86  CA       -17.0740  -44.0900    0.3340 C.3   221  THR221      0.1862
     87  C        -18.4560  -44.2550    0.9370 C.2   221  THR221      0.2287
     88  O        -19.1850  -43.2580    1.1330 O.2   221  THR221     -0.2866
     89  CB       -16.0800  -43.9300    1.4690 C.3   221  THR221      0.1770
     90  OG1      -16.3300  -42.7050    2.1390 O.3   221  THR221     -0.2211
     91  CG2      -14.7310  -43.7870    0.9320 C.3   221  THR221      0.0375
     92  N        -18.5130  -45.9160    3.8150 N.3   223  HIS223     -0.1226
     93  CA       -18.0920  -45.6110    5.1860 C.3   223  HIS223      0.1752
     94  C        -17.8560  -44.0980    5.3830 C.2   223  HIS223      0.2595
     95  O        -18.0650  -43.3050    4.4480 O.2   223  HIS223     -0.2718
     96  CB       -16.8650  -46.4170    5.5520 C.3   223  HIS223      0.0759
     97  CG       -15.7010  -46.2570    4.6170 C.ar  223  HIS223      0.0818
     98  ND1      -15.7000  -46.7440    3.3360 N.ar  223  HIS223     -0.2268
     99  CD2      -14.4600  -45.7530    4.8200 C.ar  223  HIS223      0.1154
    100  CE1      -14.5300  -46.5260    2.7770 C.ar  223  HIS223      0.1986
    101  NE2      -13.7580  -45.9150    3.6550 N.ar  223  HIS223     -0.2212
    102  N        -17.5040  -43.7100    6.6040 N.am  224  LYS224     -0.1980
    103  CA       -17.2610  -42.3140    7.0120 C.3   224  LYS224      0.1596
    104  C        -18.5640  -41.7550    7.5350 C.2   224  LYS224      0.2287
    105  O        -19.2090  -42.4620    8.2560 O.2   224  LYS224     -0.2864
    106  CB       -16.6190  -41.4430    5.9620 C.3   224  LYS224      0.0298
    107  CG       -15.2980  -41.9730    5.4370 C.3   224  LYS224      0.0038
    108  CD       -14.5180  -40.8680    4.7740 C.3   224  LYS224      0.0206
    109  CE       -13.5800  -41.3330    3.7020 C.3   224  LYS224      0.1093
    110  NZ       -12.4380  -42.0100    4.2420 N.3   224  LYS224     -0.1314
    111  N        -17.4040  -50.5230    4.5700 N.3   230  ARG230     -0.1245
    112  CA       -16.2570  -50.0510    3.8960 C.3   230  ARG230      0.1563
    113  C        -16.4950  -50.4130    2.4360 C.2   230  ARG230      0.2260
    114  O        -16.7010  -51.5710    2.0870 O.2   230  ARG230     -0.2867
    115  CB       -15.0740  -50.7610    4.5180 C.3   230  ARG230      0.0307
    116  CG       -13.7480  -50.0650    4.4410 C.3   230  ARG230      0.0489
    117  CD       -12.7390  -50.6470    5.4620 C.3   230  ARG230      0.2205
    118  NE       -12.8690  -49.8800    6.6650 N.pl3 230  ARG230     -0.0865
    119  CZ       -12.4100  -48.6480    6.7850 C.cat 230  ARG230      0.5346
    120  NH1      -11.7000  -48.0740    5.7730 N.pl3 230  ARG230      0.1354
    121  NH2      -12.6660  -47.9800    7.9190 N.pl3 230  ARG230      0.1354
    122  N         -6.0310  -33.6640   13.0340 N.3   357  ARG357     -0.1245
    123  CA        -7.4010  -33.6520   12.5240 C.3   357  ARG357      0.1563
    124  C         -8.3480  -34.3530   13.4790 C.2   357  ARG357      0.2260
    125  O         -8.1300  -35.5070   13.8330 O.2   357  ARG357     -0.2867
    126  CB        -7.4640  -34.3460   11.1450 C.3   357  ARG357      0.0307
    127  CG        -8.8450  -34.3910   10.4690 C.3   357  ARG357      0.0489
    128  CD        -8.8080  -35.1080    9.1240 C.3   357  ARG357      0.2205
    129  NE        -8.6070  -36.5520    9.2940 N.pl3 357  ARG357     -0.0865
    130  CZ        -8.7600  -37.4700    8.3470 C.cat 357  ARG357      0.5346
    131  NH1       -9.1180  -37.1590    7.1150 N.pl3 357  ARG357      0.1354
    132  NH2       -8.5540  -38.7360    8.6170 N.pl3 357  ARG357      0.1354
@<TRIPOS>BOND
     1    26    25    2
     2    25    24    1
     3    24    23    1
     4    24    27    1
     5    27    28    1
     6    44    43    2
     7    43    42    1
     8    20    19    2
     9    42    41    1
    10    42    45    1
    11    28    29    2
    12    28    30   am
    13    19    18    1
    14    45    46    1
    15    62    63    1
    16    48    46   ar
    17    48    50   ar
    18    46    47   ar
    19    16    15    2
    20    18    21    1
    21    18    17    1
    22    50    49   ar
    23    63    66    1
    24    63    64    1
    25    66    67    1
    26    47    49   ar
    27    21    22    1
    28    10     9    2
    29    15    17   am
    30    15    14    1
    31    69    67   ar
    32    67    68   ar
    33    34    33    2
    34    12    11    1
    35     7     8    1
    36    64    65    2
    37     9     8    1
    38     9    13   am
    39    14    13    1
    40    33    32    1
    41    37    39   ar
    42    37    36   ar
    43     8    11    1
    44    39    40   ar
    45    31    32    1
    46    35    32    1
    47    35    36    1
    48    36    38   ar
    49    85    86    1
    50    51    52    1
    51    40    38   ar
    52    70    71    1
    53    86    87    1
    54    86    89    1
    55    52    55    1
    56    52    53    1
    57    74    71    1
    58    71    72    1
    59    91    89    1
    60    87    88    2
    61    89    90    1
    62    53    54    2
    63    53    56   am
    64   114   113    2
    65    56    57    1
    66    72    75   am
    67    72    73    2
    68    61    60    1
    69   113   112    1
    70    75    76    1
    71   100    98   ar
    72   100   101   ar
    73    60    57    1
    74    98    97   ar
    75    57    58    1
    76   101    99   ar
    77   109   110    1
    78   109   108    1
    79    92    93    1
    80   112   115    1
    81   112   111    1
    82    76    79    1
    83    76    77    1
    84    82    80   ar
    85    82    84   ar
    86    79    80    1
    87    77    78    2
    88   116   115    1
    89   116   117    1
    90    95    94    2
    91    58    59    2
    92    97    99   ar
    93    97    96    1
    94   108   107    1
    95    80    81   ar
    96    93    94    1
    97    93    96    1
    98    84    83   ar
    99    94   102   am
   100   107   106    1
   101   117   118    1
   102   120   119    1
   103   106   103    1
   104    81    83   ar
   105   102   103    1
   106   118   119    2
   107   119   121    1
   108   103   104    1
   109   131   130    1
   110   104   105    2
   111     5     6    1
   112     5     2    1
   113   130   132    1
   114   130   129    2
   115     4     3    2
   116     2     3    1
   117     2     1    1
   118   128   129    1
   119   128   127    1
   120   127   126    1
   121   126   123    1
   122   123   122    1
   123   123   124    1
   124   124   125    2
