@<TRIPOS>MOLECULE
tmp/4wxgA00.pdb
 132 124 0 0 0
SMALL
GASTEIGER

@<TRIPOS>ATOM
      1  N        -12.4420  -39.9180    9.4960 N.3    29  SER29      -0.1217
      2  CA       -12.8870  -40.8500    8.5180 C.3    29  SER29       0.1889
      3  C        -13.5370  -42.1290    9.0940 C.2    29  SER29       0.2288
      4  O        -13.9510  -42.9810    8.3290 O.2    29  SER29      -0.2866
      5  CB       -11.6770  -41.2310    7.6670 C.3    29  SER29       0.2089
      6  OG       -10.6270  -41.8160    8.4580 O.3    29  SER29      -0.2183
      7  N        -14.1510  -49.7310   -3.0360 N.3    91  SER91      -0.1202
      8  CA       -13.5540  -48.7100   -2.1630 C.3    91  SER91       0.2020
      9  C        -13.7980  -47.3820   -2.7940 C.2    91  SER91       0.2619
     10  O        -14.2560  -47.2850   -3.9170 O.2    91  SER91      -0.2717
     11  CB       -12.0960  -48.9400   -2.0170 C.3    91  SER91       0.2103
     12  OG       -11.4470  -48.6010   -3.2340 O.3    91  SER91      -0.2182
     13  N        -13.5150  -46.3200   -2.0550 N.am   92  GLY92      -0.1942
     14  CA       -13.5820  -44.9950   -2.6450 C.3    92  GLY92       0.2014
     15  C        -12.5610  -44.8120   -3.7690 C.2    92  GLY92       0.2639
     16  O        -12.8240  -44.1150   -4.7660 O.2    92  GLY92      -0.2714
     17  N        -11.3700  -45.3620   -3.5500 N.am   93  SER93      -0.1949
     18  CA       -10.2850  -45.2590   -4.5110 C.3    93  SER93       0.1924
     19  C        -10.6760  -45.9080   -5.8140 C.2    93  SER93       0.2314
     20  O        -10.4210  -45.3660   -6.8810 O.2    93  SER93      -0.2863
     21  CB        -9.0340  -45.8940   -3.9420 C.3    93  SER93       0.2116
     22  OG        -8.6150  -45.1250   -2.8080 O.3    93  SER93      -0.2180
     23  N        -13.2390  -43.7640   -7.6450 N.3    96  ASN96      -0.1240
     24  CA       -12.6280  -42.6690   -8.3240 C.3    96  ASN96       0.1653
     25  C        -11.9260  -43.1250   -9.5970 C.2    96  ASN96       0.2266
     26  O        -12.0500  -42.4790  -10.5990 O.2    96  ASN96      -0.2867
     27  CB       -11.6930  -41.9170   -7.3930 C.3    96  ASN96       0.1155
     28  CG       -12.4500  -41.1650   -6.3030 C.2    96  ASN96       0.2627
     29  OD1      -13.6470  -41.0830   -6.3330 O.2    96  ASN96      -0.2716
     30  ND2      -11.7200  -40.5890   -5.3700 N.am   96  ASN96      -0.0877
     31  N         -7.3660  -35.7980   -1.6240 N.3   120  HIS120     -0.1241
     32  CA        -7.0480  -37.1950   -1.3260 C.3   120  HIS120      0.1621
     33  C         -5.9210  -37.6620   -2.2660 C.2   120  HIS120      0.2264
     34  O         -5.6880  -37.0370   -3.3020 O.2   120  HIS120     -0.2867
     35  CB        -8.3290  -38.0330   -1.5140 C.3   120  HIS120      0.0745
     36  CG        -8.1600  -39.4860   -1.2150 C.ar  120  HIS120      0.0817
     37  ND1       -8.0970  -40.4580   -2.1930 N.ar  120  HIS120     -0.2268
     38  CD2       -8.0540  -40.1300   -0.0410 C.ar  120  HIS120      0.1154
     39  CE1       -7.9690  -41.6380   -1.6300 C.ar  120  HIS120      0.1986
     40  NE2       -7.9550  -41.4630   -0.3200 N.ar  120  HIS120     -0.2212
     41  N         -6.7410  -37.9150   -5.8620 N.3   123  HIS123     -0.1241
     42  CA        -6.9650  -36.6470   -6.5260 C.3   123  HIS123      0.1621
     43  C         -5.6740  -36.0630   -7.0800 C.2   123  HIS123      0.2264
     44  O         -5.5360  -34.8240   -7.1620 O.2   123  HIS123     -0.2867
     45  CB        -7.5950  -35.6340   -5.5530 C.3   123  HIS123      0.0745
     46  CG        -8.8540  -36.0970   -4.9260 C.ar  123  HIS123      0.0817
     47  ND1       -9.4940  -35.3760   -3.9410 N.ar  123  HIS123     -0.2268
     48  CD2       -9.6090  -37.1980   -5.1430 C.ar  123  HIS123      0.1154
     49  CE1      -10.6000  -35.9980   -3.5960 C.ar  123  HIS123      0.1986
     50  NE2      -10.7050  -37.0970   -4.3210 N.ar  123  HIS123     -0.2212
     51  N        -12.8150  -33.2590   -0.5120 N.3   169  ALA169     -0.1231
     52  CA       -11.6650  -33.2240    0.3580 C.3   169  ALA169      0.1694
     53  C        -11.7990  -34.1960    1.5360 C.2   169  ALA169      0.2592
     54  O        -12.8930  -34.6880    1.8650 O.2   169  ALA169     -0.2718
     55  CB       -11.4760  -31.8200    0.8900 C.3   169  ALA169      0.0304
     56  N        -10.6440  -34.4270    2.1250 N.am  170  SER170     -0.1952
     57  CA       -10.4320  -35.2310    3.3240 C.3   170  SER170      0.1924
     58  C        -10.2470  -34.3790    4.5570 C.2   170  SER170      0.2314
     59  O        -10.2240  -34.9100    5.6760 O.2   170  SER170     -0.2863
     60  CB        -9.1330  -35.9950    3.1480 C.3   170  SER170      0.2116
     61  OG        -9.2480  -36.9500    2.0520 O.3   170  SER170     -0.2180
     62  N        -16.0090  -35.8240   -5.1790 N.3   195  ASP195     -0.1239
     63  CA       -15.7720  -36.9430   -4.3110 C.3   195  ASP195      0.1674
     64  C        -16.2550  -36.4850   -2.9220 C.2   195  ASP195      0.2266
     65  O        -15.5540  -35.7520   -2.1690 O.2   195  ASP195     -0.2867
     66  CB       -14.2920  -37.2450   -4.2420 C.3   195  ASP195      0.1410
     67  CG       -13.9770  -38.4080   -3.3030 C.2   195  ASP195      0.3668
     68  OD1      -14.9210  -38.8730   -2.6030 O.co2 195  ASP195     -0.2456
     69  OD2      -12.7930  -38.8670   -3.3380 O.co2 195  ASP195     -0.2456
     70  N        -16.8480  -38.3340   -0.3250 N.3   197  ALA197     -0.1231
     71  CA       -16.6530  -39.3510    0.6860 C.3   197  ALA197      0.1694
     72  C        -16.8330  -38.8870    2.1370 C.2   197  ALA197      0.2592
     73  O        -17.5200  -39.5420    2.9130 O.2   197  ALA197     -0.2718
     74  CB       -15.2960  -40.0300    0.5400 C.3   197  ALA197      0.0304
     75  N        -16.1290  -37.8540    2.5430 N.am  198  HIS198     -0.1976
     76  CA       -16.1730  -37.4280    3.8980 C.3   198  HIS198      0.1656
     77  C        -17.5520  -36.9260    4.3250 C.2   198  HIS198      0.2291
     78  O        -17.9590  -37.1710    5.4440 O.2   198  HIS198     -0.2864
     79  CB       -15.0720  -36.4000    4.2040 C.3   198  HIS198      0.0771
     80  CG       -13.8400  -37.0200    4.7780 C.ar  198  HIS198      0.0820
     81  ND1      -13.6210  -37.1330    6.1330 N.ar  198  HIS198     -0.2267
     82  CD2      -12.8190  -37.6710    4.1740 C.ar  198  HIS198      0.1154
     83  CE1      -12.4840  -37.7620    6.3410 C.ar  198  HIS198      0.1986
     84  NE2      -11.9680  -38.0800    5.1630 N.ar  198  HIS198     -0.2212
     85  N        -17.3800  -42.9100   -0.6190 N.3   221  THR221     -0.1218
     86  CA       -17.3510  -44.1180    0.2340 C.3   221  THR221      0.1862
     87  C        -18.6570  -44.2730    0.9090 C.2   221  THR221      0.2287
     88  O        -19.4340  -43.2890    1.0290 O.2   221  THR221     -0.2866
     89  CB       -16.2820  -44.0210    1.2990 C.3   221  THR221      0.1770
     90  OG1      -16.4390  -42.8220    2.0110 O.3   221  THR221     -0.2211
     91  CG2      -14.9910  -43.9810    0.6320 C.3   221  THR221      0.0375
     92  N        -18.5960  -45.6850    3.8560 N.3   223  HIS223     -0.1226
     93  CA       -18.2070  -45.6830    5.2470 C.3   223  HIS223      0.1752
     94  C        -17.8060  -44.5740    6.2160 C.2   223  HIS223      0.2595
     95  O        -17.4350  -44.9030    7.3610 O.2   223  HIS223     -0.2718
     96  CB       -17.0240  -46.6460    5.4800 C.3   223  HIS223      0.0759
     97  CG       -15.8310  -46.4110    4.6020 C.ar  223  HIS223      0.0818
     98  ND1      -15.8080  -46.7980    3.2700 N.ar  223  HIS223     -0.2268
     99  CD2      -14.6310  -45.8300    4.8450 C.ar  223  HIS223      0.1154
    100  CE1      -14.6330  -46.5050    2.7510 C.ar  223  HIS223      0.1986
    101  NE2      -13.9030  -45.9100    3.6820 N.ar  223  HIS223     -0.2212
    102  N        -17.8030  -43.3180    5.8380 N.am  224  LYS224     -0.1980
    103  CA       -17.3760  -42.3300    6.7810 C.3   224  LYS224      0.1596
    104  C        -18.6400  -41.7610    7.4430 C.2   224  LYS224      0.2287
    105  O        -19.2690  -42.4310    8.2460 O.2   224  LYS224     -0.2864
    106  CB       -16.4850  -41.2910    6.0900 C.3   224  LYS224      0.0298
    107  CG       -15.2630  -41.9110    5.4060 C.3   224  LYS224      0.0038
    108  CD       -14.4020  -40.8810    4.6960 C.3   224  LYS224      0.0206
    109  CE       -13.2270  -41.5250    3.9700 C.3   224  LYS224      0.1093
    110  NZ       -13.6270  -42.3720    2.8080 N.3   224  LYS224     -0.1314
    111  N        -17.4010  -50.5460    4.5450 N.3   230  ARG230     -0.1245
    112  CA       -16.3570  -50.0610    3.6760 C.3   230  ARG230      0.1563
    113  C        -16.6420  -50.4400    2.2700 C.2   230  ARG230      0.2260
    114  O        -16.8260  -51.6420    1.9720 O.2   230  ARG230     -0.2867
    115  CB       -14.9940  -50.6970    3.9890 C.3   230  ARG230      0.0307
    116  CG       -14.4940  -50.4080    5.3370 C.3   230  ARG230      0.0489
    117  CD       -12.9880  -50.5770    5.4870 C.3   230  ARG230      0.2205
    118  NE       -12.9090  -49.8750    6.7000 N.pl3 230  ARG230     -0.0865
    119  CZ       -12.4890  -48.6530    6.8770 C.cat 230  ARG230      0.5346
    120  NH1      -11.8050  -47.9730    5.9360 N.pl3 230  ARG230      0.1354
    121  NH2      -12.6860  -48.1480    8.0840 N.pl3 230  ARG230      0.1354
    122  N         -6.0730  -33.7550   12.9630 N.3   357  ARG357     -0.1245
    123  CA        -7.4590  -33.7000   12.4480 C.3   357  ARG357      0.1563
    124  C         -8.3530  -34.4200   13.4220 C.2   357  ARG357      0.2260
    125  O         -8.0960  -35.5650   13.8040 O.2   357  ARG357     -0.2867
    126  CB        -7.5660  -34.3090   11.0430 C.3   357  ARG357      0.0307
    127  CG        -8.9540  -34.3790   10.4270 C.3   357  ARG357      0.0489
    128  CD        -8.9450  -35.1370    9.1050 C.3   357  ARG357      0.2205
    129  NE        -8.6810  -36.5360    9.3180 N.pl3 357  ARG357     -0.0865
    130  CZ        -8.8200  -37.4880    8.3970 C.cat 357  ARG357      0.5346
    131  NH1       -9.1440  -37.2380    7.1230 N.pl3 357  ARG357      0.1354
    132  NH2       -8.5700  -38.7230    8.7180 N.pl3 357  ARG357      0.1354
@<TRIPOS>BOND
     1    26    25    2
     2    25    24    1
     3    24    23    1
     4    24    27    1
     5    27    28    1
     6    44    43    2
     7    43    42    1
     8    20    19    2
     9    42    41    1
    10    42    45    1
    11    29    28    2
    12    28    30   am
    13    19    18    1
    14    45    46    1
    15    62    63    1
    16    48    46   ar
    17    48    50   ar
    18    46    47   ar
    19    16    15    2
    20    18    21    1
    21    18    17    1
    22    50    49   ar
    23    63    66    1
    24    63    64    1
    25    66    67    1
    26    21    22    1
    27    47    49   ar
    28    10     9    2
    29    15    17   am
    30    15    14    1
    31    69    67   ar
    32    67    68   ar
    33    34    33    2
    34    12    11    1
    35     7     8    1
    36    64    65    2
    37     9     8    1
    38     9    13   am
    39    14    13    1
    40    33    32    1
    41    37    39   ar
    42    37    36   ar
    43     8    11    1
    44    39    40   ar
    45    31    32    1
    46    35    32    1
    47    35    36    1
    48    36    38   ar
    49    85    86    1
    50    51    52    1
    51    70    71    1
    52    40    38   ar
    53    86    87    1
    54    86    89    1
    55    52    55    1
    56    52    53    1
    57    74    71    1
    58    91    89    1
    59    71    72    1
    60    87    88    2
    61    89    90    1
    62    53    54    2
    63    53    56   am
    64   114   113    2
    65    61    60    1
    66    56    57    1
    67    72    75   am
    68    72    73    2
    69   113   112    1
    70    75    76    1
    71   100    98   ar
    72   100   101   ar
    73   110   109    1
    74    60    57    1
    75    98    97   ar
    76    57    58    1
    77   112   115    1
    78   112   111    1
    79   101    99   ar
    80    92    93    1
    81    76    79    1
    82    76    77    1
    83   109   108    1
    84   115   116    1
    85    82    80   ar
    86    82    84   ar
    87    79    80    1
    88    77    78    2
    89    58    59    2
    90    97    99   ar
    91    97    96    1
    92   108   107    1
    93    80    81   ar
    94    84    83   ar
    95    93    96    1
    96    93    94    1
    97   116   117    1
    98   107   106    1
    99   117   118    1
   100   102    94   am
   101   102   103    1
   102   120   119    1
   103   106   103    1
   104    81    83   ar
   105    94    95    2
   106   118   119    2
   107   103   104    1
   108   119   121    1
   109   131   130    1
   110   104   105    2
   111     5     6    1
   112     5     2    1
   113     4     3    2
   114   130   132    1
   115   130   129    2
   116     2     3    1
   117     2     1    1
   118   128   129    1
   119   128   127    1
   120   127   126    1
   121   126   123    1
   122   123   122    1
   123   123   124    1
   124   124   125    2
