@<TRIPOS>MOLECULE
tmp/4wxiA00.pdb
 193 190 0 0 0
SMALL
GASTEIGER

@<TRIPOS>ATOM
      1  N         49.5720  -27.0740   37.3760 N.3    26  ARG26      -0.1231
      2  CA        49.3230  -25.7080   36.9650 C.3    26  ARG26       0.1694
      3  C         47.8680  -25.3950   37.2250 C.2    26  ARG26       0.2592
      4  O         47.0340  -26.3060   37.2210 O.2    26  ARG26      -0.2718
      5  CB        49.6280  -25.5170   35.4560 C.3    26  ARG26       0.0321
      6  CG        49.2080  -26.6750   34.5390 C.3    26  ARG26       0.0489
      7  CD        48.9240  -26.2760   33.0960 C.3    26  ARG26       0.2205
      8  NE        50.0150  -25.4990   32.4960 N.pl3  26  ARG26      -0.0865
      9  CZ        49.9100  -24.7840   31.3780 C.cat  26  ARG26       0.5346
     10  NH1       48.7600  -24.7380   30.7130 N.pl3  26  ARG26       0.1354
     11  NH2       50.9550  -24.1070   30.9170 N.pl3  26  ARG26       0.1354
     12  N         47.5460  -24.1030   37.3940 N.am   27  HIS27      -0.1962
     13  CA        46.1610  -23.6520   37.4870 C.3    27  HIS27       0.1787
     14  C         45.4850  -23.9770   36.1240 C.2    27  HIS27       0.2620
     15  O         46.1080  -23.7990   35.0660 O.2    27  HIS27      -0.2715
     16  CB        46.1200  -22.1510   37.8200 C.3    27  HIS27       0.0785
     17  CG        44.8410  -21.4410   37.4760 C.ar   27  HIS27       0.0821
     18  ND1       43.8660  -21.2120   38.4300 N.ar   27  HIS27      -0.2267
     19  CD2       44.4470  -20.8850   36.3010 C.ar   27  HIS27       0.1154
     20  CE1       42.9150  -20.5320   37.8130 C.ar   27  HIS27       0.1986
     21  NE2       43.2110  -20.3310   36.5230 N.ar   27  HIS27      -0.2212
     22  N         44.2410  -24.4920   36.1650 N.am   28  LEU28      -0.1963
     23  CA        43.4580  -24.8310   34.9720 C.3    28  LEU28       0.1728
     24  C         42.2700  -23.8490   34.7680 C.2    28  LEU28       0.2616
     25  O         42.0630  -23.2990   33.6730 O.2    28  LEU28      -0.2715
     26  CB        42.9260  -26.2620   35.1410 C.3    28  LEU28       0.0311
     27  CG        42.1920  -26.8880   33.9660 C.3    28  LEU28       0.0022
     28  CD1       43.1600  -27.2030   32.8220 C.3    28  LEU28       0.0001
     29  CD2       41.4540  -28.1120   34.4050 C.3    28  LEU28       0.0001
     30  N         41.4860  -23.6600   35.8440 N.am   29  CYS29      -0.1968
     31  CA        40.2550  -22.9040   35.8370 C.3    29  CYS29       0.1712
     32  C         39.9680  -22.3250   37.2090 C.2    29  CYS29       0.2296
     33  O         40.5360  -22.7470   38.2230 O.2    29  CYS29      -0.2864
     34  CB        39.1150  -23.8430   35.4200 C.3    29  CYS29       0.0983
     35  SG        38.8520  -23.9650   33.6310 S.3    29  CYS29      -0.0798
     36  N         33.7310  -26.7050   29.9160 N.3    44  HIS44      -0.1226
     37  CA        34.8520  -26.6630   28.9600 C.3    44  HIS44       0.1752
     38  C         36.2170  -26.8990   29.6250 C.2    44  HIS44       0.2596
     39  O         37.1500  -27.3570   28.9650 O.2    44  HIS44      -0.2718
     40  CB        34.8300  -25.3940   28.0910 C.3    44  HIS44       0.0759
     41  CG        35.2210  -24.1510   28.8140 C.ar   44  HIS44       0.0818
     42  ND1       34.2780  -23.2090   29.1950 N.ar   44  HIS44      -0.2268
     43  CD2       36.4390  -23.7420   29.2370 C.ar   44  HIS44       0.1154
     44  CE1       34.9500  -22.2610   29.8280 C.ar   44  HIS44       0.1986
     45  NE2       36.2500  -22.5530   29.9020 N.ar   44  HIS44      -0.2212
     46  N         36.3220  -26.6100   30.9250 N.am   45  CYS45      -0.1970
     47  CA        37.5370  -26.8030   31.7240 C.3    45  CYS45       0.1712
     48  C         38.0730  -28.2220   31.6430 C.2    45  CYS45       0.2296
     49  O         39.2730  -28.4240   31.8090 O.2    45  CYS45      -0.2864
     50  CB        37.2530  -26.4350   33.1720 C.3    45  CYS45       0.0983
     51  SG        36.9610  -24.6820   33.4290 S.3    45  CYS45      -0.0798
     52  N         37.8420  -30.4470   29.0170 N.3    47  TYR47      -0.1241
     53  CA        38.1350  -30.9510   27.6880 C.3    47  TYR47       0.1605
     54  C         39.2610  -32.0270   27.6680 C.2    47  TYR47       0.2264
     55  O         39.0630  -33.1230   27.1340 O.2    47  TYR47      -0.2867
     56  CB        38.3960  -29.8220   26.6760 C.3    47  TYR47       0.0534
     57  CG        38.7460  -30.3830   25.3190 C.ar   47  TYR47      -0.0201
     58  CD1       37.7510  -30.8000   24.4400 C.ar   47  TYR47      -0.0009
     59  CD2       40.0760  -30.5820   24.9450 C.ar   47  TYR47      -0.0009
     60  CE1       38.0660  -31.3420   23.1980 C.ar   47  TYR47       0.0417
     61  CE2       40.4040  -31.1620   23.7210 C.ar   47  TYR47       0.0417
     62  CZ        39.3930  -31.5410   22.8500 C.ar   47  TYR47       0.1957
     63  OH        39.6990  -32.0840   21.6270 O.3    47  TYR47      -0.2866
     64  N         44.9970  -14.2070   32.6090 N.3   134  TYR134     -0.1241
     65  CA        45.8380  -13.2080   31.9410 C.3   134  TYR134      0.1605
     66  C         45.2760  -11.8070   32.1000 C.2   134  TYR134      0.2264
     67  O         44.0690  -11.6430   32.2400 O.2   134  TYR134     -0.2867
     68  CB        45.9060  -13.5070   30.4350 C.3   134  TYR134      0.0534
     69  CG        46.6370  -14.7460   29.9830 C.ar  134  TYR134     -0.0201
     70  CD1       47.0260  -15.7280   30.8930 C.ar  134  TYR134     -0.0009
     71  CD2       46.9000  -14.9660   28.6350 C.ar  134  TYR134     -0.0009
     72  CE1       47.6530  -16.9020   30.4650 C.ar  134  TYR134      0.0417
     73  CE2       47.5200  -16.1330   28.1960 C.ar  134  TYR134      0.0417
     74  CZ        47.9090  -17.0920   29.1130 C.ar  134  TYR134      0.1957
     75  OH        48.5320  -18.2310   28.6520 O.3   134  TYR134     -0.2866
     76  N         50.7830  -14.5440   31.3320 N.3   140  LYS140     -0.1231
     77  CA        50.7990  -15.7760   32.0900 C.3   140  LYS140      0.1693
     78  C         49.7450  -15.7020   33.1740 C.2   140  LYS140      0.2591
     79  O         49.1090  -14.6460   33.3370 O.2   140  LYS140     -0.2718
     80  CB        52.2220  -16.0820   32.6460 C.3   140  LYS140      0.0285
     81  CG        52.9990  -14.8880   33.1660 C.3   140  LYS140      0.0035
     82  CD        53.1860  -14.9760   34.6560 C.3   140  LYS140      0.0206
     83  CE        53.0080  -13.6450   35.3470 C.3   140  LYS140      0.1093
     84  NZ        52.7670  -13.8370   36.7970 N.3   140  LYS140     -0.1314
     85  N         49.5170  -16.8350   33.8830 N.am  141  ILE141     -0.1980
     86  CA        48.5850  -16.8670   35.0180 C.3   141  ILE141      0.1595
     87  C         49.1650  -15.9410   36.0930 C.2   141  ILE141      0.2287
     88  O         50.3840  -15.9490   36.3380 O.2   141  ILE141     -0.2864
     89  CB        48.3490  -18.3340   35.5180 C.3   141  ILE141      0.0276
     90  CG1       47.5980  -19.1790   34.4580 C.3   141  ILE141      0.0022
     91  CG2       47.7060  -18.4350   36.9280 C.3   141  ILE141      0.0022
     92  CD1       46.2950  -18.5510   33.8500 C.3   141  ILE141      0.0001
     93  N         37.6730   -6.8560   31.5550 N.3   182  ASP182     -0.1225
     94  CA        37.0440   -8.1490   31.2070 C.3   182  ASP182      0.1805
     95  C         37.7930   -9.3440   31.8300 C.2   182  ASP182      0.2598
     96  O         38.8990   -9.2000   32.3430 O.2   182  ASP182     -0.2718
     97  CB        37.0470   -8.3250   29.6540 C.3   182  ASP182      0.1424
     98  CG        36.1270   -9.3740   29.0200 C.2   182  ASP182      0.3668
     99  OD1       35.3270  -10.0230   29.7740 O.co2 182  ASP182     -0.2456
    100  OD2       36.1780   -9.5300   27.7710 O.co2 182  ASP182     -0.2456
    101  N         37.1880  -10.5280   31.7250 N.am  183  ALA183     -0.1966
    102  CA        37.7960  -11.8010   32.0740 C.3   183  ALA183      0.1728
    103  C         38.7470  -12.1310   30.9010 C.2   183  ALA183      0.2616
    104  O         38.5610  -11.6170   29.8060 O.2   183  ALA183     -0.2715
    105  CB        36.7210  -12.8860   32.2020 C.3   183  ALA183      0.0334
    106  N         39.7740  -12.9260   31.1380 N.am  184  CYS184     -0.1954
    107  CA        40.6910  -13.3270   30.0890 C.3   184  CYS184      0.1843
    108  C         41.1410  -14.7880   30.3170 C.2   184  CYS184      0.2625
    109  O         40.6820  -15.4230   31.2680 O.2   184  CYS184     -0.2714
    110  CB        41.8650  -12.3510   29.9890 C.3   184  CYS184      0.0997
    111  SG        42.7770  -12.4270   28.4210 S.3   184  CYS184     -0.0797
    112  N         41.9920  -15.3280   29.4370 N.am  185  LYS185     -0.1963
    113  CA        42.5180  -16.7000   29.5130 C.3   185  LYS185      0.1728
    114  C         42.9440  -17.1110   30.9200 C.2   185  LYS185      0.2616
    115  O         43.8140  -16.4680   31.5090 O.2   185  LYS185     -0.2715
    116  CB        43.6540  -16.8950   28.5010 C.3   185  LYS185      0.0311
    117  CG        43.1440  -16.8950   27.0860 C.3   185  LYS185      0.0038
    118  CD        44.2320  -16.5180   26.0940 C.3   185  LYS185      0.0206
    119  CE        43.8970  -17.0210   24.7140 C.3   185  LYS185      0.1093
    120  NZ        45.0980  -17.5250   24.0200 N.3   185  LYS185     -0.1314
    121  N         42.2780  -18.1300   31.4650 N.am  186  GLY186     -0.1955
    122  CA        42.5430  -18.6320   32.8140 C.3   186  GLY186      0.1869
    123  C         41.5060  -18.2340   33.8450 C.2   186  GLY186      0.2309
    124  O         41.5720  -18.6880   34.9960 O.2   186  GLY186     -0.2863
    125  N         38.0840  -18.5560   33.1690 N.3   188  SER188     -0.1217
    126  CA        36.9250  -19.4100   32.9270 C.3   188  SER188      0.1889
    127  C         36.6390  -20.3830   34.0740 C.2   188  SER188      0.2288
    128  O         37.5740  -20.7970   34.7730 O.2   188  SER188     -0.2866
    129  CB        36.9950  -20.0730   31.5590 C.3   188  SER188      0.2089
    130  OG        38.0420  -21.0250   31.4890 O.3   188  SER188     -0.2183
    131  N         32.1670  -17.6240   34.2600 N.3   206  THR206     -0.1203
    132  CA        32.9850  -17.1470   33.1360 C.3   206  THR206      0.1994
    133  C         33.1030  -18.2640   32.1070 C.2   206  THR206      0.2619
    134  O         33.5990  -19.3360   32.4090 O.2   206  THR206     -0.2717
    135  CB        34.3190  -16.6300   33.6600 C.3   206  THR206      0.1784
    136  OG1       34.0520  -15.6430   34.6620 O.3   206  THR206     -0.2211
    137  CG2       35.1880  -16.0550   32.5690 C.3   206  THR206      0.0376
    138  N         32.5830  -18.0180   30.9110 N.am  207  SER207     -0.1937
    139  CA        32.5190  -19.0260   29.8620 C.3   207  SER207      0.2055
    140  C         33.3800  -18.7110   28.6150 C.2   207  SER207      0.2643
    141  O         34.4090  -19.3590   28.4150 O.2   207  SER207     -0.2714
    142  CB        31.0590  -19.3100   29.5010 C.3   207  SER207      0.2130
    143  OG        30.9280  -20.3960   28.6050 O.3   207  SER207     -0.2179
    144  N         32.9430  -17.7610   27.7640 N.am  208  TRP208     -0.1959
    145  CA        33.6900  -17.4610   26.5340 C.3   208  TRP208      0.1771
    146  C         33.5850  -15.9860   26.0890 C.2   208  TRP208      0.2620
    147  O         32.9430  -15.1680   26.7560 O.2   208  TRP208     -0.2715
    148  CB        33.2460  -18.4450   25.4080 C.3   208  TRP208      0.0590
    149  CG        31.8010  -18.2860   25.0110 C.ar  208  TRP208      0.0006
    150  CD1       30.7090  -18.7640   25.6760 C.ar  208  TRP208      0.0946
    151  CD2       31.2980  -17.5290   23.8990 C.ar  208  TRP208      0.0152
    152  NE1       29.5570  -18.3520   25.0480 N.ar  208  TRP208     -0.2442
    153  CE2       29.8880  -17.5870   23.9580 C.ar  208  TRP208      0.0810
    154  CE3       31.9050  -16.7830   22.8640 C.ar  208  TRP208      0.0012
    155  CZ2       29.0780  -16.9890   22.9900 C.ar  208  TRP208      0.0191
    156  CZ3       31.0970  -16.1530   21.9310 C.ar  208  TRP208      0.0001
    157  CH2       29.7050  -16.2810   21.9830 C.ar  208  TRP208      0.0015
    158  N         34.2010  -15.6780   24.9530 N.am  209  GLY209     -0.1954
    159  CA        34.1710  -14.3610   24.3320 C.3   209  GLY209      0.1869
    160  C         35.1090  -14.2990   23.1490 C.2   209  GLY209      0.2309
    161  O         35.9190  -15.2140   22.9420 O.2   209  GLY209     -0.2863
    162  N         38.1670  -12.7100   22.0710 N.3   211  GLY211     -0.1210
    163  CA        39.3140  -12.0160   22.6570 C.3   211  GLY211      0.1956
    164  C         39.0690  -11.6090   24.0980 C.2   211  GLY211      0.2612
    165  O         38.1260  -12.0940   24.7250 O.2   211  GLY211     -0.2717
    166  N         39.9090  -10.7150   24.6330 N.am  212  CYS212     -0.1970
    167  CA        39.7950  -10.1970   26.0070 C.3   212  CYS212      0.1712
    168  C         39.6550   -8.6860   25.9640 C.2   212  CYS212      0.2296
    169  O         40.5110   -8.0310   25.3670 O.2   212  CYS212     -0.2864
    170  CB        41.0160  -10.5820   26.8390 C.3   212  CYS212      0.0983
    171  SG        41.3160  -12.3600   26.9810 S.3   212  CYS212     -0.0798
    172  N         32.6540   -6.3040   22.4840 N.3   217  ARG217     -0.1245
    173  CA        32.7470   -7.7590   22.6010 C.3   217  ARG217      0.1563
    174  C         32.6700   -8.1030   24.0760 C.2   217  ARG217      0.2260
    175  O         33.7090   -8.3010   24.7070 O.2   217  ARG217     -0.2867
    176  CB        34.0270   -8.3380   21.9440 C.3   217  ARG217      0.0307
    177  CG        34.1320   -8.1650   20.4190 C.3   217  ARG217      0.0489
    178  CD        33.0840   -8.9380   19.6300 C.3   217  ARG217      0.2205
    179  NE        33.5510   -9.1560   18.2620 N.pl3 217  ARG217     -0.0865
    180  CZ        33.0300  -10.0360   17.4170 C.cat 217  ARG217      0.5346
    181  NH1       32.0110  -10.7970   17.7850 N.pl3 217  ARG217      0.1354
    182  NH2       33.5320  -10.1670   16.1950 N.pl3 217  ARG217      0.1354
    183  N         32.0990  -10.2130   27.6160 N.3   219  GLY219     -0.1210
    184  CA        32.3630  -11.5600   28.0720 C.3   219  GLY219      0.1956
    185  C         31.0370  -12.2770   28.1930 C.2   219  GLY219      0.2611
    186  O         30.0610  -11.6710   28.6300 O.2   219  GLY219     -0.2717
    187  N         30.9860  -13.5570   27.7770 N.am  220  VAL220     -0.1979
    188  CA        29.7820  -14.3850   27.8430 C.3   220  VAL220      0.1595
    189  C         29.9440  -15.3950   28.9590 C.2   220  VAL220      0.2287
    190  O         30.9970  -16.0440   29.0770 O.2   220  VAL220     -0.2864
    191  CB        29.3920  -15.0230   26.5040 C.3   220  VAL220      0.0276
    192  CG1       28.0190  -15.6620   26.6130 C.3   220  VAL220      0.0022
    193  CG2       29.4340  -13.9900   25.3620 C.3   220  VAL220      0.0022
@<TRIPOS>BOND
     1   182   180    1
     2   180   181    1
     3   180   179    2
     4   179   178    1
     5   178   177    1
     6   177   176    1
     7    63    62    1
     8   156   157   ar
     9   156   154   ar
    10   176   173    1
    11   157   155   ar
    12   162   163    1
    13   172   173    1
    14   173   174    1
    15   163   164    1
    16    62    60   ar
    17    62    61   ar
    18   154   151   ar
    19   161   160    2
    20   155   153   ar
    21   160   159    1
    22    60    58   ar
    23    61    59   ar
    24   151   153   ar
    25   151   149   ar
    26   153   152   ar
    27   120   119    1
    28   174   175    2
    29   164   166   am
    30   164   165    2
    31   159   158    1
    32    58    57   ar
    33   166   167    1
    34   119   118    1
    35    59    57   ar
    36   158   146   am
    37   149   148    1
    38   149   150   ar
    39   152   150   ar
    40    57    56    1
    41   193   191    1
    42   169   168    2
    43   148   145    1
    44   168   167    1
    45   167   170    1
    46   146   145    1
    47   146   147    2
    48   118   117    1
    49   191   192    1
    50   191   188    1
    51   145   144    1
    52    56    53    1
    53   170   171    1
    54   171   111    1
    55   117   116    1
    56    55    54    2
    57   183   184    1
    58    54    53    1
    59    53    52    1
    60   144   140   am
    61   100    98   ar
    62   187   188    1
    63   187   185   am
    64   188   189    1
    65   184   185    1
    66    40    41    1
    67    40    37    1
    68   185   186    2
    69    73    71   ar
    70    73    74   ar
    71   141   140    2
    72   111   110    1
    73   116   113    1
    74   143   142    1
    75   140   139    1
    76    71    69   ar
    77    75    74    1
    78    41    42   ar
    79    41    43   ar
    80   189   190    2
    81    37    38    1
    82    37    36    1
    83    39    38    2
    84    98    97    1
    85    98    99   ar
    86    74    72   ar
    87    42    44   ar
    88    43    45   ar
    89   112   113    1
    90   112   108   am
    91   142   139    1
    92   113   114    1
    93    38    46   am
    94    97    94    1
    95   104   103    2
    96    44    45   ar
    97   139   138    1
    98    69    68    1
    99    69    70   ar
   100   110   107    1
   101   107   108    1
   102   107   106    1
   103   108   109    2
   104    68    65    1
   105    72    70   ar
   106    10     9    1
   107   103   106   am
   108   103   102    1
   109   138   133   am
   110    11     9    1
   111   114   121   am
   112   114   115    2
   113    46    47    1
   114    94    93    1
   115    94    95    1
   116    76    77    1
   117     9     8    2
   118   121   122    1
   119   130   129    1
   120   129   126    1
   121    48    47    1
   122    48    49    2
   123    47    50    1
   124   101    95   am
   125   101   102    1
   126    95    96    2
   127    65    66    1
   128    65    64    1
   129   102   105    1
   130    77    80    1
   131    77    78    1
   132    66    67    2
   133   133   134    2
   134   133   132    1
   135     8     7    1
   136   137   135    1
   137    80    81    1
   138   122   123    1
   139    28    27    1
   140   126   125    1
   141   126   127    1
   142     7     6    1
   143   132   135    1
   144   132   131    1
   145    81    82    1
   146    50    51    1
   147    78    79    2
   148    78    85   am
   149    51    35    1
   150    35    34    1
   151   135   136    1
   152    25    24    2
   153   123   124    2
   154    92    90    1
   155    85    86    1
   156    27    29    1
   157    27    26    1
   158   127   128    2
   159    90    89    1
   160     6     5    1
   161    82    83    1
   162    24    23    1
   163    24    30   am
   164    23    26    1
   165    23    22    1
   166    86    89    1
   167    86    87    1
   168    15    14    2
   169    83    84    1
   170    34    31    1
   171     5     2    1
   172    89    91    1
   173    31    30    1
   174    31    32    1
   175    87    88    2
   176    14    22   am
   177    14    13    1
   178    19    21   ar
   179    19    17   ar
   180    21    20   ar
   181     2     3    1
   182     2     1    1
   183    32    33    2
   184     4     3    2
   185     3    12   am
   186    12    13    1
   187    17    16    1
   188    17    18   ar
   189    13    16    1
   190    20    18   ar
