@<TRIPOS>MOLECULE
tmp/4wxjB00.pdb
 122 116 0 0 0
SMALL
GASTEIGER

@<TRIPOS>ATOM
      1  N         57.7670   -2.3630   10.7220 N.3    57  TYR57      -0.1241
      2  CA        58.0260   -2.0100   12.1110 C.3    57  TYR57       0.1605
      3  C         59.3460   -2.6170   12.5710 C.2    57  TYR57       0.2264
      4  O         60.2590   -1.9060   12.9960 O.2    57  TYR57      -0.2867
      5  CB        56.8920   -2.4980   13.0170 C.3    57  TYR57       0.0534
      6  CG        55.5710   -1.7870   12.8320 C.ar   57  TYR57      -0.0201
      7  CD1       54.6610   -2.2040   11.8700 C.ar   57  TYR57      -0.0009
      8  CD2       55.2240   -0.7120   13.6380 C.ar   57  TYR57      -0.0009
      9  CE1       53.4440   -1.5590   11.7090 C.ar   57  TYR57       0.0417
     10  CE2       54.0130   -0.0610   13.4830 C.ar   57  TYR57       0.0417
     11  CZ        53.1270   -0.4900   12.5180 C.ar   57  TYR57       0.1957
     12  OH        51.9210    0.1520   12.3640 O.3    57  TYR57      -0.2866
     13  N         54.1880    4.1930   15.7060 N.3    85  ASP85      -0.1225
     14  CA        53.4730    3.3720   16.6790 C.3    85  ASP85       0.1805
     15  C         54.3170    2.1360   16.9590 C.2    85  ASP85       0.2598
     16  O         53.9570    1.0200   16.5860 O.2    85  ASP85      -0.2718
     17  CB        52.0750    2.9820   16.1880 C.3    85  ASP85       0.1424
     18  CG        52.0670    2.4560   14.7670 C.2    85  ASP85       0.3668
     19  OD1       52.9070    2.9010   13.9540 O.co2  85  ASP85      -0.2456
     20  OD2       51.2100    1.5970   14.4670 O.co2  85  ASP85      -0.2456
     21  N         55.4530    2.3600   17.6130 N.am   86  LEU86      -0.1966
     22  CA        56.4500    1.3190   17.8200 C.3    86  LEU86       0.1728
     23  C         56.3050    0.7230   19.2130 C.2    86  LEU86       0.2616
     24  O         56.6840    1.3350   20.2130 O.2    86  LEU86      -0.2715
     25  CB        57.8580    1.8830   17.6190 C.3    86  LEU86       0.0311
     26  CG        59.0020    0.8710   17.5380 C.3    86  LEU86       0.0022
     27  CD1       58.8000   -0.1160   16.3930 C.3    86  LEU86       0.0001
     28  CD2       60.3250    1.6060   17.3780 C.3    86  LEU86       0.0001
     29  N         55.7470   -0.4780   19.2630 N.am   87  THR87      -0.1951
     30  CA        55.4120   -1.1270   20.5210 C.3    87  THR87       0.1897
     31  C         56.6160   -1.8330   21.1330 C.2    87  THR87       0.2313
     32  O         57.3630   -2.5210   20.4380 O.2    87  THR87      -0.2863
     33  CB        54.2820   -2.1430   20.3160 C.3    87  THR87       0.1794
     34  OG1       53.1740   -1.4950   19.6760 O.3    87  THR87      -0.2208
     35  CG2       53.8290   -2.7420   21.6470 C.3    87  THR87       0.0378
     36  N         62.2990   -7.1420   20.8260 N.3    92  ARG92      -0.1245
     37  CA        62.8670   -5.8730   20.3840 C.3    92  ARG92       0.1563
     38  C         63.7920   -5.2800   21.4370 C.2    92  ARG92       0.2260
     39  O         64.8890   -4.8220   21.1200 O.2    92  ARG92      -0.2867
     40  CB        61.7570   -4.8810   20.0470 C.3    92  ARG92       0.0307
     41  CG        61.0080   -5.2300   18.7780 C.3    92  ARG92       0.0489
     42  CD        59.8260   -4.3130   18.5570 C.3    92  ARG92       0.2205
     43  NE        59.1040   -4.6450   17.3330 N.pl3  92  ARG92      -0.0865
     44  CZ        57.9550   -4.0880   16.9680 C.cat  92  ARG92       0.5346
     45  NH1       57.3820   -3.1700   17.7350 N.pl3  92  ARG92       0.1354
     46  NH2       57.3730   -4.4540   15.8350 N.pl3  92  ARG92       0.1354
     47  N         48.6220   -7.9280   12.1160 N.3   134  ILE134     -0.1245
     48  CA        49.7530   -7.5800   11.2730 C.3   134  ILE134      0.1561
     49  C         50.8490   -8.6220   11.4610 C.2   134  ILE134      0.2260
     50  O         51.2450   -8.9220   12.5900 O.2   134  ILE134     -0.2867
     51  CB        50.2950   -6.1780   11.6000 C.3   134  ILE134      0.0252
     52  CG1       49.2640   -5.1200   11.2070 C.3   134  ILE134      0.0019
     53  CG2       51.6170   -5.9240   10.8710 C.3   134  ILE134      0.0019
     54  CD1       49.5660   -3.7310   11.7400 C.3   134  ILE134      0.0001
     55  N         53.8860   -8.1360   13.7110 N.3   137  GLY137     -0.1210
     56  CA        53.5760   -6.9860   14.5420 C.3   137  GLY137      0.1956
     57  C         53.4920   -7.3540   16.0100 C.2   137  GLY137      0.2612
     58  O         53.5000   -8.5330   16.3660 O.2   137  GLY137     -0.2717
     59  N         53.4040   -6.3420   16.8660 N.am  138  ALA138     -0.1965
     60  CA        53.3890   -6.5580   18.3080 C.3   138  ALA138      0.1728
     61  C         52.0920   -7.2070   18.7830 C.2   138  ALA138      0.2616
     62  O         52.0620   -7.8440   19.8360 O.2   138  ALA138     -0.2715
     63  CB        53.6060   -5.2430   19.0320 C.3   138  ALA138      0.0334
     64  N         51.0190   -7.0410   18.0200 N.am  139  THR139     -0.1951
     65  CA        49.7420   -7.6380   18.3940 C.3   139  THR139      0.1897
     66  C         49.8000   -9.1520   18.2090 C.2   139  THR139      0.2313
     67  O         49.1650   -9.8960   18.9530 O.2   139  THR139     -0.2863
     68  CB        48.5780   -7.0510   17.5760 C.3   139  THR139      0.1794
     69  OG1       48.4660   -5.6490   17.8510 O.3   139  THR139     -0.2208
     70  CG2       47.2580   -7.7290   17.9370 C.3   139  THR139      0.0378
     71  N         48.3320   -1.7810    9.1400 N.3   170  ASN170     -0.1240
     72  CA        47.0220   -1.3390    9.6060 C.3   170  ASN170      0.1653
     73  C         46.0790   -1.0210    8.4480 C.2   170  ASN170      0.2266
     74  O         44.8920   -1.3370    8.5040 O.2   170  ASN170     -0.2867
     75  CB        47.1570   -0.1110   10.5090 C.3   170  ASN170      0.1155
     76  CG        47.7470   -0.4440   11.8660 C.2   170  ASN170      0.2627
     77  OD1       48.7580    0.1290   12.2740 O.2   170  ASN170     -0.2716
     78  ND2       47.1140   -1.3710   12.5740 N.am  170  ASN170     -0.0877
     79  N         39.5870   -7.6240   12.5050 N.3   186  PHE186     -0.1227
     80  CA        40.9980   -7.2770   12.6040 C.3   186  PHE186      0.1736
     81  C         41.3750   -6.9950   14.0530 C.2   186  PHE186      0.2595
     82  O         40.8020   -6.1150   14.6960 O.2   186  PHE186     -0.2718
     83  CB        41.3000   -6.0650   11.7140 C.3   186  PHE186      0.0547
     84  CG        42.7630   -5.7260   11.6050 C.ar  186  PHE186     -0.0202
     85  CD1       43.7000   -6.7020   11.3100 C.ar  186  PHE186     -0.0042
     86  CD2       43.1930   -4.4210   11.7630 C.ar  186  PHE186     -0.0042
     87  CE1       45.0420   -6.3830   11.2000 C.ar  186  PHE186     -0.0003
     88  CE2       44.5310   -4.0970   11.6510 C.ar  186  PHE186     -0.0003
     89  CZ        45.4560   -5.0800   11.3690 C.ar  186  PHE186     -0.0000
     90  N         42.3280   -7.7690   14.5610 N.am  187  LEU187     -0.1966
     91  CA        42.8620   -7.5680   15.9010 C.3   187  LEU187      0.1728
     92  C         43.9840   -6.5430   15.8430 C.2   187  LEU187      0.2616
     93  O         44.9940   -6.7550   15.1700 O.2   187  LEU187     -0.2715
     94  CB        43.3630   -8.8910   16.4770 C.3   187  LEU187      0.0311
     95  CG        42.2710   -9.8940   16.8480 C.3   187  LEU187      0.0022
     96  CD1       42.8140  -11.3120   16.8110 C.3   187  LEU187      0.0001
     97  CD2       41.7130   -9.5700   18.2210 C.3   187  LEU187      0.0001
     98  N         43.8010   -5.4300   16.5450 N.am  188  MET188     -0.1963
     99  CA        44.7170   -4.3040   16.4280 C.3   188  MET188      0.1736
    100  C         44.7960   -3.4880   17.7080 C.2   188  MET188      0.2616
    101  O         44.0270   -3.6950   18.6470 O.2   188  MET188     -0.2715
    102  CB        44.2840   -3.3980   15.2760 C.3   188  MET188      0.0427
    103  CG        42.9530   -2.7030   15.5180 C.3   188  MET188      0.0599
    104  SD        42.2550   -1.9550   14.0340 S.3   188  MET188     -0.1393
    105  CE        43.5670   -0.8260   13.5690 C.3   188  MET188      0.0692
    106  N         45.7270   -2.5430   17.7200 N.am  189  GLU189     -0.1977
    107  CA        45.9390   -1.6820   18.8710 C.3   189  GLU189      0.1602
    108  C         44.8690   -0.5950   18.9510 C.2   189  GLU189      0.2287
    109  O         44.4100   -0.0830   17.9300 O.2   189  GLU189     -0.2864
    110  CB        47.3410   -1.0790   18.8030 C.3   189  GLU189      0.0415
    111  CG        48.4270   -2.1260   19.0250 C.3   189  GLU189      0.1163
    112  CD        49.8280   -1.6100   18.7710 C.2   189  GLU189      0.3649
    113  OE1       49.9750   -0.5920   18.0650 O.co2 189  GLU189     -0.2457
    114  OE2       50.7850   -2.2330   19.2790 O.co2 189  GLU189     -0.2457
    115  N         45.2450    2.8190   16.9670 N.3   192  ASN192     -0.1240
    116  CA        44.9910    2.7240   15.5400 C.3   192  ASN192      0.1653
    117  C         43.5300    2.4070   15.2540 C.2   192  ASN192      0.2266
    118  O         42.9690    2.8700   14.2610 O.2   192  ASN192     -0.2867
    119  CB        45.8960    1.6610   14.9180 C.3   192  ASN192      0.1155
    120  CG        47.3630    1.9670   15.1160 C.2   192  ASN192      0.2627
    121  OD1       47.7810    3.1200   15.0290 O.2   192  ASN192     -0.2716
    122  ND2       48.1540    0.9380   15.3960 N.am  192  ASN192     -0.0877
@<TRIPOS>BOND
     1    73    74    2
     2    73    72    1
     3    71    72    1
     4    72    75    1
     5    75    76    1
     6     1     2    1
     7    53    51    1
     8    87    85   ar
     9    87    89   ar
    10    52    51    1
    11    52    54    1
    12    48    49    1
    13    48    51    1
    14    48    47    1
    15    85    84   ar
    16    89    88   ar
    17    49    50    2
    18    84    83    1
    19    84    86   ar
    20    88    86   ar
    21     9     7   ar
    22     9    11   ar
    23    83    80    1
    24    76    77    2
    25    76    78   am
    26     7     6   ar
    27     2     3    1
    28     2     5    1
    29    12    11    1
    30    79    80    1
    31    11    10   ar
    32     3     4    2
    33    80    81    1
    34     6     5    1
    35     6     8   ar
    36    10     8   ar
    37   105   104    1
    38    55    56    1
    39    19    18   ar
    40   104   103    1
    41    81    90   am
    42    81    82    2
    43   118   117    2
    44    20    18   ar
    45    56    57    1
    46    90    91    1
    47    18    17    1
    48   119   120    1
    49   119   116    1
    50   121   120    2
    51   120   122   am
    52    93    92    2
    53   117   116    1
    54   102   103    1
    55   102    99    1
    56   116   115    1
    57    13    14    1
    58    46    44    1
    59    92    91    1
    60    92    98   am
    61    91    94    1
    62    57    58    2
    63    57    59   am
    64    17    14    1
    65    27    26    1
    66    99    98    1
    67    99   100    1
    68    94    95    1
    69    16    15    2
    70    14    15    1
    71    96    95    1
    72    95    97    1
    73    59    60    1
    74    15    21   am
    75    44    43    2
    76    44    45    1
    77    43    42    1
    78    28    26    1
    79    26    25    1
    80    68    69    1
    81    68    70    1
    82    68    65    1
    83    21    22    1
    84    25    22    1
    85   100   106   am
    86   100   101    2
    87   106   107    1
    88    22    23    1
    89   109   108    2
    90    64    65    1
    91    64    61   am
    92   113   112   ar
    93    66    65    1
    94    66    67    2
    95    60    61    1
    96    60    63    1
    97    42    41    1
    98   112   111    1
    99   112   114   ar
   100    41    40    1
   101    61    62    2
   102   110   107    1
   103   110   111    1
   104   107   108    1
   105    23    29   am
   106    23    24    2
   107    29    30    1
   108    34    33    1
   109    40    37    1
   110    33    30    1
   111    33    35    1
   112    37    36    1
   113    37    38    1
   114    32    31    2
   115    30    31    1
   116    39    38    2
