@<TRIPOS>MOLECULE
tmp/4wxlC01.pdb
 149 143 0 0 0
SMALL
GASTEIGER

@<TRIPOS>ATOM
      1  N        -15.9980   24.5930   62.8230 N.3    41  GLU41      -0.1231
      2  CA       -15.6560   26.0150   62.8690 C.3    41  GLU41       0.1699
      3  C        -16.8030   26.9060   63.3320 C.2    41  GLU41       0.2592
      4  O        -16.7220   28.1330   63.2480 O.2    41  GLU41      -0.2718
      5  CB       -15.1910   26.4640   61.4870 C.3    41  GLU41       0.0402
      6  CG       -14.0420   25.6230   60.9280 C.3    41  GLU41       0.1161
      7  CD       -12.6980   26.0020   61.5190 C.2    41  GLU41       0.3649
      8  OE1      -12.4450   27.2160   61.5670 O.co2  41  GLU41      -0.2457
      9  OE2      -11.9000   25.0960   61.9100 O.co2  41  GLU41      -0.2457
     10  N        -17.8480   26.2750   63.8510 N.am   42  LYS42      -0.1966
     11  CA       -19.1440   26.8980   64.1380 C.3    42  LYS42       0.1728
     12  C        -19.6320   27.8670   63.0610 C.2    42  LYS42       0.2617
     13  O        -19.9720   28.9800   63.3480 O.2    42  LYS42      -0.2715
     14  CB       -19.2030   27.5230   65.5570 C.3    42  LYS42       0.0311
     15  CG       -17.8980   27.6260   66.3380 C.3    42  LYS42       0.0038
     16  CD       -17.5070   26.3370   67.0400 C.3    42  LYS42       0.0206
     17  CE       -16.7440   26.6560   68.3080 C.3    42  LYS42       0.1093
     18  NZ       -15.8310   25.5550   68.7330 N.3    42  LYS42      -0.1314
     19  N        -19.6910   27.4300   61.8150 N.am   43  GLY43      -0.1940
     20  CA       -20.3010   28.2380   60.7710 C.3    43  GLY43       0.2014
     21  C        -21.7250   27.8220   60.4770 C.2    43  GLY43       0.2639
     22  O        -22.1450   26.7630   60.9180 O.2    43  GLY43      -0.2714
     23  N        -22.4710   28.6260   59.7110 N.am   44  ILE44      -0.1963
     24  CA       -23.8090   28.1710   59.2510 C.3    44  ILE44       0.1727
     25  C        -23.8750   27.8260   57.7760 C.2    44  ILE44       0.2616
     26  O        -24.8090   27.1740   57.3300 O.2    44  ILE44      -0.2715
     27  CB       -24.9720   29.1270   59.5900 C.3    44  ILE44       0.0290
     28  CG1      -24.6730   30.5430   59.1320 C.3    44  ILE44       0.0022
     29  CG2      -25.2790   29.0680   61.0830 C.3    44  ILE44       0.0023
     30  CD1      -25.8480   31.4800   59.3190 C.3    44  ILE44       0.0001
     31  N        -22.8850   28.2580   57.0180 N.am   45  GLY45      -0.1955
     32  CA       -22.8340   27.8930   55.6250 C.3    45  GLY45       0.1869
     33  C        -21.4230   27.5980   55.2230 C.2    45  GLY45       0.2309
     34  O        -20.4780   27.9470   55.9480 O.2    45  GLY45      -0.2863
     35  N        -13.9060   26.9750   49.9800 N.3    50  GLN50      -0.1245
     36  CA       -13.3920   27.2300   51.3100 C.3    50  GLN50       0.1566
     37  C        -12.6000   26.0420   51.8980 C.2    50  GLN50       0.2260
     38  O        -11.7420   26.2550   52.7670 O.2    50  GLN50      -0.2867
     39  CB       -14.5330   27.6370   52.2410 C.3    50  GLN50       0.0367
     40  CG       -15.2170   28.9590   51.8480 C.3    50  GLN50       0.0905
     41  CD       -16.2630   29.3620   52.8570 C.2    50  GLN50       0.2608
     42  OE1      -17.4430   29.0960   52.6660 O.2    50  GLN50      -0.2717
     43  NE2      -15.8330   29.9630   53.9640 N.am   50  GLN50      -0.0878
     44  N        -27.5510   42.2920   56.4060 N.3    86  ILE86      -0.1231
     45  CA       -27.1360   42.0720   57.7510 C.3    86  ILE86       0.1692
     46  C        -25.6220   42.0440   57.7030 C.2    86  ILE86       0.2592
     47  O        -25.0310   41.6510   56.6850 O.2    86  ILE86      -0.2718
     48  CB       -27.7350   40.7700   58.2760 C.3    86  ILE86       0.0266
     49  CG1      -27.9270   40.8810   59.7930 C.3    86  ILE86       0.0019
     50  CG2      -26.9140   39.5630   57.7790 C.3    86  ILE86       0.0020
     51  CD1      -27.5750   39.6340   60.5810 C.3    86  ILE86       0.0001
     52  N        -24.9930   42.4870   58.7830 N.am   87  GLU87      -0.1966
     53  CA       -23.5340   42.4650   58.8720 C.3    87  GLU87       0.1733
     54  C        -23.1380   41.0280   58.7970 C.2    87  GLU87       0.2616
     55  O        -23.3960   40.2920   59.7010 O.2    87  GLU87      -0.2715
     56  CB       -23.0610   43.0640   60.1760 C.3    87  GLU87       0.0429
     57  CG       -23.3250   44.5600   60.2740 C.3    87  GLU87       0.1163
     58  CD       -24.7420   44.9360   60.6610 C.2    87  GLU87       0.3649
     59  OE1      -25.5980   44.0750   60.9270 O.co2  87  GLU87      -0.2457
     60  OE2      -25.0070   46.1350   60.6810 O.co2  87  GLU87      -0.2457
     61  N        -22.6210   40.6120   57.6550 N.am   88  GLU88      -0.1963
     62  CA       -22.2950   39.2030   57.4000 C.3    88  GLU88       0.1733
     63  C        -20.8480   38.8960   57.7700 C.2    88  GLU88       0.2617
     64  O        -19.9470   39.7400   57.5190 O.2    88  GLU88      -0.2715
     65  CB       -22.3790   38.9240   55.9230 C.3    88  GLU88       0.0429
     66  CG       -23.7620   38.8090   55.4110 C.3    88  GLU88       0.1163
     67  CD       -23.7730   38.5850   53.9250 C.2    88  GLU88       0.3649
     68  OE1      -22.8780   37.8380   53.4300 O.co2  88  GLU88      -0.2457
     69  OE2      -24.6940   39.1130   53.2720 O.co2  88  GLU88      -0.2457
     70  N        -20.6340   37.6850   58.3040 N.am   89  GLY89      -0.1940
     71  CA       -19.3270   37.1380   58.5200 C.3    89  GLY89       0.2014
     72  C        -19.0710   35.8920   57.6620 C.2    89  GLY89       0.2639
     73  O        -19.9590   35.3830   57.0160 O.2    89  GLY89      -0.2714
     74  N        -17.8350   35.4140   57.7010 N.am   90  CYS90      -0.1953
     75  CA       -17.3110   34.3490   56.8510 C.3    90  CYS90       0.1843
     76  C        -16.1780   33.6650   57.5950 C.2    90  CYS90       0.2625
     77  O        -15.2550   34.3250   58.1530 O.2    90  CYS90      -0.2714
     78  CB       -16.7470   34.9480   55.5930 C.3    90  CYS90       0.0997
     79  SG       -16.3710   33.8260   54.2490 S.3    90  CYS90      -0.0797
     80  N        -16.2190   32.3450   57.6120 N.am   91  LEU91      -0.1977
     81  CA       -15.1620   31.5910   58.2240 C.3    91  LEU91       0.1596
     82  C        -13.8690   31.7940   57.4840 C.2    91  LEU91       0.2287
     83  O        -12.8140   31.6770   58.0900 O.2    91  LEU91      -0.2864
     84  CB       -15.5270   30.1130   58.2190 C.3    91  LEU91       0.0297
     85  CG       -16.7120   29.8080   59.1460 C.3    91  LEU91       0.0022
     86  CD1      -17.2500   28.4160   58.8520 C.3    91  LEU91       0.0001
     87  CD2      -16.2820   29.9080   60.6000 C.3    91  LEU91       0.0001
     88  N        -17.0670   41.4130   59.8950 N.3    97  ARG97      -0.1245
     89  CA       -18.3560   41.3810   59.1960 C.3    97  ARG97       0.1563
     90  C        -18.6500   42.7340   58.5720 C.2    97  ARG97       0.2260
     91  O        -18.0760   43.7410   58.9590 O.2    97  ARG97      -0.2867
     92  CB       -19.5050   40.8410   60.0730 C.3    97  ARG97       0.0307
     93  CG       -19.0960   40.5830   61.5010 C.3    97  ARG97       0.0489
     94  CD       -19.5570   39.2810   62.1300 C.3    97  ARG97       0.2205
     95  NE       -18.4910   38.6590   62.9500 N.pl3  97  ARG97      -0.0865
     96  CZ       -17.5930   39.2670   63.7690 C.cat  97  ARG97       0.5346
     97  NH1      -17.5630   40.5860   64.0130 N.pl3  97  ARG97       0.1354
     98  NH2      -16.7030   38.5110   64.4080 N.pl3  97  ARG97       0.1354
     99  N        -32.3320   34.7760   57.0130 N.3   125  LEU125     -0.1245
    100  CA       -30.9360   34.4350   57.1170 C.3   125  LEU125      0.1561
    101  C        -30.5500   33.3850   56.0850 C.2   125  LEU125      0.2260
    102  O        -29.5320   33.5150   55.3950 O.2   125  LEU125     -0.2867
    103  CB       -30.6460   33.9040   58.5140 C.3   125  LEU125      0.0270
    104  CG       -29.4270   34.5020   59.1820 C.3   125  LEU125      0.0019
    105  CD1      -29.0010   33.5570   60.2900 C.3   125  LEU125      0.0001
    106  CD2      -28.2650   34.7620   58.2120 C.3   125  LEU125      0.0001
    107  N        -29.9570   34.7740   52.8700 N.3   128  ILE128     -0.1231
    108  CA       -28.6920   35.5200   52.8590 C.3   128  ILE128      0.1692
    109  C        -27.5480   34.5450   52.7530 C.2   128  ILE128      0.2592
    110  O        -26.6220   34.7790   51.9740 O.2   128  ILE128     -0.2718
    111  CB       -28.5310   36.4350   54.1060 C.3   128  ILE128      0.0266
    112  CG1      -29.6100   37.5270   54.0630 C.3   128  ILE128      0.0019
    113  CG2      -27.1620   37.1120   54.1690 C.3   128  ILE128      0.0020
    114  CD1      -30.0350   37.9980   55.4370 C.3   128  ILE128      0.0001
    115  N        -27.6180   33.4530   53.5130 N.am  129  CYS129     -0.1970
    116  CA       -26.5620   32.4460   53.4430 C.3   129  CYS129      0.1712
    117  C        -26.5060   31.9270   52.0170 C.2   129  CYS129      0.2296
    118  O        -25.4350   31.9750   51.3900 O.2   129  CYS129     -0.2864
    119  CB       -26.7540   31.3080   54.4400 C.3   129  CYS129      0.0983
    120  SG       -26.6550   31.8270   56.1720 S.3   129  CYS129     -0.0798
    121  N        -24.6250   34.3970   49.8850 N.3   132  HIS132     -0.1226
    122  CA       -23.2450   34.4460   50.3150 C.3   132  HIS132      0.1752
    123  C        -22.4770   33.2350   49.7890 C.2   132  HIS132      0.2595
    124  O        -21.3240   33.3660   49.3570 O.2   132  HIS132     -0.2718
    125  CB       -23.2140   34.4660   51.8410 C.3   132  HIS132      0.0759
    126  CG       -21.8470   34.4350   52.4500 C.ar  132  HIS132      0.0818
    127  ND1      -21.3540   35.4770   53.2090 N.ar  132  HIS132     -0.2268
    128  CD2      -20.9090   33.4540   52.5070 C.ar  132  HIS132      0.1154
    129  CE1      -20.1460   35.1710   53.6460 C.ar  132  HIS132      0.1986
    130  NE2      -19.8580   33.9460   53.2460 N.ar  132  HIS132     -0.2212
    131  N        -23.0930   32.0570   49.8200 N.am  133  GLU133     -0.1979
    132  CA       -22.3440   30.8590   49.4290 C.3   133  GLU133      0.1602
    133  C        -22.2230   30.7150   47.9190 C.2   133  GLU133      0.2287
    134  O        -21.2120   30.2460   47.4000 O.2   133  GLU133     -0.2864
    135  CB       -22.9690   29.6250   50.0480 C.3   133  GLU133      0.0415
    136  CG       -23.0970   29.7270   51.5610 C.3   133  GLU133      0.1163
    137  CD       -21.7590   29.7970   52.2690 C.2   133  GLU133      0.3649
    138  OE1      -20.7400   29.4440   51.6240 O.co2 133  GLU133     -0.2457
    139  OE2      -21.7420   30.2060   53.4640 O.co2 133  GLU133     -0.2457
    140  N        -19.3610   32.6660   46.7690 N.3   136  HIS136     -0.1241
    141  CA       -18.1240   31.9170   46.9030 C.3   136  HIS136      0.1621
    142  C        -17.8970   31.1050   45.6560 C.2   136  HIS136      0.2264
    143  O        -16.8190   31.1630   45.0660 O.2   136  HIS136     -0.2867
    144  CB       -18.1500   30.9970   48.1200 C.3   136  HIS136      0.0745
    145  CG       -17.7910   31.6670   49.4220 C.ar  136  HIS136      0.0817
    146  ND1      -16.5200   32.0940   49.7130 N.ar  136  HIS136     -0.2268
    147  CD2      -18.5270   31.9200   50.5370 C.ar  136  HIS136      0.1154
    148  CE1      -16.4880   32.6010   50.9350 C.ar  136  HIS136      0.1986
    149  NE2      -17.6950   32.5010   51.4580 N.ar  136  HIS136     -0.2212
@<TRIPOS>BOND
     1   143   142    2
     2   142   141    1
     3   140   141    1
     4   141   144    1
     5   134   133    2
     6   133   132    1
     7   144   145    1
     8   124   123    2
     9   145   146   ar
    10   145   147   ar
    11   132   131    1
    12   132   135    1
    13   146   148   ar
    14   123   131   am
    15   123   122    1
    16   121   122    1
    17    35    36    1
    18   135   136    1
    19   122   125    1
    20   147   149   ar
    21   148   149   ar
    22    36    37    1
    23    36    39    1
    24   118   117    2
    25   136   137    1
    26   138   137   ar
    27   125   126    1
    28    40    39    1
    29    40    41    1
    30    37    38    2
    31   110   109    2
    32   117   116    1
    33   137   139   ar
    34   126   128   ar
    35   126   127   ar
    36   128   130   ar
    37    42    41    2
    38   109   108    1
    39   109   115   am
    40    41    43   am
    41   108   107    1
    42   108   111    1
    43   127   129   ar
    44   130   129   ar
    45    69    67   ar
    46    68    67   ar
    47   116   115    1
    48   116   119    1
    49    67    66    1
    50   112   111    1
    51   112   114    1
    52   111   113    1
    53    79    78    1
    54   119   120    1
    55    33    32    1
    56    33    34    2
    57   102   101    2
    58    66    65    1
    59    78    75    1
    60    32    31    1
    61    65    62    1
    62   101   100    1
    63    44    45    1
    64    47    46    2
    65    75    76    1
    66    75    74    1
    67    99   100    1
    68    73    72    2
    69    31    25   am
    70   100   103    1
    71    26    25    2
    72    62    61    1
    73    62    63    1
    74    82    83    2
    75    82    81    1
    76    64    63    2
    77    76    80   am
    78    76    77    2
    79    80    81    1
    80    61    54   am
    81    72    74   am
    82    72    71    1
    83    46    45    1
    84    46    52   am
    85    45    48    1
    86    63    70   am
    87    25    24    1
    88    50    48    1
    89   106   104    1
    90    84    81    1
    91    84    85    1
    92    48    49    1
    93    70    71    1
    94   103   104    1
    95    90    91    2
    96    90    89    1
    97    52    53    1
    98    54    53    1
    99    54    55    2
   100    86    85    1
   101    53    56    1
   102    28    30    1
   103    28    27    1
   104    85    87    1
   105   104   105    1
   106    89    88    1
   107    89    92    1
   108    24    27    1
   109    24    23    1
   110    27    29    1
   111    23    21   am
   112    49    51    1
   113    92    93    1
   114    56    57    1
   115    57    58    1
   116    21    20    1
   117    21    22    2
   118    58    60   ar
   119    58    59   ar
   120    20    19    1
   121     6     5    1
   122     6     7    1
   123     5     2    1
   124    93    94    1
   125     7     8   ar
   126     7     9   ar
   127    19    12   am
   128    94    95    1
   129     1     2    1
   130     2     3    1
   131    95    96    2
   132    12    13    2
   133    12    11    1
   134     4     3    2
   135     3    10   am
   136    96    97    1
   137    96    98    1
   138    10    11    1
   139    11    14    1
   140    14    15    1
   141    15    16    1
   142    16    17    1
   143    17    18    1
