@<TRIPOS>MOLECULE
tmp/4wxpA00.pdb
 95 90 0 0 0
SMALL
GASTEIGER

@<TRIPOS>ATOM
      1  N         31.6940  -10.2970   18.6600 N.3    45  PRO45      -0.2116
      2  CA        31.5220   -9.1720   17.7250 C.3    45  PRO45       0.1372
      3  C         30.4500   -8.1560   18.1420 C.2    45  PRO45       0.2244
      4  O         30.4240   -7.0620   17.5880 O.2    45  PRO45      -0.2868
      5  CB        31.1170   -9.8530   16.4140 C.3    45  PRO45       0.0268
      6  CG        31.5790  -11.3070   16.5500 C.3    45  PRO45       0.0207
      7  CD        31.4800  -11.6090   18.0220 C.3    45  PRO45       0.0892
      8  N         28.0770   -5.7230   20.7600 N.3    47  VAL47      -0.1245
      9  CA        27.9020   -5.0200   22.0300 C.3    47  VAL47       0.1561
     10  C         26.7370   -5.6490   22.8090 C.2    47  VAL47       0.2260
     11  O         26.8400   -5.9080   24.0070 O.2    47  VAL47      -0.2867
     12  CB        27.6610   -3.5020   21.8130 C.3    47  VAL47       0.0252
     13  CG1       27.2440   -2.8190   23.1070 C.3    47  VAL47       0.0019
     14  CG2       28.9160   -2.8340   21.2350 C.3    47  VAL47       0.0019
     15  N         32.9140   -2.4840   26.5420 N.3    69  THR69      -0.1203
     16  CA        32.4740   -2.0850   25.2010 C.3    69  THR69       0.1994
     17  C         33.0480   -0.7100   24.8930 C.2    69  THR69       0.2618
     18  O         33.6290   -0.0740   25.7760 O.2    69  THR69      -0.2717
     19  CB        30.9340   -2.0400   25.0840 C.3    69  THR69       0.1784
     20  OG1       30.4380   -0.9300   25.8330 O.3    69  THR69      -0.2211
     21  CG2       30.3130   -3.3180   25.6330 C.3    69  THR69       0.0376
     22  N         32.8790   -0.2390   23.6580 N.am   70  GLY70      -0.1942
     23  CA        33.3580    1.0800   23.2750 C.3    70  GLY70       0.2014
     24  C         32.7370    2.2340   24.0520 C.2    70  GLY70       0.2638
     25  O         33.3590    3.2740   24.2300 O.2    70  GLY70      -0.2714
     26  N         31.5060    2.0470   24.5150 N.am   71  VAL71      -0.1977
     27  CA        30.8060    3.0360   25.3450 C.3    71  VAL71       0.1596
     28  C         31.3970    3.1540   26.7560 C.2    71  VAL71       0.2287
     29  O         31.6130    4.2580   27.2830 O.2    71  VAL71      -0.2864
     30  CB        29.3040    2.6740   25.4760 C.3    71  VAL71       0.0276
     31  CG1       28.6220    3.4940   26.5820 C.3    71  VAL71       0.0022
     32  CG2       28.5870    2.8660   24.1530 C.3    71  VAL71       0.0022
     33  N         33.8810   -6.6530   23.6320 N.3    84  THR84      -0.1218
     34  CA        33.7770   -6.6960   22.1750 C.3    84  THR84       0.1862
     35  C         35.1770   -6.8060   21.5690 C.2    84  THR84       0.2287
     36  O         36.1680   -6.4830   22.2280 O.2    84  THR84      -0.2866
     37  CB        33.0650   -5.4520   21.6020 C.3    84  THR84       0.1770
     38  OG1       33.7670   -4.2730   22.0010 O.3    84  THR84      -0.2211
     39  CG2       31.6040   -5.3770   22.0990 C.3    84  THR84       0.0375
     40  N         36.2020   -4.9490   19.1540 N.3    86  GLY86      -0.1210
     41  CA        36.5910   -3.5440   19.0070 C.3    86  GLY86       0.1956
     42  C         37.1740   -2.9450   20.2620 C.2    86  GLY86       0.2611
     43  O         38.2200   -2.2860   20.2130 O.2    86  GLY86      -0.2717
     44  N         36.5110   -3.1700   21.3990 N.am   87  LYS87      -0.1979
     45  CA        37.0060   -2.6000   22.6410 C.3    87  LYS87       0.1596
     46  C         38.3380   -3.2410   23.0340 C.2    87  LYS87       0.2287
     47  O         39.2350   -2.5600   23.5510 O.2    87  LYS87      -0.2864
     48  CB        35.9740   -2.7510   23.7580 C.3    87  LYS87       0.0298
     49  CG        36.4460   -2.2260   25.0950 C.3    87  LYS87       0.0038
     50  CD        36.8650   -0.7450   25.0400 C.3    87  LYS87       0.0206
     51  CE        37.1700   -0.1980   26.4550 C.3    87  LYS87       0.1093
     52  NZ        37.7830    1.1770   26.4280 N.3    87  LYS87      -0.1314
     53  N         40.9450   -1.5080   20.9580 N.3    90  ALA90      -0.1245
     54  CA        41.1210   -0.1550   21.4840 C.3    90  ALA90       0.1562
     55  C         41.8920   -0.1570   22.8010 C.2    90  ALA90       0.2260
     56  O         42.6170    0.7860   23.0930 O.2    90  ALA90      -0.2867
     57  CB        39.7700    0.5210   21.6640 C.3    90  ALA90       0.0290
     58  N         36.5910   -5.8580   12.2730 N.3   113  THR113     -0.1218
     59  CA        36.9490   -5.7700   13.6860 C.3   113  THR113      0.1862
     60  C         37.1930   -7.1490   14.3140 C.2   113  THR113      0.2287
     61  O         38.1160   -7.3420   15.1040 O.2   113  THR113     -0.2866
     62  CB        35.8520   -5.0500   14.4750 C.3   113  THR113      0.1770
     63  OG1       35.6540   -3.7450   13.9290 O.3   113  THR113     -0.2211
     64  CG2       36.2650   -4.8960   15.9020 C.3   113  THR113      0.0375
     65  N         40.9550    0.4960    9.7270 N.3   312  ALA312     -0.1245
     66  CA        40.6460    0.5410   11.1520 C.3   312  ALA312      0.1562
     67  C         41.9120    0.6260   11.9990 C.2   312  ALA312      0.2260
     68  O         41.9350    1.2850   13.0300 O.2   312  ALA312     -0.2867
     69  CB        39.8220   -0.6900   11.5590 C.3   312  ALA312      0.0290
     70  N         41.4310    3.8760   14.2180 N.3   316  TRP316     -0.1227
     71  CA        40.9450    3.6640   15.5770 C.3   316  TRP316      0.1737
     72  C         42.0050    3.1960   16.5550 C.2   316  TRP316      0.2595
     73  O         41.9460    3.5330   17.7290 O.2   316  TRP316     -0.2718
     74  CB        39.8000    2.6420   15.5790 C.3   316  TRP316      0.0564
     75  CG        38.5120    3.1450   14.9940 C.ar  316  TRP316      0.0003
     76  CD1       37.9850    2.8330   13.7730 C.ar  316  TRP316      0.0946
     77  CD2       37.5860    4.0450   15.6090 C.ar  316  TRP316      0.0152
     78  NE1       36.7870    3.4850   13.5890 N.ar  316  TRP316     -0.2442
     79  CE2       36.5210    4.2380   14.7010 C.ar  316  TRP316      0.0810
     80  CE3       37.5530    4.7090   16.8380 C.ar  316  TRP316      0.0012
     81  CZ2       35.4390    5.0550   14.9850 C.ar  316  TRP316      0.0191
     82  CZ3       36.4770    5.5270   17.1160 C.ar  316  TRP316      0.0001
     83  CH2       35.4350    5.6960   16.1920 C.ar  316  TRP316      0.0015
     84  N         42.9680    2.4080   16.0890 N.am  317  TYR317     -0.1976
     85  CA        43.8020    1.6680   17.0300 C.3   317  TYR317      0.1639
     86  C         45.2870    1.9890   16.9820 C.2   317  TYR317      0.2290
     87  O         46.0910    1.2320   17.5350 O.2   317  TYR317     -0.2864
     88  CB        43.6130    0.1740   16.8050 C.3   317  TYR317      0.0560
     89  CG        42.1600   -0.2430   16.7090 C.ar  317  TYR317     -0.0198
     90  CD1       41.2690   -0.0110   17.7650 C.ar  317  TYR317     -0.0009
     91  CD2       41.6830   -0.8900   15.5770 C.ar  317  TYR317     -0.0009
     92  CE1       39.9350   -0.4140   17.6800 C.ar  317  TYR317      0.0417
     93  CE2       40.3600   -1.2940   15.4860 C.ar  317  TYR317      0.0417
     94  CZ        39.4920   -1.0530   16.5400 C.ar  317  TYR317      0.1957
     95  OH        38.1790   -1.4550   16.4320 O.3   317  TYR317     -0.2866
@<TRIPOS>BOND
     1    65    66    1
     2    66    69    1
     3    66    67    1
     4    67    68    2
     5    58    59    1
     6    78    76   ar
     7    78    79   ar
     8    59    60    1
     9    59    62    1
    10    76    75   ar
    11    63    62    1
    12    70    71    1
    13    60    61    2
    14    62    64    1
    15    79    81   ar
    16    79    77   ar
    17    81    83   ar
    18    75    74    1
    19    75    77   ar
    20    93    91   ar
    21    93    94   ar
    22    91    89   ar
    23    71    74    1
    24    71    72    1
    25    77    80   ar
    26    84    72   am
    27    84    85    1
    28    83    82   ar
    29     5     6    1
    30     5     2    1
    31    95    94    1
    32    94    92   ar
    33     6     7    1
    34    72    73    2
    35    89    88    1
    36    89    90   ar
    37    88    85    1
    38    80    82   ar
    39    86    85    1
    40    86    87    2
    41     4     3    2
    42    92    90   ar
    43     2     3    1
    44     2     1    1
    45     7     1    1
    46    41    40    1
    47    41    42    1
    48    43    42    2
    49    42    44   am
    50     8     9    1
    51    53    54    1
    52    14    12    1
    53    44    45    1
    54    54    57    1
    55    54    55    1
    56    35    34    1
    57    35    36    2
    58    37    38    1
    59    37    39    1
    60    37    34    1
    61    12     9    1
    62    12    13    1
    63     9    10    1
    64    34    33    1
    65    45    46    1
    66    45    48    1
    67    55    56    2
    68    10    11    2
    69    46    47    2
    70    23    22    1
    71    23    24    1
    72    22    17   am
    73    48    49    1
    74    24    25    2
    75    24    26   am
    76    32    30    1
    77    26    27    1
    78    17    16    1
    79    17    18    2
    80    50    49    1
    81    50    51    1
    82    19    16    1
    83    19    21    1
    84    19    20    1
    85    16    15    1
    86    27    30    1
    87    27    28    1
    88    30    31    1
    89    52    51    1
    90    28    29    2
