@<TRIPOS>MOLECULE
tmp/4wxqA00.pdb
 109 108 0 0 0
SMALL
GASTEIGER

@<TRIPOS>ATOM
      1  N         -0.0250  -17.9230  -18.6750 N.3     8  VAL8       -0.1231
      2  CA        -0.7720  -18.6270  -17.6410 C.3     8  VAL8        0.1692
      3  C         -0.1280  -19.9860  -17.3980 C.2     8  VAL8        0.2593
      4  O          0.2310  -20.6870  -18.3440 O.2     8  VAL8       -0.2718
      5  CB        -2.2510  -18.8190  -18.0240 C.3     8  VAL8        0.0266
      6  CG1       -2.9830  -19.5910  -16.9360 C.3     8  VAL8        0.0020
      7  CG2       -2.9160  -17.4740  -18.2740 C.3     8  VAL8        0.0020
      8  N          0.0240  -20.3550  -16.1320 N.am    9  GLY9       -0.1942
      9  CA         0.6390  -21.6240  -15.7920 C.3     9  GLY9        0.2014
     10  C          0.8930  -21.7760  -14.3080 C.2     9  GLY9        0.2639
     11  O          0.3700  -21.0090  -13.4990 O.2     9  GLY9       -0.2714
     12  N          1.7040  -22.7690  -13.9560 N.am   10  GLU10      -0.1963
     13  CA         1.9980  -23.0800  -12.5620 C.3    10  GLU10       0.1718
     14  C          0.7310  -23.3700  -11.7620 C.2    10  GLU10       0.2458
     15  O          0.4800  -22.7310  -10.7390 O.2    10  GLU10      -0.2730
     16  CB         2.7770  -21.9340  -11.9120 C.3    10  GLU10       0.0428
     17  CG         4.2460  -21.8930  -12.2980 C.3    10  GLU10       0.1163
     18  CD         5.0130  -23.0940  -11.7790 C.2    10  GLU10       0.3649
     19  OE1        4.5870  -23.6770  -10.7590 O.co2  10  GLU10      -0.2457
     20  OE2        6.0370  -23.4610  -12.3930 O.co2  10  GLU10      -0.2457
     21  N         -0.0730  -24.3410  -12.2260 N.am   11  PRO11      -0.2727
     22  CA        -1.2980  -24.7150  -11.5130 C.3    11  PRO11       0.1402
     23  C         -0.9920  -25.3880  -10.1810 C.2    11  PRO11       0.2269
     24  O         -0.2280  -26.3530  -10.1340 O.2    11  PRO11      -0.2865
     25  CB        -1.9850  -25.6860  -12.4770 C.3    11  PRO11       0.0296
     26  CG        -0.8770  -26.2580  -13.2830 C.3    11  PRO11       0.0237
     27  CD         0.1360  -25.1610  -13.4320 C.3    11  PRO11       0.0939
     28  N         -9.4160  -27.4640  -26.4250 N.3   199  TYR199     -0.1241
     29  CA        -9.2280  -28.4450  -27.4840 C.3   199  TYR199      0.1605
     30  C         -9.6550  -29.8040  -26.9480 C.2   199  TYR199      0.2264
     31  O        -10.2610  -30.6080  -27.6560 O.2   199  TYR199     -0.2867
     32  CB        -7.7730  -28.4890  -27.9590 C.3   199  TYR199      0.0534
     33  CG        -7.3260  -27.2650  -28.7260 C.ar  199  TYR199     -0.0201
     34  CD1       -7.7450  -27.0500  -30.0330 C.ar  199  TYR199     -0.0009
     35  CD2       -6.4730  -26.3330  -28.1510 C.ar  199  TYR199     -0.0009
     36  CE1       -7.3350  -25.9360  -30.7400 C.ar  199  TYR199      0.0417
     37  CE2       -6.0560  -25.2170  -28.8510 C.ar  199  TYR199      0.0417
     38  CZ        -6.4910  -25.0230  -30.1450 C.ar  199  TYR199      0.1957
     39  OH        -6.0800  -23.9130  -30.8470 O.3   199  TYR199     -0.2866
     40  N         -6.7270  -29.7780  -22.2120 N.3   203  ASP203     -0.1225
     41  CA        -5.9850  -28.7580  -22.9460 C.3   203  ASP203      0.1805
     42  C         -6.8120  -27.4950  -23.1760 C.2   203  ASP203      0.2598
     43  O         -7.8460  -27.5300  -23.8410 O.2   203  ASP203     -0.2718
     44  CB        -5.5010  -29.3180  -24.2850 C.3   203  ASP203      0.1424
     45  CG        -4.5610  -30.4970  -24.1160 C.2   203  ASP203      0.3668
     46  OD1       -3.3640  -30.2710  -23.8370 O.co2 203  ASP203     -0.2456
     47  OD2       -5.0190  -31.6490  -24.2620 O.co2 203  ASP203     -0.2456
     48  N         -6.3410  -26.3780  -22.6280 N.am  204  ALA204     -0.1966
     49  CA        -7.0610  -25.1130  -22.7250 C.3   204  ALA204      0.1728
     50  C         -6.1740  -23.9820  -23.2430 C.2   204  ALA204      0.2616
     51  O         -4.9470  -24.0830  -23.2290 O.2   204  ALA204     -0.2715
     52  CB        -7.6470  -24.7390  -21.3700 C.3   204  ALA204      0.0334
     53  N         -6.8110  -22.9080  -23.7010 N.am  205  THR205     -0.1951
     54  CA        -6.1050  -21.7130  -24.1480 C.3   205  THR205      0.1897
     55  C         -6.9380  -20.4630  -23.9010 C.2   205  THR205      0.2313
     56  O         -8.1650  -20.4980  -23.9840 O.2   205  THR205     -0.2863
     57  CB        -5.7630  -21.7630  -25.6540 C.3   205  THR205      0.1794
     58  OG1       -6.9730  -21.8100  -26.4190 O.3   205  THR205     -0.2208
     59  CG2       -4.9110  -22.9720  -25.9820 C.3   205  THR205      0.0378
     60  N         -1.8890  -20.9300  -23.9100 N.3   223  PRO223     -0.2102
     61  CA        -2.2230  -22.2870  -23.4670 C.3   223  PRO223      0.1504
     62  C         -1.9830  -22.5230  -21.9790 C.2   223  PRO223      0.2576
     63  O         -1.0910  -21.9230  -21.3810 O.2   223  PRO223     -0.2718
     64  CB        -1.2850  -23.1750  -24.3030 C.3   223  PRO223      0.0282
     65  CG        -0.7010  -22.2750  -25.3590 C.3   223  PRO223      0.0208
     66  CD        -0.6840  -20.9140  -24.7520 C.3   223  PRO223      0.0893
     67  N         -2.7940  -23.3980  -21.3950 N.am  224  PHE224     -0.1963
     68  CA        -2.5730  -23.8850  -20.0400 C.3   224  PHE224      0.1771
     69  C         -3.3750  -25.1670  -19.8640 C.2   224  PHE224      0.2619
     70  O         -4.3320  -25.4100  -20.5980 O.2   224  PHE224     -0.2715
     71  CB        -2.9600  -22.8350  -18.9930 C.3   224  PHE224      0.0574
     72  CG        -4.4270  -22.5120  -18.9630 C.ar  224  PHE224     -0.0200
     73  CD1       -4.9580  -21.5560  -19.8110 C.ar  224  PHE224     -0.0042
     74  CD2       -5.2730  -23.1540  -18.0720 C.ar  224  PHE224     -0.0042
     75  CE1       -6.3070  -21.2520  -19.7810 C.ar  224  PHE224     -0.0003
     76  CE2       -6.6230  -22.8560  -18.0360 C.ar  224  PHE224     -0.0003
     77  CZ        -7.1410  -21.9030  -18.8910 C.ar  224  PHE224     -0.0000
     78  N         -2.9800  -25.9940  -18.9030 N.am  225  LYS225     -0.1977
     79  CA        -3.5550  -27.3280  -18.7850 C.3   225  LYS225      0.1596
     80  C         -4.5930  -27.4510  -17.6750 C.2   225  LYS225      0.2287
     81  O         -4.4070  -26.9340  -16.5740 O.2   225  LYS225     -0.2864
     82  CB        -2.4460  -28.3580  -18.5590 C.3   225  LYS225      0.0298
     83  CG        -2.9360  -29.7960  -18.5400 C.3   225  LYS225      0.0038
     84  CD        -1.7770  -30.7780  -18.5410 C.3   225  LYS225      0.0206
     85  CE        -2.2720  -32.2090  -18.6710 C.3   225  LYS225      0.1093
     86  NZ        -1.1480  -33.1740  -18.8130 N.3   225  LYS225     -0.1314
     87  N         -5.4140  -29.8650  -15.3310 N.3   227  ARG227     -0.1245
     88  CA        -4.6780  -31.0180  -14.8260 C.3   227  ARG227      0.1563
     89  C         -5.5580  -32.2320  -14.5320 C.2   227  ARG227      0.2260
     90  O         -5.1500  -33.3690  -14.7670 O.2   227  ARG227     -0.2867
     91  CB        -3.9040  -30.6200  -13.5660 C.3   227  ARG227      0.0307
     92  CG        -2.9570  -31.6850  -13.0420 C.3   227  ARG227      0.0489
     93  CD        -2.1210  -31.1470  -11.8920 C.3   227  ARG227      0.2205
     94  NE        -1.0770  -30.2310  -12.3470 N.pl3 227  ARG227     -0.0865
     95  CZ        -0.4010  -29.4130  -11.5460 C.cat 227  ARG227      0.5346
     96  NH1       -0.6670  -29.3820  -10.2470 N.pl3 227  ARG227      0.1354
     97  NH2        0.5350  -28.6180  -12.0450 N.pl3 227  ARG227      0.1354
     98  N         -3.9340  -20.6300  -10.6730 N.3   254  TYR254     -0.1241
     99  CA        -2.9510  -20.4610  -11.7350 C.3   254  TYR254      0.1605
    100  C         -2.2260  -19.1370  -11.5580 C.2   254  TYR254      0.2264
    101  O         -2.8460  -18.1190  -11.2510 O.2   254  TYR254     -0.2867
    102  CB        -3.6090  -20.5080  -13.1170 C.3   254  TYR254      0.0534
    103  CG        -4.1730  -21.8540  -13.5090 C.ar  254  TYR254     -0.0201
    104  CD1       -5.4780  -22.2040  -13.1840 C.ar  254  TYR254     -0.0009
    105  CD2       -3.4070  -22.7700  -14.2190 C.ar  254  TYR254     -0.0009
    106  CE1       -6.0020  -23.4310  -13.5470 C.ar  254  TYR254      0.0417
    107  CE2       -3.9210  -23.9990  -14.5860 C.ar  254  TYR254      0.0417
    108  CZ        -5.2190  -24.3250  -14.2480 C.ar  254  TYR254      0.1957
    109  OH        -5.7350  -25.5480  -14.6110 O.3   254  TYR254     -0.2866
@<TRIPOS>BOND
     1    39    38    1
     2    36    38   ar
     3    36    34   ar
     4    38    37   ar
     5    34    33   ar
     6    37    35   ar
     7    33    35   ar
     8    33    32    1
     9    32    29    1
    10    31    30    2
    11    29    30    1
    12    29    28    1
    13    58    57    1
    14    59    57    1
    15    57    54    1
    16    65    66    1
    17    65    64    1
    18    66    60    1
    19    64    61    1
    20    44    45    1
    21    44    41    1
    22    47    45   ar
    23    54    55    1
    24    54    53    1
    25    45    46   ar
    26    56    55    2
    27    60    61    1
    28    43    42    2
    29    53    50   am
    30    61    62    1
    31    50    51    2
    32    50    49    1
    33    42    41    1
    34    42    48   am
    35    41    40    1
    36    49    48    1
    37    49    52    1
    38    62    67   am
    39    62    63    2
    40    67    68    1
    41    70    69    2
    42    68    69    1
    43    68    71    1
    44    69    78   am
    45    73    75   ar
    46    73    72   ar
    47    75    77   ar
    48    71    72    1
    49    72    74   ar
    50    78    79    1
    51    77    76   ar
    52    86    85    1
    53    79    82    1
    54    79    80    1
    55     1     2    1
    56    85    84    1
    57    82    83    1
    58    84    83    1
    59     4     3    2
    60     7     5    1
    61    74    76   ar
    62     5     2    1
    63     5     6    1
    64    80    81    2
    65     2     3    1
    66     3     8   am
    67     8     9    1
    68     9    10    1
    69    87    88    1
    70    88    89    1
    71    88    91    1
    72    90    89    2
    73   109   108    1
    74   107   108   ar
    75   107   105   ar
    76    10    12   am
    77    10    11    2
    78   108   106   ar
    79   105   103   ar
    80    12    13    1
    81    91    92    1
    82   106   104   ar
    83   103   104   ar
    84   103   102    1
    85    27    26    1
    86    27    21    1
    87    26    25    1
    88   102    99    1
    89    92    93    1
    90    13    16    1
    91    13    14    1
    92    25    22    1
    93    20    18   ar
    94    94    93    1
    95    94    95    2
    96    17    16    1
    97    17    18    1
    98    21    14   am
    99    21    22    1
   100    97    95    1
   101    18    19   ar
   102    14    15    2
   103    99   100    1
   104    99    98    1
   105   100   101    2
   106    95    96    1
   107    22    23    1
   108    23    24    2
