@<TRIPOS>MOLECULE
tmp/4wxqA06.pdb
 128 125 0 0 0
SMALL
GASTEIGER

@<TRIPOS>ATOM
      1  N        -21.6070  -21.8420  -21.0600 N.3   128  TYR128     -0.1227
      2  CA       -20.3240  -22.0250  -21.7210 C.3   128  TYR128      0.1736
      3  C        -20.3180  -23.3710  -22.4440 C.2   128  TYR128      0.2596
      4  O        -21.2380  -24.1720  -22.2760 O.2   128  TYR128     -0.2718
      5  CB       -19.1780  -21.9390  -20.7130 C.3   128  TYR128      0.0548
      6  CG       -18.9190  -20.5450  -20.1830 C.ar  128  TYR128     -0.0200
      7  CD1      -18.7340  -19.4740  -21.0500 C.ar  128  TYR128     -0.0009
      8  CD2      -18.8660  -20.2990  -18.8160 C.ar  128  TYR128     -0.0009
      9  CE1      -18.4960  -18.2000  -20.5710 C.ar  128  TYR128      0.0417
     10  CE2      -18.6280  -19.0270  -18.3270 C.ar  128  TYR128      0.0417
     11  CZ       -18.4450  -17.9810  -19.2090 C.ar  128  TYR128      0.1957
     12  OH       -18.2100  -16.7140  -18.7280 O.3   128  TYR128     -0.2866
     13  N        -19.2760  -23.6120  -23.2340 N.am  129  SER129     -0.1938
     14  CA       -19.2170  -24.7520  -24.1520 C.3   129  SER129      0.2055
     15  C        -19.5900  -26.1050  -23.5370 C.2   129  SER129      0.2643
     16  O        -20.3070  -26.8900  -24.1550 O.2   129  SER129     -0.2714
     17  CB       -17.8170  -24.8450  -24.7630 C.3   129  SER129      0.2130
     18  OG       -16.8280  -24.9290  -23.7540 O.3   129  SER129     -0.2179
     19  N        -19.1060  -26.3780  -22.3300 N.am  130  TRP130     -0.1959
     20  CA       -19.3690  -27.6580  -21.6740 C.3   130  TRP130      0.1771
     21  C        -20.7020  -27.6610  -20.9230 C.2   130  TRP130      0.2620
     22  O        -21.0550  -28.6530  -20.2860 O.2   130  TRP130     -0.2715
     23  CB       -18.2350  -28.0180  -20.7060 C.3   130  TRP130      0.0590
     24  CG       -16.8660  -28.0780  -21.3300 C.ar  130  TRP130      0.0006
     25  CD1      -16.0140  -27.0330  -21.5390 C.ar  130  TRP130      0.0946
     26  CD2      -16.1860  -29.2490  -21.8050 C.ar  130  TRP130      0.0152
     27  NE1      -14.8520  -27.4770  -22.1220 N.ar  130  TRP130     -0.2442
     28  CE2      -14.9320  -28.8330  -22.2950 C.ar  130  TRP130      0.0810
     29  CE3      -16.5180  -30.6060  -21.8670 C.ar  130  TRP130      0.0012
     30  CZ2      -14.0100  -29.7250  -22.8390 C.ar  130  TRP130      0.0191
     31  CZ3      -15.6010  -31.4900  -22.4070 C.ar  130  TRP130      0.0001
     32  CH2      -14.3620  -31.0460  -22.8860 C.ar  130  TRP130      0.0015
     33  N        -21.4330  -26.5510  -20.9930 N.am  131  GLY131     -0.1954
     34  CA       -22.7360  -26.4440  -20.3540 C.3   131  GLY131      0.1869
     35  C        -22.6780  -26.1690  -18.8610 C.2   131  GLY131      0.2309
     36  O        -21.8460  -25.3910  -18.3950 O.2   131  GLY131     -0.2863
     37  N        -24.1260  -22.5390  -16.7660 N.3   134  THR134     -0.1218
     38  CA       -23.1380  -21.4880  -16.5580 C.3   134  THR134      0.1862
     39  C        -23.4890  -20.2070  -17.3110 C.2   134  THR134      0.2287
     40  O        -22.6060  -19.4280  -17.6690 O.2   134  THR134     -0.2866
     41  CB       -21.7410  -21.9590  -16.9940 C.3   134  THR134      0.1770
     42  OG1      -21.8150  -22.5040  -18.3180 O.3   134  THR134     -0.2211
     43  CG2      -21.2260  -23.0320  -16.0470 C.3   134  THR134      0.0375
     44  N        -15.2700  -21.8930  -23.2020 N.3   184  ALA184     -0.1231
     45  CA       -15.3240  -22.7210  -21.9990 C.3   184  ALA184      0.1694
     46  C        -15.5550  -21.8930  -20.7360 C.2   184  ALA184      0.2592
     47  O        -16.2480  -22.3280  -19.8190 O.2   184  ALA184     -0.2718
     48  CB       -14.0470  -23.5370  -21.8660 C.3   184  ALA184      0.0304
     49  N        -14.9640  -20.7060  -20.6830 N.am  185  ASN185     -0.1974
     50  CA       -15.2070  -19.7910  -19.5750 C.3   185  ASN185      0.1688
     51  C        -14.6270  -18.4180  -19.8760 C.2   185  ASN185      0.2292
     52  O        -14.1460  -18.1690  -20.9780 O.2   185  ASN185     -0.2864
     53  CB       -14.6200  -20.3380  -18.2710 C.3   185  ASN185      0.1181
     54  CG       -15.4050  -19.8950  -17.0480 C.2   185  ASN185      0.2629
     55  OD1      -15.3710  -18.7260  -16.6640 O.2   185  ASN185     -0.2716
     56  ND2      -16.1170  -20.8290  -16.4310 N.am  185  ASN185     -0.0877
     57  N        -11.7490  -18.3830  -22.3980 N.3   196  VAL196     -0.1245
     58  CA       -10.9750  -19.6160  -22.4020 C.3   196  VAL196      0.1561
     59  C        -11.6950  -20.6840  -23.2140 C.2   196  VAL196      0.2260
     60  O        -12.9050  -20.8610  -23.0850 O.2   196  VAL196     -0.2867
     61  CB       -10.7280  -20.1370  -20.9750 C.3   196  VAL196      0.0252
     62  CG1      -10.0160  -21.4810  -21.0150 C.3   196  VAL196      0.0019
     63  CG2       -9.9260  -19.1240  -20.1720 C.3   196  VAL196      0.0019
     64  N        -11.3650  -24.8610  -25.0520 N.3   198  SER198     -0.1217
     65  CA       -10.7470  -26.1670  -24.8640 C.3   198  SER198      0.1889
     66  C        -10.6130  -26.9460  -26.1690 C.2   198  SER198      0.2288
     67  O        -11.5720  -27.0680  -26.9310 O.2   198  SER198     -0.2866
     68  CB       -11.5580  -26.9920  -23.8600 C.3   198  SER198      0.2089
     69  OG       -11.7500  -26.2850  -22.6470 O.3   198  SER198     -0.2183
     70  N         -2.7940  -23.3980  -21.3950 N.3   224  PHE224     -0.1241
     71  CA        -2.5730  -23.8850  -20.0400 C.3   224  PHE224      0.1605
     72  C         -3.3750  -25.1670  -19.8640 C.2   224  PHE224      0.2264
     73  O         -4.3320  -25.4100  -20.5980 O.2   224  PHE224     -0.2867
     74  CB        -2.9600  -22.8350  -18.9930 C.3   224  PHE224      0.0534
     75  CG        -4.4270  -22.5120  -18.9630 C.ar  224  PHE224     -0.0203
     76  CD1       -4.9580  -21.5560  -19.8110 C.ar  224  PHE224     -0.0042
     77  CD2       -5.2730  -23.1540  -18.0720 C.ar  224  PHE224     -0.0042
     78  CE1       -6.3070  -21.2520  -19.7810 C.ar  224  PHE224     -0.0003
     79  CE2       -6.6230  -22.8560  -18.0360 C.ar  224  PHE224     -0.0003
     80  CZ        -7.1410  -21.9030  -18.8910 C.ar  224  PHE224     -0.0000
     81  N         -5.6940  -28.1310  -17.9850 N.3   226  ASN226     -0.1240
     82  CA        -6.6350  -28.5760  -16.9660 C.3   226  ASN226      0.1653
     83  C         -6.1630  -29.9170  -16.4270 C.2   226  ASN226      0.2266
     84  O         -6.4660  -30.9680  -16.9920 O.2   226  ASN226     -0.2867
     85  CB        -8.0540  -28.6850  -17.5250 C.3   226  ASN226      0.1155
     86  CG        -8.6590  -27.3340  -17.8500 C.2   226  ASN226      0.2627
     87  OD1       -9.1390  -27.1070  -18.9610 O.2   226  ASN226     -0.2716
     88  ND2       -8.6400  -26.4270  -16.8790 N.am  226  ASN226     -0.0877
     89  N        -11.5490  -31.8030  -15.6560 N.3   230  TYR230     -0.1227
     90  CA       -12.9540  -31.4290  -15.5360 C.3   230  TYR230      0.1736
     91  C        -13.1110  -30.1190  -14.7740 C.2   230  TYR230      0.2596
     92  O        -13.4990  -30.1100  -13.6070 O.2   230  TYR230     -0.2718
     93  CB       -13.7640  -32.5350  -14.8560 C.3   230  TYR230      0.0548
     94  CG       -15.2000  -32.5840  -15.3320 C.ar  230  TYR230     -0.0200
     95  CD1      -15.6800  -31.6440  -16.2360 C.ar  230  TYR230     -0.0009
     96  CD2      -16.0740  -33.5660  -14.8830 C.ar  230  TYR230     -0.0009
     97  CE1      -16.9880  -31.6800  -16.6800 C.ar  230  TYR230      0.0417
     98  CE2      -17.3860  -33.6090  -15.3220 C.ar  230  TYR230      0.0417
     99  CZ       -17.8370  -32.6630  -16.2200 C.ar  230  TYR230      0.1957
    100  OH       -19.1400  -32.6990  -16.6610 O.3   230  TYR230     -0.2866
    101  N        -12.8080  -29.0160  -15.4500 N.am  231  SER231     -0.1938
    102  CA       -12.9180  -27.6890  -14.8550 C.3   231  SER231      0.2055
    103  C        -14.3610  -27.1930  -14.8970 C.2   231  SER231      0.2644
    104  O        -15.0310  -27.2930  -15.9250 O.2   231  SER231     -0.2714
    105  CB       -11.9950  -26.7030  -15.5740 C.3   231  SER231      0.2130
    106  OG       -12.0770  -25.4110  -15.0010 O.3   231  SER231     -0.2179
    107  N        -14.8320  -26.6560  -13.7750 N.am  232  SER232     -0.1935
    108  CA       -16.2130  -26.1930  -13.6700 C.3   232  SER232      0.2055
    109  C        -16.2970  -24.6890  -13.4350 C.2   232  SER232      0.2643
    110  O        -17.3880  -24.1200  -13.4020 O.2   232  SER232     -0.2714
    111  CB       -16.9380  -26.9320  -12.5450 C.3   232  SER232      0.2130
    112  OG       -16.3070  -26.7000  -11.2980 O.3   232  SER232     -0.2179
    113  N        -15.1440  -24.0490  -13.2660 N.am  233  MET233     -0.1962
    114  CA       -15.1030  -22.6040  -13.0800 C.3   233  MET233      0.1736
    115  C        -13.6730  -22.0810  -13.0990 C.2   233  MET233      0.2616
    116  O        -12.7430  -22.7580  -12.6580 O.2   233  MET233     -0.2715
    117  CB       -15.7900  -22.2090  -11.7680 C.3   233  MET233      0.0427
    118  CG       -14.8660  -22.1240  -10.5620 C.3   233  MET233      0.0599
    119  SD       -14.1060  -20.5010  -10.3630 S.3   233  MET233     -0.1393
    120  CE       -13.0410  -20.8070   -8.9570 C.3   233  MET233      0.0692
    121  N        -13.5040  -20.8720  -13.6200 N.am  234  ILE234     -0.1977
    122  CA       -12.2170  -20.1950  -13.5750 C.3   234  ILE234      0.1596
    123  C        -12.4240  -18.6850  -13.5210 C.2   234  ILE234      0.2287
    124  O        -12.9630  -18.0830  -14.4490 O.2   234  ILE234     -0.2864
    125  CB       -11.3260  -20.5680  -14.7810 C.3   234  ILE234      0.0276
    126  CG1      -10.0230  -19.7670  -14.7440 C.3   234  ILE234      0.0022
    127  CG2      -12.0660  -20.3520  -16.0960 C.3   234  ILE234      0.0022
    128  CD1       -8.9880  -20.2330  -15.7420 C.3   234  ILE234      0.0001
@<TRIPOS>BOND
     1    67    66    2
     2    66    65    1
     3    64    65    1
     4    65    68    1
     5    17    14    1
     6    17    18    1
     7    16    15    2
     8    14    15    1
     9    14    13    1
    10    68    69    1
    11    15    19   am
    12    13     3   am
    13    59    60    2
    14    59    58    1
    15    44    45    1
    16    32    30   ar
    17    32    31   ar
    18    30    28   ar
    19     3     4    2
    20     3     2    1
    21    31    29   ar
    22    58    57    1
    23    58    61    1
    24    19    20    1
    25    28    27   ar
    26    28    26   ar
    27    27    25   ar
    28    45    48    1
    29    45    46    1
    30    29    26   ar
    31    26    24   ar
    32     2     1    1
    33     2     5    1
    34    20    21    1
    35    20    23    1
    36    25    24   ar
    37    70    71    1
    38    24    23    1
    39     7     9   ar
    40     7     6   ar
    41    62    61    1
    42    33    21   am
    43    33    34    1
    44    52    51    2
    45    61    63    1
    46    21    22    2
    47    46    49   am
    48    46    47    2
    49     5     6    1
    50    49    50    1
    51    73    72    2
    52     9    11   ar
    53    34    35    1
    54     6     8   ar
    55    71    72    1
    56    71    74    1
    57    51    50    1
    58    76    78   ar
    59    76    75   ar
    60    78    80   ar
    61    50    53    1
    62    11    12    1
    63    11    10   ar
    64    74    75    1
    65    75    77   ar
    66    87    86    2
    67    80    79   ar
    68    35    36    2
    69     8    10   ar
    70    42    41    1
    71    53    54    1
    72    77    79   ar
    73    81    82    1
    74    86    85    1
    75    86    88   am
    76    40    39    2
    77    85    82    1
    78    39    38    1
    79    54    55    2
    80    54    56   am
    81    41    38    1
    82    41    43    1
    83    84    83    2
    84    82    83    1
    85    37    38    1
    86    97    95   ar
    87    97    99   ar
    88   100    99    1
    89    95    94   ar
    90    99    98   ar
    91   127   125    1
    92   104   103    2
    93   128   126    1
    94    89    90    1
    95   105   106    1
    96   105   102    1
    97    90    93    1
    98    90    91    1
    99   101   102    1
   100   101    91   am
   101    94    96   ar
   102    94    93    1
   103    98    96   ar
   104   103   102    1
   105   103   107   am
   106   125   126    1
   107   125   122    1
   108    91    92    2
   109   124   123    2
   110   107   108    1
   111   108   109    1
   112   108   111    1
   113   121   122    1
   114   121   115   am
   115   122   123    1
   116   109   110    2
   117   109   113   am
   118   113   114    1
   119   115   114    1
   120   115   116    2
   121   114   117    1
   122   111   112    1
   123   117   118    1
   124   118   119    1
   125   119   120    1
