@<TRIPOS>MOLECULE
tmp/4wxqA01.pdb
 78 76 0 0 0
SMALL
GASTEIGER

@<TRIPOS>ATOM
      1  N        -11.1120   -9.6770   -2.9420 N.3    31  PRO31      -0.2102
      2  CA       -10.0960   -8.7220   -3.4010 C.3    31  PRO31       0.1504
      3  C        -10.1040   -7.4420   -2.5710 C.2    31  PRO31       0.2575
      4  O         -9.1000   -6.7320   -2.5120 O.2    31  PRO31      -0.2718
      5  CB       -10.5080   -8.4340   -4.8490 C.3    31  PRO31       0.0282
      6  CG       -11.3960   -9.5720   -5.2370 C.3    31  PRO31       0.0208
      7  CD       -12.1110   -9.9580   -3.9840 C.3    31  PRO31       0.0893
      8  N        -11.2390   -7.1540   -1.9440 N.am   32  LYS32      -0.1980
      9  CA       -11.3810   -5.9840   -1.0870 C.3    32  LYS32       0.1596
     10  C        -12.0100   -6.4020    0.2400 C.2    32  LYS32       0.2287
     11  O        -13.1450   -6.0310    0.5450 O.2    32  LYS32      -0.2864
     12  CB       -12.2230   -4.9070   -1.7780 C.3    32  LYS32       0.0298
     13  CG       -12.4290   -3.6420   -0.9580 C.3    32  LYS32       0.0038
     14  CD       -13.3810   -2.6780   -1.6510 C.3    32  LYS32       0.0206
     15  CE       -12.7200   -2.0040   -2.8410 C.3    32  LYS32       0.1093
     16  NZ       -11.5860   -1.1370   -2.4160 N.3    32  LYS32      -0.1314
     17  N        -17.0190  -10.1320   -2.9590 N.3    87  TYR87      -0.1241
     18  CA       -16.4760   -8.7930   -3.1340 C.3    87  TYR87       0.1605
     19  C        -16.9340   -7.8410   -2.0370 C.2    87  TYR87       0.2264
     20  O        -18.1310   -7.6100   -1.8580 O.2    87  TYR87      -0.2867
     21  CB       -16.8640   -8.2360   -4.5030 C.3    87  TYR87       0.0534
     22  CG       -16.3570   -6.8350   -4.7560 C.ar   87  TYR87      -0.0201
     23  CD1      -14.9960   -6.5730   -4.8340 C.ar   87  TYR87      -0.0009
     24  CD2      -17.2390   -5.7770   -4.9250 C.ar   87  TYR87      -0.0009
     25  CE1      -14.5270   -5.2930   -5.0670 C.ar   87  TYR87       0.0417
     26  CE2      -16.7810   -4.4950   -5.1600 C.ar   87  TYR87       0.0417
     27  CZ       -15.4250   -4.2590   -5.2300 C.ar   87  TYR87       0.1957
     28  OH       -14.9670   -2.9840   -5.4640 O.3    87  TYR87      -0.2866
     29  N        -12.4810   -7.4360  -10.9820 N.3   141  ASP141     -0.1225
     30  CA       -11.1450   -7.0580  -11.4240 C.3   141  ASP141      0.1805
     31  C        -10.7130   -5.7690  -10.7320 C.2   141  ASP141      0.2598
     32  O        -11.2960   -5.3760   -9.7220 O.2   141  ASP141     -0.2718
     33  CB       -11.0920   -6.9030  -12.9490 C.3   141  ASP141      0.1424
     34  CG       -11.7270   -5.6130  -13.4340 C.2   141  ASP141      0.3668
     35  OD1      -12.6560   -5.1090  -12.7700 O.co2 141  ASP141     -0.2456
     36  OD2      -11.2910   -5.1040  -14.4880 O.co2 141  ASP141     -0.2456
     37  N         -9.6980   -5.1130  -11.2820 N.am  142  GLU142     -0.1965
     38  CA        -9.1560   -3.9010  -10.6780 C.3   142  GLU142      0.1733
     39  C        -10.1630   -2.7490  -10.6580 C.2   142  GLU142      0.2616
     40  O         -9.9980   -1.7890   -9.9060 O.2   142  GLU142     -0.2715
     41  CB        -7.8850   -3.4670  -11.4140 C.3   142  GLU142      0.0429
     42  CG        -6.6770   -4.3680  -11.1740 C.3   142  GLU142      0.1163
     43  CD        -6.7760   -5.7040  -11.8900 C.2   142  GLU142      0.3649
     44  OE1       -7.7790   -5.9330  -12.5980 O.co2 142  GLU142     -0.2457
     45  OE2       -5.8470   -6.5280  -11.7430 O.co2 142  GLU142     -0.2457
     46  N        -11.2050   -2.8460  -11.4790 N.am  143  ALA143     -0.1963
     47  CA       -12.1960   -1.7770  -11.5790 C.3   143  ALA143      0.1728
     48  C        -13.4290   -2.0480  -10.7200 C.2   143  ALA143      0.2616
     49  O        -14.2230   -1.1440  -10.4610 O.2   143  ALA143     -0.2715
     50  CB       -12.6040   -1.5720  -13.0270 C.3   143  ALA143      0.0334
     51  N        -13.5940   -3.2930  -10.2870 N.am  144  GLY144     -0.1955
     52  CA       -14.7140   -3.6440   -9.4350 C.3   144  GLY144      0.1869
     53  C        -15.5140   -4.8400   -9.9140 C.2   144  GLY144      0.2309
     54  O        -14.9550   -5.8250  -10.3980 O.2   144  GLY144     -0.2863
     55  N         -8.1310  -10.0310   -8.5920 N.3   238  PRO238     -0.2102
     56  CA        -7.3420   -8.8200   -8.8480 C.3   238  PRO238      0.1504
     57  C         -6.3700   -8.4760   -7.7180 C.2   238  PRO238      0.2575
     58  O         -5.4680   -7.6630   -7.9240 O.2   238  PRO238     -0.2718
     59  CB        -8.4110   -7.7340   -8.9960 C.3   238  PRO238      0.0282
     60  CG        -9.5640   -8.2350   -8.2000 C.3   238  PRO238      0.0208
     61  CD        -9.5540   -9.7270   -8.3620 C.3   238  PRO238      0.0893
     62  N         -6.5460   -9.0810   -6.5480 N.am  239  LEU239     -0.1980
     63  CA        -5.6460   -8.8210   -5.4280 C.3   239  LEU239      0.1596
     64  C         -4.3920   -9.6860   -5.5150 C.2   239  LEU239      0.2287
     65  O         -3.2740   -9.1720   -5.5260 O.2   239  LEU239     -0.2864
     66  CB        -6.3540   -9.0590   -4.0940 C.3   239  LEU239      0.0297
     67  CG        -5.4850   -8.8410   -2.8520 C.3   239  LEU239      0.0022
     68  CD1       -4.8980   -7.4380   -2.8490 C.3   239  LEU239      0.0001
     69  CD2       -6.2810   -9.0930   -1.5800 C.3   239  LEU239      0.0001
     70  N         -3.7260  -11.4800   -8.0570 N.3   241  LYS241     -0.1245
     71  CA        -3.3800  -11.5110   -9.4740 C.3   241  LYS241      0.1561
     72  C         -3.1130  -12.9450   -9.9200 C.2   241  LYS241      0.2260
     73  O         -2.0890  -13.2430  -10.5350 O.2   241  LYS241     -0.2867
     74  CB        -2.1700  -10.6180   -9.7560 C.3   241  LYS241      0.0271
     75  CG        -2.2650   -9.2420   -9.1140 C.3   241  LYS241      0.0035
     76  CD        -1.5080   -8.1940   -9.9110 C.3   241  LYS241      0.0206
     77  CE        -2.4400   -7.4270  -10.8350 C.3   241  LYS241      0.1093
     78  NZ        -3.4300   -6.6160  -10.0680 N.3   241  LYS241     -0.1314
@<TRIPOS>BOND
     1    36    34   ar
     2    34    33    1
     3    34    35   ar
     4    50    47    1
     5    33    30    1
     6    44    43   ar
     7    43    45   ar
     8    43    42    1
     9    47    46    1
    10    47    48    1
    11    46    39   am
    12    30    29    1
    13    30    31    1
    14    41    42    1
    15    41    38    1
    16    37    31   am
    17    37    38    1
    18    77    78    1
    19    77    76    1
    20    31    32    2
    21    48    49    2
    22    48    51   am
    23    38    39    1
    24    39    40    2
    25    73    72    2
    26    54    53    2
    27    51    52    1
    28    72    71    1
    29    53    52    1
    30    76    75    1
    31    74    71    1
    32    74    75    1
    33    71    70    1
    34    59    56    1
    35    59    60    1
    36    56    55    1
    37    56    57    1
    38    55    61    1
    39    61    60    1
    40    58    57    2
    41    57    62   am
    42    62    63    1
    43    65    64    2
    44    64    63    1
    45    28    27    1
    46    63    66    1
    47     6     5    1
    48     6     7    1
    49    27    26   ar
    50    27    25   ar
    51    26    24   ar
    52    25    23   ar
    53    24    22   ar
    54     5     2    1
    55    23    22   ar
    56    22    21    1
    57    21    18    1
    58    66    67    1
    59     7     1    1
    60     2     1    1
    61     2     3    1
    62    18    17    1
    63    18    19    1
    64    67    68    1
    65    67    69    1
    66    15    16    1
    67    15    14    1
    68     3     4    2
    69     3     8   am
    70    19    20    2
    71     8     9    1
    72    12     9    1
    73    12    13    1
    74    14    13    1
    75     9    10    1
    76    10    11    2
