@<TRIPOS>MOLECULE
tmp/4wxrB00.pdb
 141 134 0 0 0
SMALL
GASTEIGER

@<TRIPOS>ATOM
      1  N         15.3810  -29.5150   17.9580 N.3    45  PRO45      -0.2116
      2  CA        15.2160  -29.9090   19.3880 C.3    45  PRO45       0.1372
      3  C         15.3170  -31.4240   19.6320 C.2    45  PRO45       0.2244
      4  O         15.7830  -31.8790   20.6940 O.2    45  PRO45      -0.2868
      5  CB        13.8010  -29.4420   19.7290 C.3    45  PRO45       0.0268
      6  CG        13.5300  -28.2650   18.7600 C.3    45  PRO45       0.0207
      7  CD        14.3140  -28.6080   17.4760 C.3    45  PRO45       0.0892
      8  N         15.9330  -35.4510   19.2240 N.3    47  VAL47      -0.1245
      9  CA        16.8520  -36.5320   18.8790 C.3    47  VAL47       0.1561
     10  C         16.2300  -37.4110   17.7750 C.2    47  VAL47       0.2260
     11  O         16.9280  -37.7560   16.8050 O.2    47  VAL47      -0.2867
     12  CB        17.2460  -37.3840   20.1250 C.3    47  VAL47       0.0252
     13  CG1       17.7820  -38.7270   19.7140 C.3    47  VAL47       0.0019
     14  CG2       18.2690  -36.6620   21.0200 C.3    47  VAL47       0.0019
     15  N         24.2310  -36.3960   18.2030 N.3    67  THR67      -0.1203
     16  CA        23.2340  -36.4820   19.2400 C.3    67  THR67       0.1994
     17  C         23.9250  -37.0090   20.4710 C.2    67  THR67       0.2618
     18  O         24.9990  -37.5890   20.3740 O.2    67  THR67      -0.2717
     19  CB        22.1090  -37.4640   18.8660 C.3    67  THR67       0.1784
     20  OG1       22.6560  -38.7730   18.7220 O.3    67  THR67      -0.2211
     21  CG2       21.4160  -37.0630   17.5650 C.3    67  THR67       0.0376
     22  N         23.3100  -36.8090   21.6280 N.am   68  GLY68      -0.1942
     23  CA        23.7930  -37.3790   22.8850 C.3    68  GLY68       0.2014
     24  C         23.9820  -38.8910   22.8650 C.2    68  GLY68       0.2638
     25  O         24.9220  -39.3820   23.4710 O.2    68  GLY68      -0.2714
     26  N         23.1250  -39.6320   22.1560 N.am   69  VAL69      -0.1977
     27  CA        23.2580  -41.1000   22.0910 C.3    69  VAL69       0.1596
     28  C         24.0540  -41.6200   20.8820 C.2    69  VAL69       0.2287
     29  O         24.6440  -42.6950   20.9530 O.2    69  VAL69      -0.2864
     30  CB        21.8850  -41.8620   22.1970 C.3    69  VAL69       0.0276
     31  CG1       21.0890  -41.3510   23.3920 C.3    69  VAL69       0.0022
     32  CG2       21.0600  -41.7250   20.9390 C.3    69  VAL69       0.0022
     33  N         21.1760  -32.1080   17.2410 N.3    82  THR82      -0.1218
     34  CA        20.2120  -31.5050   18.1020 C.3    82  THR82       0.1862
     35  C         20.8820  -30.2720   18.6530 C.2    82  THR82       0.2287
     36  O         22.0880  -30.1060   18.4270 O.2    82  THR82      -0.2866
     37  CB        19.8470  -32.3750   19.2850 C.3    82  THR82       0.1770
     38  OG1       21.0300  -32.5950   20.0570 O.3    82  THR82      -0.2211
     39  CG2       19.2190  -33.6780   18.8280 C.3    82  THR82       0.0375
     40  N         21.0300  -29.7630   21.9110 N.3    84  GLY84      -0.1210
     41  CA        21.7110  -30.1710   23.1640 C.3    84  GLY84       0.1956
     42  C         23.1190  -30.6460   22.8630 C.2    84  GLY84       0.2611
     43  O         24.0670  -30.2820   23.5560 O.2    84  GLY84      -0.2717
     44  N         23.2500  -31.4440   21.7980 N.am   85  LYS85      -0.1979
     45  CA        24.5310  -31.9990   21.4190 C.3    85  LYS85       0.1596
     46  C         25.4520  -30.8520   21.0950 C.2    85  LYS85       0.2287
     47  O         26.5980  -30.7880   21.5500 O.2    85  LYS85      -0.2864
     48  CB        24.3790  -32.9140   20.1990 C.3    85  LYS85       0.0298
     49  CG        25.6280  -33.7020   19.8330 C.3    85  LYS85       0.0038
     50  CD        26.2940  -34.3880   21.0450 C.3    85  LYS85       0.0206
     51  CE        27.5900  -35.0490   20.6050 C.3    85  LYS85       0.1093
     52  NZ        28.3580  -35.6250   21.7400 N.3    85  LYS85      -0.1314
     53  N         26.6780  -29.1620   23.9670 N.3    88  ALA88      -0.1245
     54  CA        27.6860  -30.0690   24.5820 C.3    88  ALA88       0.1562
     55  C         29.0560  -30.0010   23.9050 C.2    88  ALA88       0.2260
     56  O         30.0610  -30.0400   24.5920 O.2    88  ALA88      -0.2867
     57  CB        27.1980  -31.5000   24.5940 C.3    88  ALA88       0.0290
     58  N         16.8350  -25.3490   26.1910 N.3   111  THR111     -0.1218
     59  CA        17.9580  -25.8350   25.4070 C.3   111  THR111      0.1862
     60  C         17.9330  -25.2110   24.0310 C.2   111  THR111      0.2287
     61  O         18.9650  -24.7560   23.5860 O.2   111  THR111     -0.2866
     62  CB        18.0270  -27.3920   25.2200 C.3   111  THR111      0.1770
     63  OG1       18.2760  -28.0660   26.4560 O.3   111  THR111     -0.2211
     64  CG2       19.1640  -27.7320   24.2360 C.3   111  THR111      0.0375
     65  N         19.6950  -24.5330   33.2260 N.3   306  ALA306     -0.1245
     66  CA        20.2300  -25.5550   32.3140 C.3   306  ALA306      0.1562
     67  C         21.7100  -25.3350   31.9740 C.2   306  ALA306      0.2260
     68  O         22.4930  -26.3020   31.9670 O.2   306  ALA306     -0.2867
     69  CB        19.3750  -25.7130   31.0410 C.3   306  ALA306      0.0290
     70  N         23.6360  -28.6850   32.9360 N.3   310  TRP310     -0.1227
     71  CA        24.0230  -29.5420   31.7840 C.3   310  TRP310      0.1737
     72  C         25.2060  -29.0550   30.9210 C.2   310  TRP310      0.2595
     73  O         26.0520  -29.8420   30.5160 O.2   310  TRP310     -0.2718
     74  CB        22.8230  -29.7720   30.8360 C.3   310  TRP310      0.0564
     75  CG        21.6640  -30.4940   31.4520 C.ar  310  TRP310      0.0003
     76  CD1       20.5110  -29.9370   31.8950 C.ar  310  TRP310      0.0946
     77  CD2       21.5530  -31.9090   31.6870 C.ar  310  TRP310      0.0152
     78  NE1       19.6770  -30.9170   32.4130 N.ar  310  TRP310     -0.2442
     79  CE2       20.3000  -32.1330   32.3010 C.ar  310  TRP310      0.0810
     80  CE3       22.3920  -33.0110   31.4300 C.ar  310  TRP310      0.0012
     81  CZ2       19.8530  -33.4260   32.6700 C.ar  310  TRP310      0.0191
     82  CZ3       21.9570  -34.2930   31.7980 C.ar  310  TRP310      0.0001
     83  CH2       20.6930  -34.4890   32.4160 C.ar  310  TRP310      0.0015
     84  N         25.2680  -27.7710   30.6380 N.am  311  TYR311     -0.1962
     85  CA        26.1260  -27.3170   29.5510 C.3   311  TYR311      0.1771
     86  C         27.4130  -26.6470   29.9930 C.2   311  TYR311      0.2619
     87  O         28.0960  -26.0670   29.1450 O.2   311  TYR311     -0.2715
     88  CB        25.3220  -26.4220   28.5540 C.3   311  TYR311      0.0574
     89  CG        24.0740  -27.1230   28.0910 C.ar  311  TYR311     -0.0198
     90  CD1       24.1590  -28.2750   27.3060 C.ar  311  TYR311     -0.0009
     91  CD2       22.8180  -26.6880   28.4800 C.ar  311  TYR311     -0.0009
     92  CE1       23.0300  -28.9710   26.9070 C.ar  311  TYR311      0.0417
     93  CE2       21.6570  -27.3890   28.0680 C.ar  311  TYR311      0.0417
     94  CZ        21.7790  -28.5260   27.2950 C.ar  311  TYR311      0.1957
     95  OH        20.6570  -29.2220   26.8790 O.3   311  TYR311     -0.2866
     96  N         27.7360  -26.7240   31.2980 N.am  312  GLU312     -0.1977
     97  CA        28.9520  -26.1080   31.8550 C.3   312  GLU312      0.1602
     98  C         29.0580  -24.6810   31.3370 C.2   312  GLU312      0.2287
     99  O         30.0470  -24.3270   30.6640 O.2   312  GLU312     -0.2864
    100  CB        30.2400  -26.8720   31.4620 C.3   312  GLU312      0.0415
    101  CG        30.3930  -28.3440   31.8950 C.3   312  GLU312      0.1163
    102  CD        31.1410  -29.1370   30.8240 C.2   312  GLU312      0.3649
    103  OE1       30.7700  -28.9760   29.6390 O.co2 312  GLU312     -0.2457
    104  OE2       32.0900  -29.9020   31.1230 O.co2 312  GLU312     -0.2457
    105  N         19.0120  -34.1240   38.1570 N.3   360  LYS360     -0.1245
    106  CA        19.2450  -34.1940   36.7290 C.3   360  LYS360      0.1561
    107  C         18.7970  -35.5340   36.1500 C.2   360  LYS360      0.2260
    108  O         18.0900  -35.5570   35.1440 O.2   360  LYS360     -0.2867
    109  CB        20.7190  -33.9900   36.4170 C.3   360  LYS360      0.0271
    110  CG        21.1010  -32.5600   36.1750 C.3   360  LYS360      0.0035
    111  CD        22.6150  -32.3890   36.2000 C.3   360  LYS360      0.0206
    112  CE        23.3530  -33.1000   35.0390 C.3   360  LYS360      0.1093
    113  NZ        24.8390  -32.8110   35.0140 N.3   360  LYS360     -0.1314
    114  N         14.8650  -35.9660   36.0340 N.3   363  GLY363     -0.1210
    115  CA        13.9840  -35.3030   35.0650 C.3   363  GLY363      0.1956
    116  C         13.1730  -34.1520   35.6400 C.2   363  GLY363      0.2612
    117  O         12.2660  -33.6390   34.9860 O.2   363  GLY363     -0.2717
    118  N         13.5010  -33.7520   36.8630 N.am  364  GLU364     -0.1965
    119  CA        12.9440  -32.5390   37.4910 C.3   364  GLU364      0.1733
    120  C         12.9720  -31.3100   36.5740 C.2   364  GLU364      0.2616
    121  O         13.8890  -31.1540   35.7510 O.2   364  GLU364     -0.2715
    122  CB        13.7630  -32.1850   38.7580 C.3   364  GLU364      0.0429
    123  CG        12.9200  -31.7520   39.9600 C.3   364  GLU364      0.1163
    124  CD        11.6420  -32.5940   40.1070 C.2   364  GLU364      0.3649
    125  OE1       10.5640  -31.9990   40.3970 O.co2 364  GLU364     -0.2457
    126  OE2       11.7160  -33.8340   39.8930 O.co2 364  GLU364     -0.2457
    127  N         11.9690  -30.4460   36.7200 N.am  365  ASN365     -0.1972
    128  CA        12.0990  -29.0760   36.2790 C.3   365  ASN365      0.1688
    129  C         13.0850  -28.3930   37.2470 C.2   365  ASN365      0.2292
    130  O         13.1350  -28.7110   38.4370 O.2   365  ASN365     -0.2864
    131  CB        10.7460  -28.3710   36.2820 C.3   365  ASN365      0.1181
    132  CG         9.9190  -28.6270   34.9830 C.2   365  ASN365      0.2629
    133  OD1       10.4380  -29.0950   33.9570 O.2   365  ASN365     -0.2716
    134  ND2        8.6280  -28.2760   35.0320 N.am  365  ASN365     -0.0877
    135  N         16.4520  -28.6560   37.8280 N.3   367  PRO367     -0.2116
    136  CA        17.2420  -29.5590   38.6510 C.3   367  PRO367      0.1372
    137  C         18.2710  -28.7810   39.4790 C.2   367  PRO367      0.2244
    138  O         18.4830  -29.0890   40.6520 O.2   367  PRO367     -0.2868
    139  CB        17.9350  -30.4860   37.6220 C.3   367  PRO367      0.0268
    140  CG        17.8720  -29.7890   36.3280 C.3   367  PRO367      0.0207
    141  CD        16.6500  -28.8950   36.3840 C.3   367  PRO367      0.0892
@<TRIPOS>BOND
     1    11    10    2
     2    33    34    1
     3     7     1    1
     4     7     6    1
     5    21    19    1
     6    10     9    1
     7     1     2    1
     8    34    35    1
     9    34    37    1
    10    15    16    1
    11    36    35    2
    12    20    19    1
    13     6     5    1
    14    39    37    1
    15    19    16    1
    16     9     8    1
    17     9    12    1
    18    16    17    1
    19    37    38    1
    20     2     3    1
    21     2     5    1
    22     3     4    2
    23    13    12    1
    24    49    48    1
    25    49    50    1
    26    12    14    1
    27    48    45    1
    28    18    17    2
    29    17    22   am
    30    51    50    1
    31    51    52    1
    32    28    29    2
    33    28    27    1
    34    32    30    1
    35    46    45    1
    36    46    47    2
    37    45    44    1
    38    22    23    1
    39    44    42   am
    40    40    41    1
    41    27    26    1
    42    27    30    1
    43    26    24   am
    44    30    31    1
    45    42    41    1
    46    42    43    2
    47    24    23    1
    48    24    25    2
    49    61    60    2
    50    55    54    1
    51    55    56    2
    52    53    54    1
    53    60    59    1
    54    64    62    1
    55    54    57    1
    56    62    59    1
    57    62    63    1
    58    59    58    1
    59    95    94    1
    60    92    94   ar
    61    92    90   ar
    62    94    93   ar
    63    90    89   ar
    64    93    91   ar
    65    89    91   ar
    66    89    88    1
    67    88    85    1
    68    87    86    2
    69    85    86    1
    70    85    84    1
    71   103   102   ar
    72    86    96   am
    73    73    72    2
    74    84    72   am
    75    99    98    2
    76   102   104   ar
    77   102   101    1
    78    74    75    1
    79    74    71    1
    80    72    71    1
    81    69    66    1
    82    96    97    1
    83    98    97    1
    84    80    77   ar
    85    80    82   ar
    86    75    77   ar
    87    75    76   ar
    88   100    97    1
    89   100   101    1
    90    77    79   ar
    91    71    70    1
    92    82    83   ar
    93    76    78   ar
    94    68    67    2
    95    67    66    1
    96    79    78   ar
    97    79    81   ar
    98    66    65    1
    99    83    81   ar
   100   133   132    2
   101   132   134   am
   102   132   131    1
   103   117   116    2
   104   113   112    1
   105   112   111    1
   106   115   116    1
   107   115   114    1
   108   108   107    2
   109   116   118   am
   110   121   120    2
   111   107   106    1
   112   110   111    1
   113   110   109    1
   114   128   131    1
   115   128   127    1
   116   128   129    1
   117   140   141    1
   118   140   139    1
   119   141   135    1
   120   109   106    1
   121   120   127   am
   122   120   119    1
   123   106   105    1
   124   118   119    1
   125   129   130    2
   126   119   122    1
   127   139   136    1
   128   135   136    1
   129   136   137    1
   130   122   123    1
   131   137   138    2
   132   126   124   ar
   133   123   124    1
   134   124   125   ar
