@<TRIPOS>MOLECULE
tmp/4wxsA00.pdb
 78 76 0 0 0
SMALL
GASTEIGER

@<TRIPOS>ATOM
      1  N        -11.2540   -9.6700   -2.6930 N.3    31  PRO31      -0.2102
      2  CA       -10.1930   -8.7580   -3.1400 C.3    31  PRO31       0.1504
      3  C        -10.2460   -7.4210   -2.4040 C.2    31  PRO31       0.2575
      4  O         -9.2820   -6.6550   -2.4310 O.2    31  PRO31      -0.2718
      5  CB       -10.4880   -8.5690   -4.6360 C.3    31  PRO31       0.0282
      6  CG       -11.5030   -9.6230   -4.9900 C.3    31  PRO31       0.0208
      7  CD       -12.2740   -9.8670   -3.7330 C.3    31  PRO31       0.0893
      8  N        -11.3810   -7.1450   -1.7730 N.am   32  LYS32      -0.1980
      9  CA       -11.5360   -5.9750   -0.9170 C.3    32  LYS32       0.1596
     10  C        -12.1690   -6.3960    0.3970 C.2    32  LYS32       0.2287
     11  O        -13.3110   -6.0330    0.6830 O.2    32  LYS32      -0.2864
     12  CB       -12.3910   -4.8990   -1.5870 C.3    32  LYS32       0.0298
     13  CG       -11.6460   -4.0340   -2.5820 C.3    32  LYS32       0.0038
     14  CD       -12.0950   -2.5860   -2.4680 C.3    32  LYS32       0.0206
     15  CE       -13.6100   -2.4730   -2.4790 C.3    32  LYS32       0.1093
     16  NZ       -14.0600   -1.0680   -2.2690 N.3    32  LYS32      -0.1314
     17  N        -17.2290  -10.1660   -2.8410 N.3    87  TYR87      -0.1241
     18  CA       -16.6780   -8.8340   -3.0350 C.3    87  TYR87       0.1605
     19  C        -17.1380   -7.8680   -1.9580 C.2    87  TYR87       0.2264
     20  O        -18.3350   -7.6700   -1.7610 O.2    87  TYR87      -0.2867
     21  CB       -17.0560   -8.3000   -4.4150 C.3    87  TYR87       0.0534
     22  CG       -16.5470   -6.9050   -4.6810 C.ar   87  TYR87      -0.0201
     23  CD1      -15.1930   -6.6660   -4.8710 C.ar   87  TYR87      -0.0009
     24  CD2      -17.4190   -5.8260   -4.7470 C.ar   87  TYR87      -0.0009
     25  CE1      -14.7180   -5.3930   -5.1180 C.ar   87  TYR87       0.0417
     26  CE2      -16.9530   -4.5480   -4.9950 C.ar   87  TYR87       0.0417
     27  CZ       -15.6010   -4.3390   -5.1790 C.ar   87  TYR87       0.1957
     28  OH       -15.1290   -3.0720   -5.4240 O.3    87  TYR87      -0.2866
     29  N        -12.6810   -7.4200  -10.8120 N.3   141  ASP141     -0.1225
     30  CA       -11.3520   -7.0230  -11.2600 C.3   141  ASP141      0.1805
     31  C        -10.9370   -5.7430  -10.5470 C.2   141  ASP141      0.2598
     32  O        -11.5900   -5.3210   -9.5920 O.2   141  ASP141     -0.2718
     33  CB       -11.3020   -6.8490  -12.7840 C.3   141  ASP141      0.1424
     34  CG       -11.8530   -5.5160  -13.2490 C.2   141  ASP141      0.3668
     35  OD1      -12.7770   -4.9820  -12.6050 O.co2 141  ASP141     -0.2456
     36  OD2      -11.3590   -4.9990  -14.2730 O.co2 141  ASP141     -0.2456
     37  N         -9.8520   -5.1330  -11.0090 N.am  142  GLU142     -0.1965
     38  CA        -9.2790   -3.9710  -10.3360 C.3   142  GLU142      0.1733
     39  C        -10.2350   -2.7740  -10.2540 C.2   142  GLU142      0.2616
     40  O         -9.9910   -1.8370   -9.4940 O.2   142  GLU142     -0.2715
     41  CB        -7.9840   -3.5470  -11.0320 C.3   142  GLU142      0.0429
     42  CG        -6.8120   -4.5030  -10.8200 C.3   142  GLU142      0.1163
     43  CD        -6.8780   -5.7370  -11.7040 C.2   142  GLU142      0.3649
     44  OE1       -7.8620   -5.8840  -12.4600 O.co2 142  GLU142     -0.2457
     45  OE2       -5.9400   -6.5620  -11.6410 O.co2 142  GLU142     -0.2457
     46  N        -11.3180   -2.8070  -11.0270 N.am  143  ALA143     -0.1963
     47  CA       -12.2640   -1.6920  -11.0670 C.3   143  ALA143      0.1728
     48  C        -13.5360   -1.9650  -10.2660 C.2   143  ALA143      0.2616
     49  O        -14.2690   -1.0380   -9.9220 O.2   143  ALA143     -0.2715
     50  CB       -12.6210   -1.3590  -12.5050 C.3   143  ALA143      0.0334
     51  N        -13.8070   -3.2330   -9.9780 N.am  144  GLY144     -0.1955
     52  CA       -14.9860   -3.5800   -9.2070 C.3   144  GLY144      0.1869
     53  C        -15.7500   -4.7820   -9.7270 C.2   144  GLY144      0.2309
     54  O        -15.1550   -5.7640  -10.1730 O.2   144  GLY144     -0.2863
     55  N         -8.2790  -10.0450   -8.4100 N.3   238  PRO238     -0.2102
     56  CA        -7.5080   -8.8320   -8.6960 C.3   238  PRO238      0.1504
     57  C         -6.5810   -8.4160   -7.5560 C.2   238  PRO238      0.2575
     58  O         -5.7060   -7.5780   -7.7700 O.2   238  PRO238     -0.2718
     59  CB        -8.5940   -7.7810   -8.9230 C.3   238  PRO238      0.0282
     60  CG        -9.7380   -8.2530   -8.0980 C.3   238  PRO238      0.0208
     61  CD        -9.7050   -9.7510   -8.1790 C.3   238  PRO238      0.0893
     62  N         -6.7630   -8.9910   -6.3700 N.am  239  LEU239     -0.1980
     63  CA        -5.8820   -8.6870   -5.2480 C.3   239  LEU239      0.1596
     64  C         -4.6230   -9.5350   -5.3130 C.2   239  LEU239      0.2287
     65  O         -3.5090   -9.0160   -5.2670 O.2   239  LEU239     -0.2864
     66  CB        -6.5890   -8.9110   -3.9110 C.3   239  LEU239      0.0297
     67  CG        -5.7010   -8.6350   -2.6920 C.3   239  LEU239      0.0022
     68  CD1       -5.2070   -7.1960   -2.7070 C.3   239  LEU239      0.0001
     69  CD2       -6.4260   -8.9420   -1.3890 C.3   239  LEU239      0.0001
     70  N         -3.8480  -11.3130   -7.8830 N.3   241  LYS241     -0.1245
     71  CA        -3.4520  -11.3480   -9.2870 C.3   241  LYS241      0.1561
     72  C         -3.1340  -12.7770   -9.7140 C.2   241  LYS241      0.2260
     73  O         -2.0430  -13.0780  -10.1970 O.2   241  LYS241     -0.2867
     74  CB        -2.2620  -10.4210   -9.5340 C.3   241  LYS241      0.0271
     75  CG        -2.5520   -8.9720   -9.1620 C.3   241  LYS241      0.0035
     76  CD        -1.9830   -8.0000  -10.1790 C.3   241  LYS241      0.0206
     77  CE        -3.0160   -6.9540  -10.5800 C.3   241  LYS241      0.1093
     78  NZ        -3.6060   -6.2510   -9.4050 N.3   241  LYS241     -0.1314
@<TRIPOS>BOND
     1    36    34   ar
     2    34    33    1
     3    34    35   ar
     4    33    30    1
     5    50    47    1
     6    44    43   ar
     7    43    45   ar
     8    43    42    1
     9    30    29    1
    10    30    31    1
    11    47    46    1
    12    47    48    1
    13    41    42    1
    14    41    38    1
    15    46    39   am
    16    37    31   am
    17    37    38    1
    18    77    76    1
    19    77    78    1
    20    31    32    2
    21    38    39    1
    22    48    51   am
    23    48    49    2
    24    39    40    2
    25    73    72    2
    26    76    75    1
    27    54    53    2
    28    51    52    1
    29    53    52    1
    30    72    71    1
    31    74    71    1
    32    74    75    1
    33    71    70    1
    34    59    56    1
    35    59    60    1
    36    56    55    1
    37    56    57    1
    38    55    61    1
    39    61    60    1
    40    58    57    2
    41    57    62   am
    42    62    63    1
    43    28    27    1
    44    64    65    2
    45    64    63    1
    46    63    66    1
    47    27    25   ar
    48    27    26   ar
    49    25    23   ar
    50    26    24   ar
    51     6     5    1
    52     6     7    1
    53    23    22   ar
    54    24    22   ar
    55    22    21    1
    56     5     2    1
    57    21    18    1
    58    66    67    1
    59     7     1    1
    60     2     1    1
    61     2     3    1
    62    18    17    1
    63    18    19    1
    64    68    67    1
    65    67    69    1
    66    13    14    1
    67    13    12    1
    68    15    14    1
    69    15    16    1
    70     4     3    2
    71     3     8   am
    72    19    20    2
    73     8     9    1
    74    12     9    1
    75     9    10    1
    76    10    11    2
