@<TRIPOS>MOLECULE
tmp/4wy0B00.pdb
 113 106 0 0 0
SMALL
GASTEIGER

@<TRIPOS>ATOM
      1  N        -47.7040  -44.5050  -30.3130 N.3    72  ILE72      -0.1245
      2  CA       -49.1510  -44.3490  -30.2060 C.3    72  ILE72       0.1561
      3  C        -49.8320  -45.0960  -31.3510 C.2    72  ILE72       0.2260
      4  O        -49.4780  -44.9180  -32.5170 O.2    72  ILE72      -0.2867
      5  CB       -49.5590  -42.8600  -30.1940 C.3    72  ILE72       0.0252
      6  CG1      -49.2030  -42.2600  -28.8370 C.3    72  ILE72       0.0019
      7  CG2      -51.0530  -42.6830  -30.4530 C.3    72  ILE72       0.0019
      8  CD1      -49.1820  -40.7450  -28.8120 C.3    72  ILE72       0.0001
      9  N        -46.0880  -40.5410  -26.3750 N.3    93  GLU93      -0.1245
     10  CA       -46.0670  -39.4680  -27.3610 C.3    93  GLU93       0.1567
     11  C        -44.6480  -39.0210  -27.7230 C.2    93  GLU93       0.2260
     12  O        -44.4670  -38.3260  -28.7060 O.2    93  GLU93      -0.2867
     13  CB       -46.9200  -38.2750  -26.8930 C.3    93  GLU93       0.0388
     14  CG       -46.5110  -37.6440  -25.5650 C.3    93  GLU93       0.1160
     15  CD       -47.0350  -38.3750  -24.3230 C.2    93  GLU93       0.3649
     16  OE1      -47.7930  -39.3720  -24.4560 O.co2  93  GLU93      -0.2457
     17  OE2      -46.6730  -37.9420  -23.1950 O.co2  93  GLU93      -0.2457
     18  N        -45.5050  -41.1660  -33.3730 N.3    97  PRO97      -0.2116
     19  CA       -46.8200  -41.8040  -33.4730 C.3    97  PRO97       0.1372
     20  C        -46.9850  -42.6810  -34.7140 C.2    97  PRO97       0.2244
     21  O        -46.5570  -42.3040  -35.8000 O.2    97  PRO97      -0.2868
     22  CB       -47.7880  -40.6100  -33.5100 C.3    97  PRO97       0.0268
     23  CG       -47.0600  -39.5210  -32.7870 C.3    97  PRO97       0.0207
     24  CD       -45.6160  -39.7100  -33.1550 C.3    97  PRO97       0.0892
     25  N        -52.1900  -41.2800  -35.9990 N.3   100  GLU100     -0.1231
     26  CA       -52.5190  -39.9040  -35.6010 C.3   100  GLU100      0.1699
     27  C        -53.9160  -39.7610  -35.0210 C.2   100  GLU100      0.2592
     28  O        -54.2030  -38.7520  -34.3940 O.2   100  GLU100     -0.2718
     29  CB       -52.4380  -38.9600  -36.8090 C.3   100  GLU100      0.0402
     30  CG       -51.0410  -38.6870  -37.3430 C.3   100  GLU100      0.1161
     31  CD       -51.0260  -38.3030  -38.8320 C.2   100  GLU100      0.3649
     32  OE1      -52.0210  -38.5600  -39.5660 O.co2 100  GLU100     -0.2457
     33  OE2      -50.0000  -37.7490  -39.2900 O.co2 100  GLU100     -0.2457
     34  N        -54.7920  -40.7330  -35.2660 N.am  101  GLU101     -0.1979
     35  CA       -56.2100  -40.6050  -34.9210 C.3   101  GLU101      0.1602
     36  C        -56.6990  -41.5420  -33.8310 C.2   101  GLU101      0.2287
     37  O        -57.5890  -41.1880  -33.0780 O.2   101  GLU101     -0.2864
     38  CB       -57.0580  -40.8420  -36.1660 C.3   101  GLU101      0.0415
     39  CG       -56.9170  -39.7580  -37.2250 C.3   101  GLU101      0.1163
     40  CD       -57.4510  -40.2050  -38.5700 C.2   101  GLU101      0.3649
     41  OE1      -58.5810  -39.7980  -38.9330 O.co2 101  GLU101     -0.2457
     42  OE2      -56.7460  -40.9910  -39.2460 O.co2 101  GLU101     -0.2457
     43  N        -55.7870  -44.3050  -30.7190 N.3   103  HIS103     -0.1241
     44  CA       -54.8990  -44.9570  -29.7710 C.3   103  HIS103      0.1621
     45  C        -55.2380  -46.4320  -29.6710 C.2   103  HIS103      0.2264
     46  O        -56.3110  -46.8640  -30.0780 O.2   103  HIS103     -0.2867
     47  CB       -55.0220  -44.3180  -28.3920 C.3   103  HIS103      0.0745
     48  CG       -54.5400  -42.9040  -28.3470 C.ar  103  HIS103      0.0817
     49  ND1      -53.4780  -42.5040  -27.5670 N.ar  103  HIS103     -0.2268
     50  CD2      -54.9590  -41.8000  -29.0080 C.ar  103  HIS103      0.1154
     51  CE1      -53.2680  -41.2120  -27.7400 C.ar  103  HIS103      0.1986
     52  NE2      -54.1540  -40.7610  -28.6080 N.ar  103  HIS103     -0.2212
     53  N        -50.2720  -40.7870  -21.7940 N.3   116  GLY116     -0.1210
     54  CA       -50.0890  -39.3610  -21.5410 C.3   116  GLY116      0.1956
     55  C        -51.4060  -38.5890  -21.6190 C.2   116  GLY116      0.2612
     56  O        -52.3640  -39.0340  -22.2380 O.2   116  GLY116     -0.2717
     57  N        -51.4610  -37.4370  -20.9740 N.am  117  CYS117     -0.1956
     58  CA       -52.5980  -36.5370  -21.1180 C.3   117  CYS117      0.1843
     59  C        -52.1820  -35.1150  -20.7960 C.2   117  CYS117      0.2625
     60  O        -51.2450  -34.9000  -20.0400 O.2   117  CYS117     -0.2714
     61  CB       -53.7630  -36.9660  -20.2260 C.3   117  CYS117      0.0997
     62  SG       -53.4110  -36.9670  -18.4570 S.3   117  CYS117     -0.0797
     63  N        -52.8650  -34.1540  -21.4120 N.am  118  ARG118     -0.1977
     64  CA       -52.6040  -32.7330  -21.1960 C.3   118  ARG118      0.1597
     65  C        -53.7820  -32.0260  -20.5360 C.2   118  ARG118      0.2287
     66  O        -53.6370  -30.9100  -20.0620 O.2   118  ARG118     -0.2864
     67  CB       -52.2650  -32.0540  -22.5200 C.3   118  ARG118      0.0334
     68  CG       -50.9100  -32.4530  -23.0800 C.3   118  ARG118      0.0492
     69  CD       -50.7020  -31.9220  -24.4870 C.3   118  ARG118      0.2205
     70  NE       -51.6270  -32.5520  -25.4290 N.pl3 118  ARG118     -0.0865
     71  CZ       -51.7920  -32.1920  -26.7030 C.cat 118  ARG118      0.5346
     72  NH1      -51.0960  -31.1870  -27.2260 N.pl3 118  ARG118      0.1354
     73  NH2      -52.6670  -32.8450  -27.4630 N.pl3 118  ARG118      0.1354
     74  N        -58.5440  -35.4970  -22.5090 N.3   122  GLU122     -0.1245
     75  CA       -57.5940  -36.5130  -22.9320 C.3   122  GLU122      0.1567
     76  C        -57.5090  -37.6340  -21.9100 C.2   122  GLU122      0.2260
     77  O        -57.5130  -38.8060  -22.2640 O.2   122  GLU122     -0.2867
     78  CB       -56.2040  -35.9080  -23.1430 C.3   122  GLU122      0.0388
     79  CG       -56.0690  -35.1630  -24.4460 C.3   122  GLU122      0.1160
     80  CD       -54.6840  -34.5900  -24.6700 C.2   122  GLU122      0.3649
     81  OE1      -53.7260  -35.0280  -24.0010 O.co2 122  GLU122     -0.2457
     82  OE2      -54.5580  -33.6960  -25.5380 O.co2 122  GLU122     -0.2457
     83  N        -60.5160  -39.8420  -22.1580 N.3   125  ARG125     -0.1231
     84  CA       -60.5000  -40.6480  -23.3790 C.3   125  ARG125      0.1694
     85  C        -59.5010  -41.8090  -23.2610 C.2   125  ARG125      0.2591
     86  O        -59.8330  -42.9410  -23.6230 O.2   125  ARG125     -0.2718
     87  CB       -60.1940  -39.7860  -24.6020 C.3   125  ARG125      0.0321
     88  CG       -61.3330  -38.8410  -24.9650 C.3   125  ARG125      0.0489
     89  CD       -61.1610  -38.2350  -26.3520 C.3   125  ARG125      0.2205
     90  NE       -60.0450  -37.2940  -26.4500 N.pl3 125  ARG125     -0.0865
     91  CZ       -60.0640  -36.0260  -26.0480 C.cat 125  ARG125      0.5346
     92  NH1      -61.1390  -35.4980  -25.4790 N.pl3 125  ARG125      0.1354
     93  NH2      -58.9830  -35.2750  -26.2030 N.pl3 125  ARG125      0.1354
     94  N        -58.3110  -41.5390  -22.7190 N.am  126  ARG126     -0.1980
     95  CA       -57.3330  -42.6040  -22.4570 C.3   126  ARG126      0.1597
     96  C        -57.9130  -43.6680  -21.5050 C.2   126  ARG126      0.2287
     97  O        -57.7470  -44.8640  -21.7300 O.2   126  ARG126     -0.2864
     98  CB       -56.0270  -42.0450  -21.8760 C.3   126  ARG126      0.0334
     99  CG       -55.2860  -41.0370  -22.7600 C.3   126  ARG126      0.0492
    100  CD       -54.7750  -41.6140  -24.0730 C.3   126  ARG126      0.2205
    101  NE       -55.8100  -41.6560  -25.1010 N.pl3 126  ARG126     -0.0865
    102  CZ       -56.2300  -40.6040  -25.8070 C.cat 126  ARG126      0.5346
    103  NH1      -55.7010  -39.4000  -25.6210 N.pl3 126  ARG126      0.1354
    104  NH2      -57.1800  -40.7620  -26.7160 N.pl3 126  ARG126      0.1354
    105  N        -48.3670  -34.6830  -18.8720 N.3   137  LYS137     -0.1245
    106  CA       -47.1140  -34.1800  -19.4250 C.3   137  LYS137      0.1561
    107  C        -47.2890  -33.2990  -20.6360 C.2   137  LYS137      0.2260
    108  O        -48.1080  -33.5860  -21.5090 O.2   137  LYS137     -0.2867
    109  CB       -46.2370  -35.3570  -19.8170 C.3   137  LYS137      0.0271
    110  CG       -44.9870  -34.9740  -20.5850 C.3   137  LYS137      0.0035
    111  CD       -43.9840  -36.1070  -20.5420 C.3   137  LYS137      0.0206
    112  CE       -43.1620  -36.1880  -21.8090 C.3   137  LYS137      0.1093
    113  NZ       -42.5910  -37.5540  -21.9210 N.3   137  LYS137     -0.1314
@<TRIPOS>BOND
     1    32    31   ar
     2    33    31   ar
     3    42    40   ar
     4    41    40   ar
     5    31    30    1
     6    40    39    1
     7    30    29    1
     8    39    38    1
     9    29    26    1
    10    38    35    1
    11    25    26    1
    12    21    20    2
    13    26    27    1
    14    34    27   am
    15    34    35    1
    16    27    28    2
    17    35    36    1
    18    20    19    1
    19    36    37    2
    20    22    19    1
    21    22    23    1
    22    19    18    1
    23    18    24    1
    24    24    23    1
    25     4     3    2
    26     3     2    1
    27    43    44    1
    28     7     5    1
    29     1     2    1
    30     2     5    1
    31     5     6    1
    32    46    45    2
    33    44    45    1
    34    44    47    1
    35    50    52   ar
    36    50    48   ar
    37     6     8    1
    38    12    11    2
    39    52    51   ar
    40    47    48    1
    41    48    49   ar
    42    51    49   ar
    43    11    10    1
    44    73    71    1
    45    10    13    1
    46    10     9    1
    47    72    71    1
    48    13    14    1
    49   104   102    1
    50    71    70    2
    51    90    89    1
    52    90    91    2
    53    89    88    1
    54    93    91    1
    55    91    92    1
    56   102   103    1
    57   102   101    2
    58    14    15    1
    59    82    80   ar
    60    70    69    1
    61   101   100    1
    62    88    87    1
    63    80    79    1
    64    80    81   ar
    65    87    84    1
    66    69    68    1
    67    16    15   ar
    68    79    78    1
    69    15    17   ar
    70   100    99    1
    71    86    85    2
    72    84    85    1
    73    84    83    1
    74    85    94   am
    75    78    75    1
    76    68    67    1
    77    75    74    1
    78    75    76    1
    79    99    98    1
    80    94    95    1
    81    67    64    1
    82    95    98    1
    83    95    96    1
    84    77    76    2
    85    56    55    2
    86   113   112    1
    87   112   111    1
    88    53    54    1
    89    97    96    2
    90    55    54    1
    91    55    57   am
    92   108   107    2
    93    63    64    1
    94    63    59   am
    95    64    65    1
    96    58    57    1
    97    58    59    1
    98    58    61    1
    99    59    60    2
   100   107   106    1
   101   110   111    1
   102   110   109    1
   103    65    66    2
   104    61    62    1
   105   109   106    1
   106   106   105    1
