@<TRIPOS>MOLECULE
tmp/4wy1A00.pdb
 146 138 0 0 0
SMALL
GASTEIGER

@<TRIPOS>ATOM
      1  N         32.0330   30.8040   37.7960 N.3    14  GLN14      -0.1245
      2  CA        32.1690   32.2560   37.9850 C.3    14  GLN14       0.1566
      3  C         31.2560   33.1280   37.1010 C.2    14  GLN14       0.2260
      4  O         31.3280   34.3540   37.1550 O.2    14  GLN14      -0.2867
      5  CB        33.6430   32.6710   37.9240 C.3    14  GLN14       0.0367
      6  CG        34.5080   31.9380   38.9650 C.3    14  GLN14       0.0905
      7  CD        35.8370   32.6110   39.1780 C.2    14  GLN14       0.2608
      8  OE1       36.4790   33.0740   38.2410 O.2    14  GLN14      -0.2717
      9  NE2       36.3350   32.5740   40.4070 N.am   14  GLN14      -0.0878
     10  N         28.2950   39.9890   33.0010 N.3    32  LEU32      -0.1245
     11  CA        27.6230   38.7420   33.4010 C.3    32  LEU32       0.1561
     12  C         26.1680   38.7070   32.8700 C.2    32  LEU32       0.2260
     13  O         25.4140   39.6430   33.1110 O.2    32  LEU32      -0.2867
     14  CB        27.5980   38.6570   34.9400 C.3    32  LEU32       0.0270
     15  CG        26.9680   37.3640   35.5130 C.3    32  LEU32       0.0019
     16  CD1       27.9750   36.2830   35.5780 C.3    32  LEU32       0.0001
     17  CD2       26.4590   37.5940   36.9080 C.3    32  LEU32       0.0001
     18  N         22.6560   37.5880   33.4580 N.3    34  ASP34      -0.1239
     19  CA        21.9250   37.1560   34.6560 C.3    34  ASP34       0.1674
     20  C         20.4200   37.2060   34.5100 C.2    34  ASP34       0.2266
     21  O         19.8000   38.2800   34.5890 O.2    34  ASP34      -0.2867
     22  CB        22.4240   37.9700   35.8790 C.3    34  ASP34       0.1410
     23  CG        21.8040   37.6630   37.2400 C.2    34  ASP34       0.3668
     24  OD1       21.2040   36.5730   37.4010 O.co2  34  ASP34      -0.2456
     25  OD2       21.9490   38.4970   38.1510 O.co2  34  ASP34      -0.2456
     26  N         18.4270   36.0750   36.6760 N.3    36  GLY36      -0.1210
     27  CA        17.9070   36.1720   38.0510 C.3    36  GLY36       0.1956
     28  C         17.9220   37.5580   38.6830 C.2    36  GLY36       0.2612
     29  O         17.7620   37.6710   39.9020 O.2    36  GLY36      -0.2717
     30  N         18.1480   38.6280   37.8780 N.am   37  SER37      -0.1952
     31  CA        18.0710   40.0470   38.3000 C.3    37  SER37       0.1924
     32  C         17.6500   40.8910   37.1020 C.2    37  SER37       0.2314
     33  O         17.5920   40.3780   35.9880 O.2    37  SER37      -0.2863
     34  CB        19.3890   40.5440   38.8970 C.3    37  SER37       0.2116
     35  OG        20.4040   40.6290   37.9110 O.3    37  SER37      -0.2180
     36  N         21.7160   48.0310   46.4910 N.3    71  VAL71      -0.1245
     37  CA        21.2730   46.6540   46.2150 C.3    71  VAL71       0.1561
     38  C         21.8920   45.5680   47.1120 C.2    71  VAL71       0.2260
     39  O         22.8300   44.8720   46.7010 O.2    71  VAL71      -0.2867
     40  CB        21.3430   46.3010   44.6940 C.3    71  VAL71       0.0252
     41  CG1       20.6380   44.9740   44.3820 C.3    71  VAL71       0.0019
     42  CG2       20.7560   47.4180   43.8460 C.3    71  VAL71       0.0019
     43  N         21.9060   41.8450   48.6960 N.3    73  TYR73      -0.1241
     44  CA        21.3110   40.5410   48.3970 C.3    73  TYR73       0.1605
     45  C         21.8460   39.5860   49.4590 C.2    73  TYR73       0.2264
     46  O         22.5440   40.0470   50.3690 O.2    73  TYR73      -0.2867
     47  CB        21.5450   40.0820   46.9300 C.3    73  TYR73       0.0534
     48  CG        22.9890   40.1530   46.5090 C.ar   73  TYR73      -0.0201
     49  CD1       23.5460   41.3470   46.0560 C.ar   73  TYR73      -0.0009
     50  CD2       23.7940   39.0210   46.5270 C.ar   73  TYR73      -0.0009
     51  CE1       24.8880   41.4280   45.7100 C.ar   73  TYR73       0.0417
     52  CE2       25.1400   39.0900   46.1900 C.ar   73  TYR73       0.0417
     53  CZ        25.6890   40.3030   45.8000 C.ar   73  TYR73       0.1957
     54  OH        27.0110   40.3690   45.4330 O.3    73  TYR73      -0.2866
     55  N         24.2580   37.0040   49.7700 N.3    75  GLN75      -0.1245
     56  CA        25.6970   36.8770   49.9570 C.3    75  GLN75       0.1566
     57  C         26.5100   38.1800   49.8710 C.2    75  GLN75       0.2260
     58  O         27.7270   38.1280   50.0650 O.2    75  GLN75      -0.2867
     59  CB        26.2730   35.8170   48.9910 C.3    75  GLN75       0.0367
     60  CG        25.6250   34.4260   49.0690 C.3    75  GLN75       0.0905
     61  CD        24.5440   34.2220   48.0240 C.2    75  GLN75       0.2608
     62  OE1       24.7530   34.4100   46.8140 O.2    75  GLN75      -0.2717
     63  NE2       23.3680   33.7880   48.4660 N.am   75  GLN75      -0.0878
     64  N         25.8540   45.6420   46.2330 N.3    78  TRP78      -0.1241
     65  CA        26.3530   46.5880   45.2400 C.3    78  TRP78       0.1605
     66  C         25.5410   47.8620   45.3510 C.2    78  TRP78       0.2264
     67  O         24.4130   47.8400   45.8350 O.2    78  TRP78      -0.2867
     68  CB        26.4700   46.0380   43.7890 C.3    78  TRP78       0.0550
     69  CG        25.1840   45.7760   43.0360 C.ar   78  TRP78       0.0003
     70  CD1       24.6100   44.5630   42.8030 C.ar   78  TRP78       0.0946
     71  CD2       24.3980   46.7360   42.3060 C.ar   78  TRP78       0.0152
     72  NE1       23.4900   44.7080   42.0150 N.ar   78  TRP78      -0.2442
     73  CE2       23.3460   46.0280   41.6820 C.ar   78  TRP78       0.0810
     74  CE3       24.4410   48.1400   42.1730 C.ar   78  TRP78       0.0012
     75  CZ2       22.3660   46.6690   40.9110 C.ar   78  TRP78       0.0191
     76  CZ3       23.4720   48.7720   41.4190 C.ar   78  TRP78       0.0001
     77  CH2       22.4460   48.0440   40.7980 C.ar   78  TRP78       0.0015
     78  N         31.3870   41.7800   48.3030 N.3   109  LYS109     -0.1231
     79  CA        31.2970   40.3790   47.8400 C.3   109  LYS109      0.1693
     80  C         30.4920   40.2220   46.5290 C.2   109  LYS109      0.2592
     81  O         29.7400   39.2490   46.3540 O.2   109  LYS109     -0.2718
     82  CB        30.7350   39.4620   48.9590 C.3   109  LYS109      0.0285
     83  CG        31.5840   39.4220   50.2270 C.3   109  LYS109      0.0035
     84  CD        30.8480   38.7150   51.3490 C.3   109  LYS109      0.0206
     85  CE        31.3840   39.0910   52.7100 C.3   109  LYS109      0.1093
     86  NZ        30.9450   40.4530   53.1320 N.3   109  LYS109     -0.1314
     87  N         30.6470   41.2020   45.6170 N.am  110  PHE110     -0.1976
     88  CA        29.9380   41.2300   44.3470 C.3   110  PHE110      0.1639
     89  C         30.8390   40.7580   43.2140 C.2   110  PHE110      0.2290
     90  O         30.5620   39.7220   42.5910 O.2   110  PHE110     -0.2864
     91  CB        29.3370   42.6220   44.0880 C.3   110  PHE110      0.0560
     92  CG        28.6340   42.7600   42.7580 C.ar  110  PHE110     -0.0200
     93  CD1       27.4030   42.1470   42.5350 C.ar  110  PHE110     -0.0042
     94  CD2       29.2030   43.5020   41.7250 C.ar  110  PHE110     -0.0042
     95  CE1       26.7650   42.2610   41.2950 C.ar  110  PHE110     -0.0003
     96  CE2       28.5520   43.6360   40.5000 C.ar  110  PHE110     -0.0003
     97  CZ        27.3370   43.0140   40.2920 C.ar  110  PHE110     -0.0000
     98  N         33.9630   39.0640   41.4040 N.3   112  ILE112     -0.1245
     99  CA        34.7140   37.8350   41.6680 C.3   112  ILE112      0.1561
    100  C         36.1250   37.9670   41.1140 C.2   112  ILE112      0.2260
    101  O         36.3070   38.3200   39.9420 O.2   112  ILE112     -0.2867
    102  CB        33.9990   36.5530   41.1690 C.3   112  ILE112      0.0252
    103  CG1       32.5110   36.4880   41.6210 C.3   112  ILE112      0.0019
    104  CG2       34.7740   35.2930   41.5780 C.3   112  ILE112      0.0019
    105  CD1       31.6440   35.5470   40.7870 C.3   112  ILE112      0.0001
    106  N         34.7010   39.5950   34.4480 N.3   117  TRP117     -0.1241
    107  CA        33.5510   40.4620   34.1620 C.3   117  TRP117      0.1605
    108  C         33.5350   41.6740   35.0970 C.2   117  TRP117      0.2264
    109  O         33.9680   41.5920   36.2580 O.2   117  TRP117     -0.2867
    110  CB        32.1810   39.7110   34.0700 C.3   117  TRP117      0.0550
    111  CG        31.8010   38.8940   35.2750 C.ar  117  TRP117      0.0003
    112  CD1       31.9050   37.5370   35.4030 C.ar  117  TRP117      0.0946
    113  CD2       31.1900   39.3660   36.4890 C.ar  117  TRP117      0.0152
    114  NE1       31.3910   37.1340   36.6130 N.ar  117  TRP117     -0.2442
    115  CE2       30.9470   38.2350   37.3020 C.ar  117  TRP117      0.0810
    116  CE3       30.8010   40.6340   36.9640 C.ar  117  TRP117      0.0012
    117  CZ2       30.4050   38.3410   38.5940 C.ar  117  TRP117      0.0191
    118  CZ3       30.2210   40.7350   38.2290 C.ar  117  TRP117      0.0001
    119  CH2       30.0160   39.6010   39.0230 C.ar  117  TRP117      0.0015
    120  N         26.9630   43.4750   35.2780 N.3   120  ILE120     -0.1245
    121  CA        25.8830   42.4960   35.2110 C.3   120  ILE120      0.1561
    122  C         24.7540   42.9680   34.3140 C.2   120  ILE120      0.2260
    123  O         24.4090   44.1540   34.3270 O.2   120  ILE120     -0.2867
    124  CB        25.4300   42.1720   36.6500 C.3   120  ILE120      0.0252
    125  CG1       24.3760   41.0600   36.6940 C.3   120  ILE120      0.0019
    126  CG2       24.9250   43.4390   37.3930 C.3   120  ILE120      0.0019
    127  CD1       24.3920   40.3520   38.0500 C.3   120  ILE120      0.0001
    128  N         17.6920   30.7060   36.5610 N.3   224  ASP224     -0.1239
    129  CA        18.7090   31.7000   36.8750 C.3   224  ASP224      0.1674
    130  C         20.1000   31.4010   36.3270 C.2   224  ASP224      0.2266
    131  O         20.8720   30.6810   36.9590 O.2   224  ASP224     -0.2867
    132  CB        18.7370   31.9100   38.3960 C.3   224  ASP224      0.1410
    133  CG        19.6210   33.0460   38.8470 C.2   224  ASP224      0.3668
    134  OD1       20.1220   33.7860   37.9800 O.co2 224  ASP224     -0.2456
    135  OD2       19.8930   33.1330   40.0510 O.co2 224  ASP224     -0.2456
    136  N         22.4730   33.3860   36.5110 N.3   226  GLY226     -0.1210
    137  CA        23.3760   34.0600   37.4510 C.3   226  GLY226      0.1956
    138  C         23.7610   33.2500   38.6780 C.2   226  GLY226      0.2612
    139  O         24.5650   33.7090   39.4980 O.2   226  GLY226     -0.2717
    140  N         23.2050   32.0400   38.8190 N.am  227  THR227     -0.1952
    141  CA        23.5280   31.1000   39.9060 C.3   227  THR227      0.1897
    142  C         24.1870   29.8980   39.2780 C.2   227  THR227      0.2313
    143  O         23.6990   29.4330   38.2590 O.2   227  THR227     -0.2863
    144  CB        22.2660   30.7030   40.6830 C.3   227  THR227      0.1794
    145  OG1       21.7790   31.8510   41.3350 O.3   227  THR227     -0.2208
    146  CG2       22.5060   29.6000   41.7120 C.3   227  THR227      0.0378
@<TRIPOS>BOND
     1    12    13    2
     2    12    11    1
     3    10    11    1
     4    11    14    1
     5    18    19    1
     6   110   107    1
     7   110   111    1
     8   107   106    1
     9   107   108    1
    10   122   123    2
    11   122   121    1
    12    20    21    2
    13    20    19    1
    14    19    22    1
    15    14    15    1
    16   108   109    2
    17   121   120    1
    18   121   124    1
    19   111   112   ar
    20   111   113   ar
    21   112   114   ar
    22    15    16    1
    23    15    17    1
    24    22    23    1
    25    33    32    2
    26   130   129    1
    27   130   131    2
    28   113   116   ar
    29   113   115   ar
    30   136   137    1
    31   128   129    1
    32   114   115   ar
    33   124   125    1
    34   124   126    1
    35    26    27    1
    36   125   127    1
    37   129   132    1
    38   116   118   ar
    39     3     4    2
    40     3     2    1
    41    32    31    1
    42    23    24   ar
    43    23    25   ar
    44   115   117   ar
    45   137   138    1
    46     1     2    1
    47    30    31    1
    48    30    28   am
    49    35    34    1
    50     5     2    1
    51     5     6    1
    52   134   133   ar
    53    27    28    1
    54   118   119   ar
    55     8     7    2
    56   143   142    2
    57    31    34    1
    58   132   133    1
    59   117   119   ar
    60   138   140   am
    61   138   139    2
    62    28    29    2
    63   140   141    1
    64   133   135   ar
    65     6     7    1
    66     7     9   am
    67   142   141    1
    68   141   144    1
    69   101   100    2
    70    97    96   ar
    71    97    95   ar
    72    96    94   ar
    73   144   145    1
    74   144   146    1
    75   105   103    1
    76    77    75   ar
    77    77    76   ar
    78    75    73   ar
    79   100    99    1
    80   102   104    1
    81   102   103    1
    82   102    99    1
    83    95    93   ar
    84    98    99    1
    85    76    74   ar
    86    73    72   ar
    87    73    71   ar
    88    94    92   ar
    89    72    70   ar
    90    74    71   ar
    91    71    69   ar
    92    93    92   ar
    93    90    89    2
    94    92    91    1
    95    70    69   ar
    96    69    68    1
    97    89    88    1
    98    68    65    1
    99    42    40    1
   100    91    88    1
   101    88    87    1
   102    41    40    1
   103    40    37    1
   104    65    66    1
   105    65    64    1
   106    66    67    2
   107    54    53    1
   108    87    80   am
   109    51    53   ar
   110    51    49   ar
   111    53    52   ar
   112    49    48   ar
   113    52    50   ar
   114    37    36    1
   115    37    38    1
   116    81    80    2
   117    48    50   ar
   118    48    47    1
   119    80    79    1
   120    39    38    2
   121    62    61    2
   122    47    44    1
   123    79    78    1
   124    79    82    1
   125    61    63   am
   126    61    60    1
   127    44    43    1
   128    44    45    1
   129    82    83    1
   130    59    60    1
   131    59    56    1
   132    45    46    2
   133    55    56    1
   134    57    56    1
   135    57    58    2
   136    83    84    1
   137    84    85    1
   138    85    86    1
