@<TRIPOS>MOLECULE
tmp/4wy2A00.pdb
 253 245 0 0 0
SMALL
GASTEIGER

@<TRIPOS>ATOM
      1  N         -1.8790  -25.0320   11.3140 N.3    16  ASP16      -0.1225
      2  CA        -2.4420  -24.4310   12.5130 C.3    16  ASP16       0.1805
      3  C         -3.9680  -24.5740   12.5110 C.2    16  ASP16       0.2597
      4  O         -4.5970  -24.3930   11.4790 O.2    16  ASP16      -0.2718
      5  CB        -2.0800  -22.9390   12.6180 C.3    16  ASP16       0.1424
      6  CG        -2.5210  -22.3430   13.9220 C.2    16  ASP16       0.3668
      7  OD1       -2.0260  -22.8000   14.9680 O.co2  16  ASP16      -0.2456
      8  OD2       -3.3820  -21.4420   13.9330 O.co2  16  ASP16      -0.2456
      9  N         -4.5360  -24.8640   13.6780 N.am   17  GLN17      -0.1979
     10  CA        -5.9510  -25.1610   13.8410 C.3    17  GLN17       0.1601
     11  C         -6.6010  -24.2040   14.8180 C.2    17  GLN17       0.2287
     12  O         -6.6900  -24.4610   16.0370 O.2    17  GLN17      -0.2864
     13  CB        -6.1200  -26.6180   14.2870 C.3    17  GLN17       0.0394
     14  CG        -5.5540  -27.6340   13.3190 C.3    17  GLN17       0.0908
     15  CD        -6.2820  -27.6350   11.9810 C.2    17  GLN17       0.2608
     16  OE1       -7.4940  -27.5300   11.9570 O.2    17  GLN17      -0.2717
     17  NE2       -5.5500  -27.7410   10.8830 N.am   17  GLN17      -0.0878
     18  N         -9.2030  -25.8430   17.0270 N.3    20  LEU20      -0.1231
     19  CA        -8.6200  -26.5850   18.1730 C.3    20  LEU20       0.1693
     20  C         -8.1900  -25.6750   19.3050 C.2    20  LEU20       0.2592
     21  O         -8.4430  -25.9550   20.4840 O.2    20  LEU20      -0.2718
     22  CB        -7.4130  -27.3980   17.7650 C.3    20  LEU20       0.0284
     23  CG        -6.8560  -28.3790   18.7950 C.3    20  LEU20       0.0019
     24  CD1       -7.8880  -29.3510   19.3190 C.3    20  LEU20       0.0001
     25  CD2       -5.7010  -29.1600   18.1990 C.3    20  LEU20       0.0001
     26  N         -7.5130  -24.5890   18.9570 N.am   21  ARG21      -0.1966
     27  CA        -7.1030  -23.6020   19.9530 C.3    21  ARG21       0.1729
     28  C         -8.2840  -23.0750   20.7780 C.2    21  ARG21       0.2616
     29  O         -8.2170  -23.0040   22.0350 O.2    21  ARG21      -0.2715
     30  CB        -6.3690  -22.4600   19.2610 C.3    21  ARG21       0.0348
     31  CG        -5.9160  -21.3510   20.1800 C.3    21  ARG21       0.0492
     32  CD        -5.1410  -20.2820   19.4370 C.3    21  ARG21       0.2205
     33  NE        -3.8510  -20.7910   19.0120 N.pl3  21  ARG21      -0.0865
     34  CZ        -3.5220  -21.1610   17.7700 C.cat  21  ARG21       0.5346
     35  NH1       -2.3010  -21.6290   17.5400 N.pl3  21  ARG21       0.1354
     36  NH2       -4.3780  -21.0750   16.7610 N.pl3  21  ARG21       0.1354
     37  N         -9.3870  -22.7410   20.0960 N.am   22  ARG22      -0.1977
     38  CA       -10.5520  -22.2170   20.7730 C.3    22  ARG22       0.1597
     39  C        -11.1120  -23.2640   21.7250 C.2    22  ARG22       0.2287
     40  O        -11.4910  -22.9330   22.8580 O.2    22  ARG22      -0.2864
     41  CB       -11.6400  -21.7480   19.8010 C.3    22  ARG22       0.0334
     42  CG       -12.9090  -21.2540   20.5000 C.3    22  ARG22       0.0492
     43  CD       -12.6850  -20.0120   21.3700 C.3    22  ARG22       0.2205
     44  NE       -11.8320  -19.0280   20.7000 N.pl3  22  ARG22      -0.0865
     45  CZ       -12.2380  -18.1610   19.7770 C.cat  22  ARG22       0.5346
     46  NH1      -11.3600  -17.3620   19.1940 N.pl3  22  ARG22       0.1354
     47  NH2      -13.5140  -18.0910   19.4050 N.pl3  22  ARG22       0.1354
     48  N         -9.5170  -25.6650   23.2030 N.3    24  VAL24      -0.1231
     49  CA        -8.6050  -25.7810   24.3340 C.3    24  VAL24       0.1692
     50  C         -8.8530  -24.6630   25.3300 C.2    24  VAL24       0.2592
     51  O         -8.9010  -24.8930   26.5730 O.2    24  VAL24      -0.2718
     52  CB        -7.1330  -25.7850   23.8920 C.3    24  VAL24       0.0266
     53  CG1       -6.1780  -25.5660   25.0790 C.3    24  VAL24       0.0020
     54  CG2       -6.8190  -27.0810   23.2010 C.3    24  VAL24       0.0020
     55  N         -8.9900  -23.4470   24.8150 N.am   25  TYR25      -0.1976
     56  CA        -9.2720  -22.3100   25.6690 C.3    25  TYR25       0.1639
     57  C        -10.5170  -22.5890   26.5300 C.2    25  TYR25       0.2290
     58  O        -10.5560  -22.2710   27.7530 O.2    25  TYR25      -0.2864
     59  CB        -9.4830  -21.0700   24.7930 C.3    25  TYR25       0.0560
     60  CG        -9.7280  -19.8230   25.5680 C.ar   25  TYR25      -0.0198
     61  CD1       -8.6580  -19.0460   26.0000 C.ar   25  TYR25      -0.0009
     62  CD2      -11.0120  -19.4260   25.9130 C.ar   25  TYR25      -0.0009
     63  CE1       -8.8640  -17.8920   26.7270 C.ar   25  TYR25       0.0417
     64  CE2      -11.2160  -18.2800   26.6720 C.ar   25  TYR25       0.0417
     65  CZ       -10.1370  -17.5190   27.0440 C.ar   25  TYR25       0.1957
     66  OH       -10.3270  -16.3770   27.7730 O.3    25  TYR25      -0.2866
     67  N         -9.8760  -25.5050   29.2560 N.3    28  GLN28      -0.1231
     68  CA        -9.0300  -25.0210   30.3400 C.3    28  GLN28       0.1698
     69  C         -9.8490  -24.2840   31.3760 C.2    28  GLN28       0.2592
     70  O         -9.4890  -24.2460   32.5700 O.2    28  GLN28      -0.2718
     71  CB        -8.0070  -24.0350   29.8200 C.3    28  GLN28       0.0381
     72  CG        -6.9010  -24.6340   28.9880 C.3    28  GLN28       0.0905
     73  CD        -6.0370  -23.5690   28.3480 C.2    28  GLN28       0.2608
     74  OE1       -6.4740  -22.4290   28.1530 O.2    28  GLN28      -0.2717
     75  NE2       -4.8020  -23.9340   28.0090 N.am   28  GLN28      -0.0878
     76  N        -10.9250  -23.6460   30.9320 N.am   29  ARG29      -0.1980
     77  CA       -11.7530  -22.8770   31.8390 C.3    29  ARG29       0.1597
     78  C        -12.9700  -23.6040   32.3840 C.2    29  ARG29       0.2287
     79  O        -13.4400  -23.2800   33.4700 O.2    29  ARG29      -0.2864
     80  CB       -12.1400  -21.5620   31.1760 C.3    29  ARG29       0.0334
     81  CG       -10.9580  -20.6170   31.1870 C.3    29  ARG29       0.0492
     82  CD       -11.0190  -19.5780   30.0950 C.3    29  ARG29       0.2205
     83  NE        -9.7840  -18.8070   30.0860 N.pl3  29  ARG29      -0.0865
     84  CZ        -8.6300  -19.2510   29.5840 C.cat  29  ARG29       0.5346
     85  NH1       -8.5410  -20.4690   29.0500 N.pl3  29  ARG29       0.1354
     86  NH2       -7.5450  -18.4810   29.6440 N.pl3  29  ARG29       0.1354
     87  N          0.6920  -34.0270   15.9110 N.3    73  GLN73      -0.1231
     88  CA         1.7600  -33.0290   15.8500 C.3    73  GLN73       0.1698
     89  C          1.2390  -31.6290   16.1570 C.2    73  GLN73       0.2592
     90  O          1.7940  -30.9290   16.9850 O.2    73  GLN73      -0.2718
     91  CB         2.4640  -33.0560   14.4800 C.3    73  GLN73       0.0381
     92  CG         3.7720  -32.2330   14.4610 C.3    73  GLN73       0.0905
     93  CD         4.9420  -32.9550   15.1440 C.2    73  GLN73       0.2608
     94  OE1        4.8880  -33.2560   16.3270 O.2    73  GLN73      -0.2717
     95  NE2        5.9960  -33.2410   14.3820 N.am   73  GLN73      -0.0878
     96  N          0.1130  -31.2490   15.5660 N.am   74  GLN74      -0.1979
     97  CA        -0.5160  -29.9610   15.8870 C.3    74  GLN74       0.1601
     98  C         -1.0080  -29.8780   17.3400 C.2    74  GLN74       0.2287
     99  O         -0.9130  -28.8190   17.9710 O.2    74  GLN74      -0.2864
    100  CB        -1.6790  -29.6910   14.9330 C.3    74  GLN74       0.0394
    101  CG        -1.3230  -29.6950   13.4610 C.3    74  GLN74       0.0908
    102  CD        -0.0890  -28.8740   13.1510 C.2    74  GLN74       0.2608
    103  OE1        0.0060  -27.6980   13.5060 O.2    74  GLN74      -0.2717
    104  NE2        0.8690  -29.4980   12.4910 N.am   74  GLN74      -0.0878
    105  N          0.2250  -31.4260   20.0140 N.3    76  ARG76      -0.1231
    106  CA         1.1930  -31.9960   20.9690 C.3    76  ARG76       0.1694
    107  C          1.4180  -31.1470   22.2250 C.2    76  ARG76       0.2592
    108  O          1.5700  -31.7000   23.3190 O.2    76  ARG76      -0.2718
    109  CB         2.5210  -32.3160   20.2840 C.3    76  ARG76       0.0321
    110  CG         3.3750  -31.1110   19.9630 C.3    76  ARG76       0.0489
    111  CD         4.5490  -31.5040   19.0820 C.3    76  ARG76       0.2205
    112  NE         4.7850  -30.4470   18.1020 N.pl3  76  ARG76      -0.0865
    113  CZ         5.7990  -29.5840   18.1060 C.cat  76  ARG76       0.5346
    114  NH1        6.7630  -29.6300   19.0340 N.pl3  76  ARG76       0.1354
    115  NH2        5.8540  -28.6600   17.1490 N.pl3  76  ARG76       0.1354
    116  N          1.4640  -29.8290   22.0860 N.am   77  TYR77      -0.1962
    117  CA         1.6470  -28.9780   23.2900 C.3    77  TYR77       0.1771
    118  C          0.4250  -29.0320   24.2120 C.2    77  TYR77       0.2619
    119  O          0.5480  -29.0780   25.4600 O.2    77  TYR77      -0.2715
    120  CB         2.0040  -27.5430   22.9000 C.3    77  TYR77       0.0574
    121  CG         3.3640  -27.4660   22.2440 C.ar   77  TYR77      -0.0198
    122  CD1        4.5360  -27.4510   23.0200 C.ar   77  TYR77      -0.0009
    123  CD2        3.4940  -27.4380   20.8590 C.ar   77  TYR77      -0.0009
    124  CE1        5.7940  -27.4010   22.4280 C.ar   77  TYR77       0.0417
    125  CE2        4.7430  -27.3840   20.2590 C.ar   77  TYR77       0.0417
    126  CZ         5.8920  -27.3700   21.0410 C.ar   77  TYR77       0.1957
    127  OH         7.1430  -27.3170   20.4430 O.3    77  TYR77      -0.2866
    128  N         -0.7570  -29.0220   23.6170 N.am   78  TYR78      -0.1974
    129  CA        -2.0060  -29.1820   24.3760 C.3    78  TYR78       0.1639
    130  C         -2.0550  -30.5080   25.1320 C.2    78  TYR78       0.2290
    131  O         -2.3870  -30.5520   26.3280 O.2    78  TYR78      -0.2864
    132  CB        -3.2450  -29.0620   23.4520 C.3    78  TYR78       0.0560
    133  CG        -3.3500  -27.7530   22.6890 C.ar   78  TYR78      -0.0198
    134  CD1       -3.1140  -26.5260   23.3090 C.ar   78  TYR78      -0.0009
    135  CD2       -3.6980  -27.7520   21.3340 C.ar   78  TYR78      -0.0009
    136  CE1       -3.2070  -25.3440   22.6010 C.ar   78  TYR78       0.0417
    137  CE2       -3.8050  -26.5780   20.6230 C.ar   78  TYR78       0.0417
    138  CZ        -3.5590  -25.3840   21.2450 C.ar   78  TYR78       0.1957
    139  OH        -3.6770  -24.2380   20.5150 O.3    78  TYR78      -0.2866
    140  N        -20.1230  -23.2370   16.1010 N.3   142  TRP142     -0.1241
    141  CA       -19.2810  -22.0810   16.4080 C.3   142  TRP142      0.1605
    142  C        -18.2420  -21.9090   15.2960 C.2   142  TRP142      0.2264
    143  O        -17.2930  -22.7100   15.1920 O.2   142  TRP142     -0.2867
    144  CB       -18.5770  -22.2920   17.7390 C.3   142  TRP142      0.0550
    145  CG       -17.8570  -21.0720   18.3490 C.ar  142  TRP142      0.0003
    146  CD1      -17.3140  -20.0040   17.6850 C.ar  142  TRP142      0.0946
    147  CD2      -17.5680  -20.8490   19.7430 C.ar  142  TRP142      0.0152
    148  NE1      -16.7420  -19.1320   18.5720 N.ar  142  TRP142     -0.2442
    149  CE2      -16.8600  -19.6400   19.8370 C.ar  142  TRP142      0.0810
    150  CE3      -17.8600  -21.5470   20.9100 C.ar  142  TRP142      0.0012
    151  CZ2      -16.4620  -19.0920   21.0600 C.ar  142  TRP142      0.0191
    152  CZ3      -17.4550  -21.0200   22.1170 C.ar  142  TRP142      0.0001
    153  CH2      -16.7590  -19.8090   22.1880 C.ar  142  TRP142      0.0015
    154  N         -7.2120  -12.8490   15.9300 N.3   148  GLU148     -0.1231
    155  CA        -7.2590  -12.7140   17.3830 C.3   148  GLU148      0.1699
    156  C         -8.6330  -12.2430   17.8250 C.2   148  GLU148      0.2592
    157  O         -9.2820  -11.4700   17.1220 O.2   148  GLU148     -0.2718
    158  CB        -6.1760  -11.7690   17.9170 C.3   148  GLU148      0.0402
    159  CG        -6.4500  -10.2740   17.7720 C.3   148  GLU148      0.1161
    160  CD        -5.5010   -9.4330   18.6200 C.2   148  GLU148      0.3649
    161  OE1       -5.8760   -8.2940   18.9850 O.co2 148  GLU148     -0.2457
    162  OE2       -4.3990   -9.9280   18.9440 O.co2 148  GLU148     -0.2457
    163  N         -9.0590  -12.7400   18.9820 N.am  149  TRP149     -0.1976
    164  CA       -10.2610  -12.2860   19.6350 C.3   149  TRP149      0.1640
    165  C        -10.0120  -10.8610   20.1120 C.2   149  TRP149      0.2290
    166  O         -8.9720  -10.5850   20.6950 O.2   149  TRP149     -0.2864
    167  CB       -10.5640  -13.1870   20.8210 C.3   149  TRP149      0.0576
    168  CG       -11.8030  -12.8590   21.5570 C.ar  149  TRP149      0.0006
    169  CD1      -11.9230  -12.0180   22.6290 C.ar  149  TRP149      0.0946
    170  CD2      -13.0980  -13.4070   21.3300 C.ar  149  TRP149      0.0152
    171  NE1      -13.2200  -12.0020   23.0710 N.ar  149  TRP149     -0.2442
    172  CE2      -13.9680  -12.8280   22.2740 C.ar  149  TRP149      0.0810
    173  CE3      -13.6170  -14.3140   20.3970 C.ar  149  TRP149      0.0012
    174  CZ2      -15.3140  -13.1430   22.3350 C.ar  149  TRP149      0.0191
    175  CZ3      -14.9520  -14.6230   20.4580 C.ar  149  TRP149      0.0001
    176  CH2      -15.7900  -14.0470   21.4310 C.ar  149  TRP149      0.0015
    177  N        -20.2460   -9.9010   23.4570 N.3   155  ILE155     -0.1245
    178  CA       -21.0080  -11.0580   23.0100 C.3   155  ILE155      0.1561
    179  C        -22.3880  -10.5330   22.6130 C.2   155  ILE155      0.2260
    180  O        -23.1340  -10.0410   23.4580 O.2   155  ILE155     -0.2867
    181  CB       -21.0980  -12.1070   24.1490 C.3   155  ILE155      0.0252
    182  CG1      -19.6990  -12.5800   24.5450 C.3   155  ILE155      0.0019
    183  CG2      -21.8980  -13.3200   23.7200 C.3   155  ILE155      0.0019
    184  CD1      -19.6200  -13.2270   25.9060 C.3   155  ILE155      0.0001
    185  N        -28.3150  -19.9790   26.7660 N.3   178  LEU178     -0.1231
    186  CA       -27.0840  -20.6170   26.4020 C.3   178  LEU178      0.1693
    187  C        -25.9510  -19.5940   26.4380 C.2   178  LEU178      0.2592
    188  O        -24.8640  -19.8840   26.9590 O.2   178  LEU178     -0.2718
    189  CB       -27.2080  -21.3060   25.0230 C.3   178  LEU178      0.0284
    190  CG       -25.9790  -22.1170   24.5910 C.3   178  LEU178      0.0019
    191  CD1      -26.3550  -23.1760   23.5510 C.3   178  LEU178      0.0001
    192  CD2      -24.8600  -21.2410   24.0330 C.3   178  LEU178      0.0001
    193  N        -26.1860  -18.3980   25.9110 N.am  179  THR179     -0.1953
    194  CA       -25.1380  -17.3830   25.8750 C.3   179  THR179      0.1897
    195  C        -24.7180  -17.0240   27.3040 C.2   179  THR179      0.2313
    196  O        -23.5440  -16.9360   27.6150 O.2   179  THR179     -0.2863
    197  CB       -25.6110  -16.1300   25.1320 C.3   179  THR179      0.1794
    198  OG1      -25.8230  -16.4770   23.7450 O.3   179  THR179     -0.2208
    199  CG2      -24.5880  -14.9990   25.2400 C.3   179  THR179      0.0378
    200  N        -22.8670  -20.3580   28.9550 N.3   182  LEU182     -0.1231
    201  CA       -21.5560  -20.6380   28.3750 C.3   182  LEU182      0.1693
    202  C        -20.5630  -19.4890   28.5830 C.2   182  LEU182      0.2592
    203  O        -19.4090  -19.7380   28.8860 O.2   182  LEU182     -0.2718
    204  CB       -21.7050  -20.9410   26.8710 C.3   182  LEU182      0.0284
    205  CG       -20.4620  -21.3510   26.0620 C.3   182  LEU182      0.0019
    206  CD1      -19.6890  -22.4920   26.6870 C.3   182  LEU182      0.0001
    207  CD2      -20.8400  -21.6970   24.6270 C.3   182  LEU182      0.0001
    208  N        -20.9940  -18.2360   28.4040 N.am  183  SER183     -0.1952
    209  CA       -20.0610  -17.1120   28.5340 C.3   183  SER183      0.1924
    210  C        -19.5010  -17.0160   29.9520 C.2   183  SER183      0.2314
    211  O        -18.3410  -16.6610   30.1470 O.2   183  SER183     -0.2863
    212  CB       -20.6920  -15.7800   28.1320 C.3   183  SER183      0.2116
    213  OG       -21.7760  -15.3760   28.9450 O.3   183  SER183     -0.2180
    214  N        -16.7210  -19.4640   30.6800 N.3   186  ILE186     -0.1231
    215  CA       -15.4950  -19.2130   29.9360 C.3   186  ILE186      0.1692
    216  C        -14.8170  -17.9160   30.3320 C.2   186  ILE186      0.2591
    217  O        -13.5960  -17.8800   30.4240 O.2   186  ILE186     -0.2718
    218  CB       -15.8010  -19.1740   28.4170 C.3   186  ILE186      0.0266
    219  CG1      -16.3510  -20.5140   28.0060 C.3   186  ILE186      0.0019
    220  CG2      -14.5430  -18.7800   27.6540 C.3   186  ILE186      0.0020
    221  CD1      -16.6510  -20.5800   26.5070 C.3   186  ILE186      0.0001
    222  N        -15.5960  -16.8710   30.6180 N.am  187  GLN187     -0.1979
    223  CA       -15.0590  -15.5570   30.9050 C.3   187  GLN187      0.1601
    224  C        -15.4270  -15.1550   32.3320 C.2   187  GLN187      0.2287
    225  O        -16.5060  -15.4770   32.8060 O.2   187  GLN187     -0.2864
    226  CB       -15.6360  -14.5250   29.9450 C.3   187  GLN187      0.0394
    227  CG       -15.3140  -14.7960   28.4850 C.3   187  GLN187      0.0908
    228  CD       -15.5170  -13.5580   27.6270 C.2   187  GLN187      0.2608
    229  OE1      -16.6140  -13.0100   27.5810 O.2   187  GLN187     -0.2717
    230  NE2      -14.4550  -13.1080   26.9400 N.am  187  GLN187     -0.0878
    231  N        -18.2320  -12.0750   18.9810 N.3   265  ILE265     -0.1245
    232  CA       -19.0800  -13.1280   18.4850 C.3   265  ILE265      0.1561
    233  C        -20.5140  -12.6300   18.3790 C.2   265  ILE265      0.2260
    234  O        -20.9460  -11.7630   19.1720 O.2   265  ILE265     -0.2867
    235  CB       -18.9560  -14.3770   19.3890 C.3   265  ILE265      0.0252
    236  CG1      -19.6560  -15.5790   18.7680 C.3   265  ILE265      0.0019
    237  CG2      -19.4520  -14.0790   20.7990 C.3   265  ILE265      0.0019
    238  CD1      -19.2120  -16.9010   19.3780 C.3   265  ILE265      0.0001
    239  N        -24.3970  -14.3170   18.2440 N.3   267  VAL267     -0.1245
    240  CA       -25.1570  -15.5140   18.4650 C.3   267  VAL267      0.1561
    241  C        -26.5150  -15.3800   17.7720 C.2   267  VAL267      0.2260
    242  O        -27.2130  -14.3840   17.9810 O.2   267  VAL267     -0.2867
    243  CB       -25.3530  -15.7530   19.9620 C.3   267  VAL267      0.0252
    244  CG1      -26.0330  -17.0790   20.1750 C.3   267  VAL267      0.0019
    245  CG2      -24.0380  -15.6720   20.6940 C.3   267  VAL267      0.0019
    246  N        -21.9420  -17.9670   16.3950 N.3   295  LEU295     -0.1245
    247  CA       -22.4910  -19.1190   17.0750 C.3   295  LEU295      0.1561
    248  C        -23.9410  -19.2930   16.6340 C.2   295  LEU295      0.2260
    249  O        -24.8140  -18.4850   16.9920 O.2   295  LEU295     -0.2867
    250  CB       -22.3740  -18.9580   18.5980 C.3   295  LEU295      0.0270
    251  CG       -22.8710  -20.1710   19.3930 C.3   295  LEU295      0.0019
    252  CD1      -22.0380  -21.4300   19.1700 C.3   295  LEU295      0.0001
    253  CD2      -22.8560  -19.8120   20.8800 C.3   295  LEU295      0.0001
@<TRIPOS>BOND
     1    17    15   am
     2     1     2    1
     3     4     3    2
     4    16    15    2
     5    15    14    1
     6   104   102   am
     7     3     2    1
     8     3     9   am
     9     2     5    1
    10     5     6    1
    11   102   101    1
    12   102   103    2
    13    14    13    1
    14   101   100    1
    15     9    10    1
    16    10    13    1
    17    10    11    1
    18     6     8   ar
    19     6     7   ar
    20    95    93   am
    21    92    91    1
    22    92    93    1
    23    91    88    1
    24    11    12    2
    25   100    97    1
    26    93    94    2
    27   143   142    2
    28   142   141    1
    29    96    97    1
    30    96    89   am
    31    88    87    1
    32    88    89    1
    33    97    98    1
    34   154   155    1
    35   140   141    1
    36    89    90    2
    37   246   247    1
    38   141   144    1
    39   248   249    2
    40   248   247    1
    41    36    34    1
    42    18    19    1
    43   247   250    1
    44   157   156    2
    45   115   113    1
    46    98    99    2
    47   155   156    1
    48   155   158    1
    49    35    34    1
    50   146   145   ar
    51   146   148   ar
    52   144   145    1
    53    22    19    1
    54    22    23    1
    55    34    33    2
    56   159   158    1
    57   159   160    1
    58   241   242    2
    59   241   240    1
    60   156   163   am
    61   112   113    2
    62   112   111    1
    63   113   114    1
    64    19    20    1
    65    25    23    1
    66   239   240    1
    67   145   147   ar
    68   233   232    1
    69   233   234    2
    70   240   243    1
    71   232   231    1
    72   232   235    1
    73   148   149   ar
    74   250   251    1
    75   160   162   ar
    76   160   161   ar
    77   236   238    1
    78   236   235    1
    79    23    24    1
    80    26    20   am
    81    26    27    1
    82   163   164    1
    83    33    32    1
    84   111   110    1
    85   252   251    1
    86    46    45    1
    87    30    27    1
    88    30    31    1
    89    20    21    2
    90   235   237    1
    91   251   253    1
    92    47    45    1
    93    32    31    1
    94   164   165    1
    95   164   167    1
    96   147   149   ar
    97   147   150   ar
    98    45    44    2
    99    41    42    1
   100    41    38    1
   101   149   151   ar
   102    27    28    1
   103   243   244    1
   104   243   245    1
   105   110   109    1
   106   105   106    1
   107    37    38    1
   108    37    28   am
   109   165   166    2
   110   125   123   ar
   111   125   126   ar
   112   109   106    1
   113   173   175   ar
   114   173   170   ar
   115   127   126    1
   116   175   176   ar
   117    42    43    1
   118   139   138    1
   119   137   138   ar
   120   137   135   ar
   121    44    43    1
   122    38    39    1
   123    28    29    2
   124   167   168    1
   125   123   121   ar
   126   150   152   ar
   127   106   107    1
   128   126   124   ar
   129   151   153   ar
   130   138   136   ar
   131   170   168   ar
   132   170   172   ar
   133   135   133   ar
   134   176   174   ar
   135   168   169   ar
   136    39    40    2
   137   116   107   am
   138   116   117    1
   139   152   153   ar
   140   107   108    2
   141   121   120    1
   142   121   122   ar
   143   172   174   ar
   144   172   171   ar
   145   124   122   ar
   146   136   134   ar
   147   179   178    1
   148   179   180    2
   149   169   171   ar
   150   133   134   ar
   151   133   132    1
   152   120   117    1
   153   178   177    1
   154   178   181    1
   155    54    52    1
   156    48    49    1
   157   117   118    1
   158   132   129    1
   159   191   190    1
   160   128   118   am
   161   128   129    1
   162   183   181    1
   163   198   197    1
   164    52    49    1
   165    52    53    1
   166   192   190    1
   167   181   182    1
   168   118   119    2
   169    49    50    1
   170   129   130    1
   171   182   184    1
   172   190   189    1
   173   207   205    1
   174    59    60    1
   175    59    56    1
   176    55    50   am
   177    55    56    1
   178   189   186    1
   179   197   199    1
   180   197   194    1
   181   130   131    2
   182    50    51    2
   183    60    62   ar
   184    60    61   ar
   185    56    57    1
   186   194   193    1
   187   194   195    1
   188   193   187   am
   189    62    64   ar
   190    61    63   ar
   191   205   206    1
   192   205   204    1
   193   186   187    1
   194   186   185    1
   195   187   188    2
   196   221   219    1
   197    57    58    2
   198    64    65   ar
   199    63    65   ar
   200   204   201    1
   201   230   228   am
   202    65    66    1
   203   195   196    2
   204   229   228    2
   205   228   227    1
   206   220   218    1
   207   219   218    1
   208    75    73   am
   209   212   209    1
   210   212   213    1
   211    74    73    2
   212    73    72    1
   213   201   202    1
   214   201   200    1
   215   208   209    1
   216   208   202   am
   217   218   215    1
   218   227   226    1
   219   209   210    1
   220   202   203    2
   221    72    71    1
   222    85    84    1
   223    67    68    1
   224    84    86    1
   225    84    83    2
   226    71    68    1
   227   215   216    1
   228   215   214    1
   229   226   223    1
   230   210   211    2
   231    83    82    1
   232    82    81    1
   233   216   217    2
   234   216   222   am
   235    68    69    1
   236   222   223    1
   237   223   224    1
   238    76    69   am
   239    76    77    1
   240    80    81    1
   241    80    77    1
   242    69    70    2
   243    77    78    1
   244   224   225    2
   245    78    79    2
