@<TRIPOS>MOLECULE
tmp/4wydA02.pdb
 119 120 0 0 0
SMALL
GASTEIGER

@<TRIPOS>ATOM
      1  N          8.8290    4.8510   14.2960 N.3    16  HIS16      -0.1227
      2  CA         8.8620    3.3920   14.2760 C.3    16  HIS16       0.1737
      3  C          9.3560    2.8160   15.6180 C.2    16  HIS16       0.2438
      4  O          9.9300    3.5390   16.4350 O.2    16  HIS16      -0.2733
      5  CB         9.6930    2.9190   13.0820 C.3    16  HIS16       0.0758
      6  CG         8.9320    2.9550   11.7980 C.ar   16  HIS16       0.0818
      7  ND1        8.3420    1.8330   11.2480 N.ar   16  HIS16      -0.2268
      8  CD2        8.6170    3.9880   10.9800 C.ar   16  HIS16       0.1154
      9  CE1        7.7170    2.1730   10.1350 C.ar   16  HIS16       0.1986
     10  NE2        7.8680    3.4740    9.9500 N.ar   16  HIS16      -0.2212
     11  N          9.1130    1.5090   15.8550 N.am   17  PRO17      -0.2718
     12  CA         9.4660    0.9180   17.1540 C.3    17  PRO17       0.1535
     13  C         10.9490    1.0460   17.4790 C.2    17  PRO17       0.2599
     14  O         11.7900    0.9150   16.5830 O.2    17  PRO17      -0.2715
     15  CB         9.1140   -0.5680   16.9850 C.3    17  PRO17       0.0310
     16  CG         8.2040   -0.6340   15.8400 C.3    17  PRO17       0.0237
     17  CD         8.4410    0.5390   14.9690 C.3    17  PRO17       0.0939
     18  N         11.2560    1.3160   18.7420 N.am   18  TYR18      -0.1960
     19  CA        12.6100    1.1590   19.2610 C.3    18  TYR18       0.1771
     20  C         13.6230    1.9570   18.4490 C.2    18  TYR18       0.2620
     21  O         14.7310    1.4960   18.2150 O.2    18  TYR18      -0.2715
     22  CB        12.9810   -0.3340   19.3030 C.3    18  TYR18       0.0574
     23  CG        11.9450   -1.1630   20.0360 C.ar   18  TYR18      -0.0198
     24  CD1       11.6220   -0.8800   21.3560 C.ar   18  TYR18      -0.0009
     25  CD2       11.2840   -2.2130   19.4070 C.ar   18  TYR18      -0.0009
     26  CE1       10.6630   -1.6090   22.0330 C.ar   18  TYR18       0.0417
     27  CE2       10.3300   -2.9720   20.0770 C.ar   18  TYR18       0.0417
     28  CZ        10.0280   -2.6560   21.3890 C.ar   18  TYR18       0.1957
     29  OH         9.0810   -3.3820   22.0680 O.3    18  TYR18      -0.2866
     30  N         13.2510    3.1680   18.0520 N.am   19  SER19      -0.1936
     31  CA        14.0580    3.9020   17.0830 C.3    19  SER19       0.2055
     32  C         14.2350    5.3700   17.4340 C.2    19  SER19       0.2643
     33  O         13.5350    5.9220   18.2910 O.2    19  SER19      -0.2714
     34  CB        13.4400    3.7740   15.6930 C.3    19  SER19       0.2130
     35  OG        12.2460    4.5270   15.6260 O.3    19  SER19      -0.2179
     36  N         15.1890    5.9870   16.7490 N.am   20  SER20      -0.1949
     37  CA        15.4100    7.4190   16.8240 C.3    20  SER20       0.1924
     38  C         14.9230    8.0070   15.5250 C.2    20  SER20       0.2314
     39  O         15.5740    7.8560   14.4890 O.2    20  SER20      -0.2863
     40  CB        16.8960    7.7070   16.9800 C.3    20  SER20       0.2116
     41  OG        17.4090    7.1140   18.1560 O.3    20  SER20      -0.2180
     42  N         16.8270    9.4240   12.3110 N.3    23  ARG23      -0.1231
     43  CA        18.2270    9.0630   12.5270 C.3    23  ARG23       0.1694
     44  C         18.5590    7.6050   12.2340 C.2    23  ARG23       0.2591
     45  O         19.6590    7.1490   12.5430 O.2    23  ARG23      -0.2718
     46  CB        18.6380    9.3730   13.9660 C.3    23  ARG23       0.0321
     47  CG        18.9660   10.8180   14.2250 C.3    23  ARG23       0.0489
     48  CD        19.2040   11.0390   15.7030 C.3    23  ARG23       0.2205
     49  NE        19.7400   12.3670   15.9750 N.pl3  23  ARG23      -0.0865
     50  CZ        19.0210   13.4840   15.9580 C.cat  23  ARG23       0.5346
     51  NH1       17.7260   13.4460   15.6700 N.pl3  23  ARG23       0.1354
     52  NH2       19.6010   14.6450   16.2160 N.pl3  23  ARG23       0.1354
     53  N         17.6200    6.8700   11.6510 N.am   24  GLU24      -0.1979
     54  CA        17.8480    5.4480   11.3870 C.3    24  GLU24       0.1602
     55  C         18.5200    5.2100   10.0410 C.2    24  GLU24       0.2287
     56  O         18.0910    5.7510    9.0220 O.2    24  GLU24      -0.2864
     57  CB        16.5400    4.6580   11.4800 C.3    24  GLU24       0.0415
     58  CG        15.9520    4.6280   12.8770 C.3    24  GLU24       0.1163
     59  CD        16.8680    3.9510   13.8840 C.2    24  GLU24       0.3649
     60  OE1       16.7830    4.2860   15.0850 O.co2  24  GLU24      -0.2457
     61  OE2       17.6710    3.0810   13.4820 O.co2  24  GLU24      -0.2457
     62  N         18.6830    2.3710    8.4010 N.3    26  VAL26      -0.1245
     63  CA        17.8700    1.4870    7.5720 C.3    26  VAL26       0.1561
     64  C         16.4050    1.9210    7.5830 C.2    26  VAL26       0.2260
     65  O         15.7140    1.8180    8.6020 O.2    26  VAL26      -0.2867
     66  CB        17.9950    0.0180    8.0250 C.3    26  VAL26       0.0252
     67  CG1       17.1320   -0.8880    7.1500 C.3    26  VAL26       0.0019
     68  CG2       19.4610   -0.4250    7.9890 C.3    26  VAL26       0.0019
     69  N          6.3280  -10.4410   13.9490 N.3    57  TRP57      -0.1241
     70  CA         6.5990  -10.3730   15.3850 C.3    57  TRP57       0.1605
     71  C          5.8420  -11.4560   16.1460 C.2    57  TRP57       0.2264
     72  O          5.2740  -11.2210   17.2220 O.2    57  TRP57      -0.2867
     73  CB         6.3640   -8.9680   15.9590 C.3    57  TRP57       0.0550
     74  CG         7.6390   -8.1880   16.2000 C.ar   57  TRP57       0.0003
     75  CD1        8.8980   -8.6970   16.3960 C.ar   57  TRP57       0.0946
     76  CD2        7.7620   -6.7690   16.2990 C.ar   57  TRP57       0.0152
     77  NE1        9.7980   -7.6710   16.5940 N.ar   57  TRP57      -0.2442
     78  CE2        9.1220   -6.4790   16.5440 C.ar   57  TRP57       0.0810
     79  CE3        6.8530   -5.7140   16.1980 C.ar   57  TRP57       0.0012
     80  CZ2        9.5890   -5.1760   16.6930 C.ar   57  TRP57       0.0191
     81  CZ3        7.3170   -4.4210   16.3530 C.ar   57  TRP57       0.0001
     82  CH2        8.6740   -4.1640   16.5880 C.ar   57  TRP57       0.0015
     83  N         21.8760   -4.5070   10.4050 N.3   378  LEU378     -0.1245
     84  CA        20.6740   -4.5990    9.5810 C.3   378  LEU378      0.1561
     85  C         20.8850   -4.1090    8.1500 C.2   378  LEU378      0.2260
     86  O         20.1850   -4.5450    7.2470 O.2   378  LEU378     -0.2867
     87  CB        19.5280   -3.8170   10.2060 C.3   378  LEU378      0.0270
     88  CG        18.9720   -4.3760   11.5130 C.3   378  LEU378      0.0019
     89  CD1       17.8150   -3.5190   12.0000 C.3   378  LEU378      0.0001
     90  CD2       18.5380   -5.8240   11.3290 C.3   378  LEU378      0.0001
     91  N         14.1340  -10.1510   10.5570 N.3   393  ARG393     -0.1231
     92  CA        14.4360   -8.9760   11.3620 C.3   393  ARG393      0.1679
     93  C         15.3280   -9.3880   12.5280 C.2   393  ARG393      0.2434
     94  O         14.8450   -9.7230   13.6120 O.2   393  ARG393     -0.2733
     95  CB        13.1580   -8.2850   11.8590 C.3   393  ARG393      0.0321
     96  CG        13.3910   -6.8860   12.4380 C.3   393  ARG393      0.0489
     97  CD        13.9610   -5.9930   11.3630 C.3   393  ARG393      0.2205
     98  NE        13.9640   -4.5850   11.7330 N.pl3 393  ARG393     -0.0865
     99  CZ        14.2950   -3.6070   10.9010 C.cat 393  ARG393      0.5346
    100  NH1       14.6730   -3.8830    9.6520 N.pl3 393  ARG393      0.1354
    101  NH2       14.2340   -2.3520   11.3100 N.pl3 393  ARG393      0.1354
    102  N         16.6460   -9.3790   12.3010 N.am  394  PRO394     -0.2718
    103  CA        17.5860   -9.6500   13.3910 C.3   394  PRO394      0.1535
    104  C         17.4680   -8.5910   14.4710 C.2   394  PRO394      0.2598
    105  O         16.9710   -7.4970   14.2110 O.2   394  PRO394     -0.2715
    106  CB        18.9530   -9.5410   12.7040 C.3   394  PRO394      0.0310
    107  CG        18.6690   -9.8630   11.2760 C.3   394  PRO394      0.0237
    108  CD        17.3270   -9.2380   11.0040 C.3   394  PRO394      0.0939
    109  N         17.9080   -8.9340   15.6760 N.am  395  PHE395     -0.1974
    110  CA        18.1410   -7.9320   16.7060 C.3   395  PHE395      0.1639
    111  C         19.3390   -8.3770   17.5100 C.2   395  PHE395      0.2290
    112  O         19.6580   -9.5680   17.5420 O.2   395  PHE395     -0.2864
    113  CB        16.8930   -7.6680   17.5700 C.3   395  PHE395      0.0560
    114  CG        16.5230   -8.7830   18.5060 C.ar  395  PHE395     -0.0200
    115  CD1       16.7630   -8.6570   19.8620 C.ar  395  PHE395     -0.0042
    116  CD2       15.8730   -9.9180   18.0500 C.ar  395  PHE395     -0.0042
    117  CE1       16.4040   -9.6580   20.7400 C.ar  395  PHE395     -0.0003
    118  CE2       15.5080  -10.9290   18.9320 C.ar  395  PHE395     -0.0003
    119  CZ        15.7820  -10.7960   20.2780 C.ar  395  PHE395     -0.0000
@<TRIPOS>BOND
     1    67    66    1
     2    86    85    2
     3    63    64    1
     4    63    66    1
     5    63    62    1
     6    64    65    2
     7    68    66    1
     8    85    84    1
     9    56    55    2
    10    84    87    1
    11    84    83    1
    12   100    99    1
    13    10     9   ar
    14    10     8   ar
    15    55    54    1
    16     9     7   ar
    17    87    88    1
    18    91    92    1
    19    99   101    1
    20    99    98    2
    21     8     6   ar
    22   108   107    1
    23   108   102    1
    24     7     6   ar
    25   107   106    1
    26    90    88    1
    27    92    95    1
    28    92    93    1
    29    97    98    1
    30    97    96    1
    31    54    57    1
    32    54    53    1
    33    57    58    1
    34    88    89    1
    35    53    44   am
    36     6     5    1
    37    95    96    1
    38    44    43    1
    39    44    45    2
    40   102    93   am
    41   102   103    1
    42    42    43    1
    43    43    46    1
    44    93    94    2
    45   106   103    1
    46    58    59    1
    47     5     2    1
    48   103   104    1
    49    61    59   ar
    50    59    60   ar
    51    69    70    1
    52    46    47    1
    53   105   104    2
    54    47    48    1
    55     2     1    1
    56     2     3    1
    57   104   109   am
    58    39    38    2
    59    17    16    1
    60    17    11    1
    61    70    73    1
    62    70    71    1
    63    38    37    1
    64     3    11   am
    65     3     4    2
    66    35    34    1
    67    51    50    1
    68   109   110    1
    69    34    31    1
    70    48    49    1
    71    16    15    1
    72    11    12    1
    73    50    49    2
    74    50    52    1
    75    73    74    1
    76    71    72    2
    77    79    76   ar
    78    79    81   ar
    79    74    76   ar
    80    74    75   ar
    81    76    78   ar
    82    81    82   ar
    83    75    77   ar
    84    78    77   ar
    85    78    80   ar
    86    14    13    2
    87    82    80   ar
    88   110   111    1
    89   110   113    1
    90    36    37    1
    91    36    32   am
    92    37    40    1
    93    40    41    1
    94    15    12    1
    95    31    32    1
    96    31    30    1
    97    12    13    1
    98    32    33    2
    99    13    18   am
   100   111   112    2
   101   113   114    1
   102   116   114   ar
   103   116   118   ar
   104    30    20   am
   105    21    20    2
   106    20    19    1
   107   114   115   ar
   108    18    19    1
   109   118   119   ar
   110    19    22    1
   111    22    23    1
   112    25    23   ar
   113    25    27   ar
   114   115   117   ar
   115    23    24   ar
   116    27    28   ar
   117   119   117   ar
   118    24    26   ar
   119    28    26   ar
   120    28    29    1
