@<TRIPOS>MOLECULE
tmp/4wydA00.pdb
 127 122 0 0 0
SMALL
GASTEIGER

@<TRIPOS>ATOM
      1  N         11.2560    1.3160   18.7420 N.3    18  TYR18      -0.1241
      2  CA        12.6100    1.1590   19.2610 C.3    18  TYR18       0.1605
      3  C         13.6230    1.9570   18.4490 C.2    18  TYR18       0.2264
      4  O         14.7310    1.4960   18.2150 O.2    18  TYR18      -0.2867
      5  CB        12.9810   -0.3340   19.3030 C.3    18  TYR18       0.0534
      6  CG        11.9450   -1.1630   20.0360 C.ar   18  TYR18      -0.0201
      7  CD1       11.6220   -0.8800   21.3560 C.ar   18  TYR18      -0.0009
      8  CD2       11.2840   -2.2130   19.4070 C.ar   18  TYR18      -0.0009
      9  CE1       10.6630   -1.6090   22.0330 C.ar   18  TYR18       0.0417
     10  CE2       10.3300   -2.9720   20.0770 C.ar   18  TYR18       0.0417
     11  CZ        10.0280   -2.6560   21.3890 C.ar   18  TYR18       0.1957
     12  OH         9.0810   -3.3820   22.0680 O.3    18  TYR18      -0.2866
     13  N          5.8350  -12.6500   15.5630 N.3    58  TRP58      -0.1241
     14  CA         5.5210  -13.8840   16.2860 C.3    58  TRP58       0.1605
     15  C          4.0190  -14.0250   16.4960 C.2    58  TRP58       0.2264
     16  O          3.5830  -14.6360   17.4660 O.2    58  TRP58      -0.2867
     17  CB         6.2680  -13.9810   17.6350 C.3    58  TRP58       0.0550
     18  CG         7.6740  -13.4220   17.6740 C.ar   58  TRP58       0.0003
     19  CD1        8.5140  -13.1740   16.6150 C.ar   58  TRP58       0.0946
     20  CD2        8.3790  -13.0040   18.8460 C.ar   58  TRP58       0.0152
     21  NE1        9.7040  -12.6420   17.0700 N.ar   58  TRP58      -0.2442
     22  CE2        9.6450  -12.5290   18.4340 C.ar   58  TRP58       0.0810
     23  CE3        8.0650  -12.9910   20.2090 C.ar   58  TRP58       0.0012
     24  CZ2       10.5880  -12.0490   19.3300 C.ar   58  TRP58       0.0191
     25  CZ3        9.0010  -12.5200   21.0980 C.ar   58  TRP58       0.0001
     26  CH2       10.2560  -12.0530   20.6580 C.ar   58  TRP58       0.0015
     27  N         -3.3800   -5.2760   24.8430 N.3   116  SER116     -0.1202
     28  CA        -1.9960   -5.5220   24.4580 C.3   116  SER116      0.2020
     29  C         -1.2240   -6.2850   25.4940 C.2   116  SER116      0.2619
     30  O         -1.5900   -6.3150   26.6690 O.2   116  SER116     -0.2717
     31  CB        -1.2410   -4.2360   24.1560 C.3   116  SER116      0.2103
     32  OG        -0.9730   -3.5070   25.3510 O.3   116  SER116     -0.2182
     33  N         -0.1250   -6.8760   25.0540 N.am  117  GLY117     -0.1942
     34  CA         0.6850   -7.7080   25.9170 C.3   117  GLY117      0.2014
     35  C          1.2280   -6.9420   27.1080 C.2   117  GLY117      0.2639
     36  O          1.1410   -7.4250   28.2360 O.2   117  GLY117     -0.2714
     37  N          1.7820   -5.7560   26.8810 N.am  118  SER118     -0.1949
     38  CA         2.3260   -4.9720   27.9890 C.3   118  SER118      0.1924
     39  C          1.2440   -4.6810   29.0330 C.2   118  SER118      0.2314
     40  O          1.5000   -4.7890   30.2340 O.2   118  SER118     -0.2863
     41  CB         2.9250   -3.6660   27.4880 C.3   118  SER118      0.2116
     42  OG         4.0810   -3.9270   26.7070 O.3   118  SER118     -0.2180
     43  N          0.5410   -7.6550   31.2340 N.3   121  VAL121     -0.1245
     44  CA         1.5600   -7.8180   32.2640 C.3   121  VAL121      0.1561
     45  C          1.2900   -6.8690   33.4320 C.2   121  VAL121      0.2260
     46  O          1.4050   -7.2770   34.5900 O.2   121  VAL121     -0.2867
     47  CB         2.9700   -7.6130   31.6760 C.3   121  VAL121      0.0252
     48  CG1        4.0340   -7.5200   32.7780 C.3   121  VAL121      0.0019
     49  CG2        3.2810   -8.7360   30.6890 C.3   121  VAL121      0.0019
     50  N         12.1600  -10.2350   29.3970 N.3   150  TYR150     -0.1227
     51  CA        11.4990   -9.1090   28.7540 C.3   150  TYR150      0.1736
     52  C         10.0070   -9.2770   28.9490 C.2   150  TYR150      0.2595
     53  O          9.4810  -10.3820   28.7480 O.2   150  TYR150     -0.2718
     54  CB        11.8210   -9.0460   27.2540 C.3   150  TYR150      0.0548
     55  CG        10.9990   -7.9890   26.5440 C.ar  150  TYR150     -0.0200
     56  CD1       11.4050   -6.6610   26.5270 C.ar  150  TYR150     -0.0009
     57  CD2        9.7910   -8.3150   25.9400 C.ar  150  TYR150     -0.0009
     58  CE1       10.6520   -5.6900   25.9020 C.ar  150  TYR150      0.0417
     59  CE2        9.0270   -7.3470   25.3100 C.ar  150  TYR150      0.0417
     60  CZ         9.4560   -6.0420   25.2970 C.ar  150  TYR150      0.1957
     61  OH         8.6780   -5.0920   24.6760 O.3   150  TYR150     -0.2866
     62  N          9.3210   -8.2000   29.3270 N.am  151  HIS151     -0.1961
     63  CA         7.9010   -8.3100   29.6500 C.3   151  HIS151      0.1787
     64  C          7.0500   -7.1530   29.1260 C.2   151  HIS151      0.2621
     65  O          5.9250   -6.9620   29.5690 O.2   151  HIS151     -0.2715
     66  CB         7.7240   -8.4650   31.1650 C.3   151  HIS151      0.0785
     67  CG         8.3950   -9.6860   31.7050 C.ar  151  HIS151      0.0821
     68  ND1        7.8510  -10.9430   31.5670 N.ar  151  HIS151     -0.2267
     69  CD2        9.5860   -9.8540   32.3290 C.ar  151  HIS151      0.1154
     70  CE1        8.6660  -11.8350   32.1100 C.ar  151  HIS151      0.1986
     71  NE2        9.7250  -11.2010   32.5760 N.ar  151  HIS151     -0.2212
     72  N          7.5900   -6.3780   28.1830 N.am  152  GLY152     -0.1940
     73  CA         6.8550   -5.2690   27.6020 C.3   152  GLY152      0.2014
     74  C          7.4420   -3.9100   27.9200 C.2   152  GLY152      0.2638
     75  O          8.5100   -3.8130   28.5300 O.2   152  GLY152     -0.2714
     76  N          6.7460   -2.8530   27.5060 N.am  153  ASP153     -0.1971
     77  CA         7.3540   -1.5270   27.4540 C.3   153  ASP153      0.1709
     78  C          6.6830   -0.4790   28.3360 C.2   153  ASP153      0.2293
     79  O          7.1640    0.6500   28.4300 O.2   153  ASP153     -0.2864
     80  CB         7.3930   -1.0000   26.0200 C.3   153  ASP153      0.1436
     81  CG         8.1910   -1.8860   25.0870 C.2   153  ASP153      0.3671
     82  OD1        7.8990   -1.8610   23.8770 O.co2 153  ASP153     -0.2456
     83  OD2        9.1030   -2.5980   25.5530 O.co2 153  ASP153     -0.2456
     84  N          9.3180  -15.6700   31.9270 N.3   213  GLU213     -0.1245
     85  CA         8.9570  -16.3240   30.6730 C.3   213  GLU213      0.1567
     86  C          9.3480  -17.7940   30.8140 C.2   213  GLU213      0.2260
     87  O         10.5150  -18.0990   31.0730 O.2   213  GLU213     -0.2867
     88  CB         9.7570  -15.7180   29.5230 C.3   213  GLU213      0.0388
     89  CG         9.4840  -14.2630   29.2480 C.3   213  GLU213      0.1160
     90  CD        10.6100  -13.6460   28.4440 C.2   213  GLU213      0.3649
     91  OE1       11.6160  -13.2490   29.0570 O.co2 213  GLU213     -0.2457
     92  OE2       10.5190  -13.5830   27.1980 O.co2 213  GLU213     -0.2457
     93  N         12.5600  -11.7240   23.6970 N.3   219  ALA219     -0.1245
     94  CA        13.1500  -10.4350   23.3270 C.3   219  ALA219      0.1562
     95  C         14.4370  -10.1290   24.0760 C.2   219  ALA219      0.2260
     96  O         15.2230   -9.2980   23.6400 O.2   219  ALA219     -0.2867
     97  CB        12.1440   -9.3150   23.5060 C.3   219  ALA219      0.0290
     98  N          4.6480  -15.3640   32.0050 N.3   247  ASP247     -0.1239
     99  CA         4.3990  -14.5160   30.8520 C.3   247  ASP247      0.1674
    100  C          4.5800  -15.3930   29.6010 C.2   247  ASP247      0.2266
    101  O          5.7200  -15.6640   29.1780 O.2   247  ASP247     -0.2867
    102  CB         5.3800  -13.3400   30.8560 C.3   247  ASP247      0.1410
    103  CG         5.1880  -12.4100   29.6810 C.2   247  ASP247      0.3668
    104  OD1        4.4470  -12.7730   28.7470 O.co2 247  ASP247     -0.2456
    105  OD2        5.8010  -11.3100   29.6970 O.co2 247  ASP247     -0.2456
    106  N          3.2920  -14.6170   26.5960 N.3   249  ILE249     -0.1231
    107  CA         2.9030  -13.7970   25.4530 C.3   249  ILE249      0.1692
    108  C          3.6690  -14.2100   24.1840 C.2   249  ILE249      0.2591
    109  O          3.1160  -14.1460   23.0960 O.2   249  ILE249     -0.2718
    110  CB         3.0220  -12.2890   25.7780 C.3   249  ILE249      0.0266
    111  CG1        1.9580  -11.9170   26.8130 C.3   249  ILE249      0.0019
    112  CG2        2.8870  -11.4540   24.5130 C.3   249  ILE249      0.0020
    113  CD1        2.2390  -10.6210   27.5350 C.3   249  ILE249      0.0001
    114  N          4.9160  -14.6530   24.3290 N.am  250  ALA250     -0.1980
    115  CA         5.6930  -15.1340   23.1850 C.3   250  ALA250      0.1597
    116  C          5.6140  -16.6500   22.9980 C.2   250  ALA250      0.2287
    117  O          5.6840  -17.1460   21.8720 O.2   250  ALA250     -0.2864
    118  CB         7.1430  -14.7190   23.3270 C.3   250  ALA250      0.0319
    119  N          0.0120  -11.8150   21.5500 N.3   276  LYS276     -0.1245
    120  CA         0.6750  -12.0820   20.2650 C.3   276  LYS276      0.1561
    121  C         -0.1050  -13.0740   19.3780 C.2   276  LYS276      0.2260
    122  O         -1.0480  -12.6770   18.6890 O.2   276  LYS276     -0.2867
    123  CB         2.1510  -12.4770   20.4480 C.3   276  LYS276      0.0271
    124  CG         3.0540  -11.2900   20.8220 C.3   276  LYS276      0.0035
    125  CD         4.5290  -11.6210   20.6160 C.3   276  LYS276      0.0206
    126  CE         5.4650  -10.4370   20.8420 C.3   276  LYS276      0.1093
    127  NZ         5.9090  -10.3340   22.2750 N.3   276  LYS276     -0.1314
@<TRIPOS>BOND
     1    13    14    1
     2    14    15    1
     3    14    17    1
     4    15    16    2
     5    19    21   ar
     6    19    18   ar
     7    21    22   ar
     8    17    18    1
     9    18    20   ar
    10     4     3    2
    11    22    20   ar
    12    22    24   ar
    13     3     2    1
    14   122   121    2
    15     1     2    1
    16    20    23   ar
    17     2     5    1
    18     5     6    1
    19    24    26   ar
    20   121   120    1
    21     8     6   ar
    22     8    10   ar
    23     6     7   ar
    24    10    11   ar
    25    23    25   ar
    26   120   123    1
    27   120   119    1
    28   123   124    1
    29   125   124    1
    30   125   126    1
    31    26    25   ar
    32   126   127    1
    33     7     9   ar
    34    11     9   ar
    35    11    12    1
    36   117   116    2
    37   116   115    1
    38   109   108    2
    39   115   118    1
    40   115   114    1
    41    94    97    1
    42    94    93    1
    43    94    95    1
    44    96    95    2
    45    82    81   ar
    46    31    28    1
    47    31    32    1
    48   108   114   am
    49   108   107    1
    50    28    27    1
    51    28    29    1
    52   112   110    1
    53    61    60    1
    54    33    29   am
    55    33    34    1
    56    81    83   ar
    57    81    80    1
    58    60    59   ar
    59    60    58   ar
    60    59    57   ar
    61   107   110    1
    62   107   106    1
    63    29    30    2
    64   110   111    1
    65    58    56   ar
    66    34    35    1
    67    57    55   ar
    68    80    77    1
    69    56    55   ar
    70    55    54    1
    71    42    41    1
    72   111   113    1
    73    37    35   am
    74    37    38    1
    75    35    36    2
    76    92    90   ar
    77    54    51    1
    78    77    76    1
    79    77    78    1
    80    41    38    1
    81    76    74   am
    82    73    74    1
    83    73    72    1
    84    74    75    2
    85    38    39    1
    86    72    64   am
    87    78    79    2
    88    90    91   ar
    89    90    89    1
    90   104   103   ar
    91    53    52    2
    92    51    52    1
    93    51    50    1
    94    52    62   am
    95    39    40    2
    96    64    65    2
    97    64    63    1
    98   101   100    2
    99    89    88    1
   100    62    63    1
   101    88    85    1
   102   100    99    1
   103    63    66    1
   104   103   105   ar
   105   103   102    1
   106    85    86    1
   107    85    84    1
   108    49    47    1
   109    86    87    2
   110    99   102    1
   111    99    98    1
   112    66    67    1
   113    43    44    1
   114    68    67   ar
   115    68    70   ar
   116    47    44    1
   117    47    48    1
   118    67    69   ar
   119    70    71   ar
   120    44    45    1
   121    69    71   ar
   122    45    46    2
