@<TRIPOS>MOLECULE
tmp/4wydA01.pdb
 123 123 0 0 0
SMALL
GASTEIGER

@<TRIPOS>ATOM
      1  N         11.2560    1.3160   18.7420 N.3    18  TYR18      -0.1241
      2  CA        12.6100    1.1590   19.2610 C.3    18  TYR18       0.1605
      3  C         13.6230    1.9570   18.4490 C.2    18  TYR18       0.2264
      4  O         14.7310    1.4960   18.2150 O.2    18  TYR18      -0.2867
      5  CB        12.9810   -0.3340   19.3030 C.3    18  TYR18       0.0534
      6  CG        11.9450   -1.1630   20.0360 C.ar   18  TYR18      -0.0201
      7  CD1       11.6220   -0.8800   21.3560 C.ar   18  TYR18      -0.0009
      8  CD2       11.2840   -2.2130   19.4070 C.ar   18  TYR18      -0.0009
      9  CE1       10.6630   -1.6090   22.0330 C.ar   18  TYR18       0.0417
     10  CE2       10.3300   -2.9720   20.0770 C.ar   18  TYR18       0.0417
     11  CZ        10.0280   -2.6560   21.3890 C.ar   18  TYR18       0.1957
     12  OH         9.0810   -3.3820   22.0680 O.3    18  TYR18      -0.2866
     13  N          6.3280  -10.4410   13.9490 N.3    57  TRP57      -0.1227
     14  CA         6.5990  -10.3730   15.3850 C.3    57  TRP57       0.1737
     15  C          5.8420  -11.4560   16.1460 C.2    57  TRP57       0.2595
     16  O          5.2740  -11.2210   17.2220 O.2    57  TRP57      -0.2718
     17  CB         6.3640   -8.9680   15.9590 C.3    57  TRP57       0.0564
     18  CG         7.6390   -8.1880   16.2000 C.ar   57  TRP57       0.0003
     19  CD1        8.8980   -8.6970   16.3960 C.ar   57  TRP57       0.0946
     20  CD2        7.7620   -6.7690   16.2990 C.ar   57  TRP57       0.0152
     21  NE1        9.7980   -7.6710   16.5940 N.ar   57  TRP57      -0.2442
     22  CE2        9.1220   -6.4790   16.5440 C.ar   57  TRP57       0.0810
     23  CE3        6.8530   -5.7140   16.1980 C.ar   57  TRP57       0.0012
     24  CZ2        9.5890   -5.1760   16.6930 C.ar   57  TRP57       0.0191
     25  CZ3        7.3170   -4.4210   16.3530 C.ar   57  TRP57       0.0001
     26  CH2        8.6740   -4.1640   16.5880 C.ar   57  TRP57       0.0015
     27  N          5.8350  -12.6500   15.5630 N.am   58  TRP58      -0.1976
     28  CA         5.5210  -13.8840   16.2860 C.3    58  TRP58       0.1640
     29  C          4.0190  -14.0250   16.4960 C.2    58  TRP58       0.2290
     30  O          3.5830  -14.6360   17.4660 O.2    58  TRP58      -0.2864
     31  CB         6.2680  -13.9810   17.6350 C.3    58  TRP58       0.0576
     32  CG         7.6740  -13.4220   17.6740 C.ar   58  TRP58       0.0006
     33  CD1        8.5140  -13.1740   16.6150 C.ar   58  TRP58       0.0946
     34  CD2        8.3790  -13.0040   18.8460 C.ar   58  TRP58       0.0152
     35  NE1        9.7040  -12.6420   17.0700 N.ar   58  TRP58      -0.2442
     36  CE2        9.6450  -12.5290   18.4340 C.ar   58  TRP58       0.0810
     37  CE3        8.0650  -12.9910   20.2090 C.ar   58  TRP58       0.0012
     38  CZ2       10.5880  -12.0490   19.3300 C.ar   58  TRP58       0.0191
     39  CZ3        9.0010  -12.5200   21.0980 C.ar   58  TRP58       0.0001
     40  CH2       10.2560  -12.0530   20.6580 C.ar   58  TRP58       0.0015
     41  N         12.1600  -10.2350   29.3970 N.3   150  TYR150     -0.1241
     42  CA        11.4990   -9.1090   28.7540 C.3   150  TYR150      0.1605
     43  C         10.0070   -9.2770   28.9490 C.2   150  TYR150      0.2264
     44  O          9.4810  -10.3820   28.7480 O.2   150  TYR150     -0.2867
     45  CB        11.8210   -9.0460   27.2540 C.3   150  TYR150      0.0534
     46  CG        10.9990   -7.9890   26.5440 C.ar  150  TYR150     -0.0201
     47  CD1       11.4050   -6.6610   26.5270 C.ar  150  TYR150     -0.0009
     48  CD2        9.7910   -8.3150   25.9400 C.ar  150  TYR150     -0.0009
     49  CE1       10.6520   -5.6900   25.9020 C.ar  150  TYR150      0.0417
     50  CE2        9.0270   -7.3470   25.3100 C.ar  150  TYR150      0.0417
     51  CZ         9.4560   -6.0420   25.2970 C.ar  150  TYR150      0.1957
     52  OH         8.6780   -5.0920   24.6760 O.3   150  TYR150     -0.2866
     53  N          6.7460   -2.8530   27.5060 N.3   153  ASP153     -0.1239
     54  CA         7.3540   -1.5270   27.4540 C.3   153  ASP153      0.1674
     55  C          6.6830   -0.4790   28.3360 C.2   153  ASP153      0.2266
     56  O          7.1640    0.6500   28.4300 O.2   153  ASP153     -0.2867
     57  CB         7.3930   -1.0000   26.0200 C.3   153  ASP153      0.1410
     58  CG         8.1910   -1.8860   25.0870 C.2   153  ASP153      0.3668
     59  OD1        7.8990   -1.8610   23.8770 O.co2 153  ASP153     -0.2456
     60  OD2        9.1030   -2.5980   25.5530 O.co2 153  ASP153     -0.2456
     61  N         16.5760   -3.7900   26.9800 N.3   167  MET167     -0.1245
     62  CA        16.3970   -2.5420   26.2440 C.3   167  MET167      0.1570
     63  C         16.0690   -1.3630   27.1480 C.2   167  MET167      0.2261
     64  O         16.2790   -0.2120   26.7760 O.2   167  MET167     -0.2867
     65  CB        15.3250   -2.6890   25.1660 C.3   167  MET167      0.0387
     66  CG        13.9300   -2.9370   25.6870 C.3   167  MET167      0.0595
     67  SD        12.6950   -2.6720   24.4020 S.3   167  MET167     -0.1393
     68  CE        13.1020   -3.9660   23.2230 C.3   167  MET167      0.0692
     69  N         12.5600  -11.7240   23.6970 N.3   219  ALA219     -0.1245
     70  CA        13.1500  -10.4350   23.3270 C.3   219  ALA219      0.1562
     71  C         14.4370  -10.1290   24.0760 C.2   219  ALA219      0.2260
     72  O         15.2230   -9.2980   23.6400 O.2   219  ALA219     -0.2867
     73  CB        12.1440   -9.3150   23.5060 C.3   219  ALA219      0.0290
     74  N          0.0120  -11.8150   21.5500 N.3   276  LYS276     -0.1245
     75  CA         0.6750  -12.0820   20.2650 C.3   276  LYS276      0.1561
     76  C         -0.1050  -13.0740   19.3780 C.2   276  LYS276      0.2260
     77  O         -1.0480  -12.6770   18.6890 O.2   276  LYS276     -0.2867
     78  CB         2.1510  -12.4770   20.4480 C.3   276  LYS276      0.0271
     79  CG         3.0540  -11.2900   20.8220 C.3   276  LYS276      0.0035
     80  CD         4.5290  -11.6210   20.6160 C.3   276  LYS276      0.0206
     81  CE         5.4650  -10.4370   20.8420 C.3   276  LYS276      0.1093
     82  NZ         5.9090  -10.3340   22.2750 N.3   276  LYS276     -0.1314
     83  N         14.1340  -10.1510   10.5570 N.3   393  ARG393     -0.1231
     84  CA        14.4360   -8.9760   11.3620 C.3   393  ARG393      0.1679
     85  C         15.3280   -9.3880   12.5280 C.2   393  ARG393      0.2434
     86  O         14.8450   -9.7230   13.6120 O.2   393  ARG393     -0.2733
     87  CB        13.1580   -8.2850   11.8590 C.3   393  ARG393      0.0321
     88  CG        13.3910   -6.8860   12.4380 C.3   393  ARG393      0.0489
     89  CD        13.9610   -5.9930   11.3630 C.3   393  ARG393      0.2205
     90  NE        13.9640   -4.5850   11.7330 N.pl3 393  ARG393     -0.0865
     91  CZ        14.2950   -3.6070   10.9010 C.cat 393  ARG393      0.5346
     92  NH1       14.6730   -3.8830    9.6520 N.pl3 393  ARG393      0.1354
     93  NH2       14.2340   -2.3520   11.3100 N.pl3 393  ARG393      0.1354
     94  N         16.6460   -9.3790   12.3010 N.am  394  PRO394     -0.2718
     95  CA        17.5860   -9.6500   13.3910 C.3   394  PRO394      0.1535
     96  C         17.4680   -8.5910   14.4710 C.2   394  PRO394      0.2598
     97  O         16.9710   -7.4970   14.2110 O.2   394  PRO394     -0.2715
     98  CB        18.9530   -9.5410   12.7040 C.3   394  PRO394      0.0310
     99  CG        18.6690   -9.8630   11.2760 C.3   394  PRO394      0.0237
    100  CD        17.3270   -9.2380   11.0040 C.3   394  PRO394      0.0939
    101  N         17.9080   -8.9340   15.6760 N.am  395  PHE395     -0.1974
    102  CA        18.1410   -7.9320   16.7060 C.3   395  PHE395      0.1639
    103  C         19.3390   -8.3770   17.5100 C.2   395  PHE395      0.2290
    104  O         19.6580   -9.5680   17.5420 O.2   395  PHE395     -0.2864
    105  CB        16.8930   -7.6680   17.5700 C.3   395  PHE395      0.0560
    106  CG        16.5230   -8.7830   18.5060 C.ar  395  PHE395     -0.0200
    107  CD1       16.7630   -8.6570   19.8620 C.ar  395  PHE395     -0.0042
    108  CD2       15.8730   -9.9180   18.0500 C.ar  395  PHE395     -0.0042
    109  CE1       16.4040   -9.6580   20.7400 C.ar  395  PHE395     -0.0003
    110  CE2       15.5080  -10.9290   18.9320 C.ar  395  PHE395     -0.0003
    111  CZ        15.7820  -10.7960   20.2780 C.ar  395  PHE395     -0.0000
    112  N         17.3180  -14.9500   13.6020 N.3   400  TYR400     -0.1241
    113  CA        16.3810  -15.9500   14.0920 C.3   400  TYR400      0.1605
    114  C         15.0820  -15.9300   13.2880 C.2   400  TYR400      0.2264
    115  O         14.7880  -14.9570   12.5780 O.2   400  TYR400     -0.2867
    116  CB        16.1060  -15.7490   15.5960 C.3   400  TYR400      0.0534
    117  CG        15.1120  -14.6510   15.8590 C.ar  400  TYR400     -0.0201
    118  CD1       15.4690  -13.3110   15.6980 C.ar  400  TYR400     -0.0009
    119  CD2       13.8070  -14.9420   16.2330 C.ar  400  TYR400     -0.0009
    120  CE1       14.5530  -12.2920   15.9130 C.ar  400  TYR400      0.0417
    121  CE2       12.8930  -13.9360   16.4620 C.ar  400  TYR400      0.0417
    122  CZ        13.2660  -12.6080   16.3020 C.ar  400  TYR400      0.1957
    123  OH        12.3320  -11.6200   16.5040 O.3   400  TYR400     -0.2866
@<TRIPOS>BOND
     1    92    91    1
     2    83    84    1
     3    91    93    1
     4    91    90    2
     5   100    99    1
     6   100    94    1
     7    99    98    1
     8    84    87    1
     9    84    85    1
    10    89    90    1
    11    89    88    1
    12    87    88    1
    13    94    85   am
    14    94    95    1
    15    85    86    2
    16   115   114    2
    17    98    95    1
    18   114   113    1
    19    95    96    1
    20   112   113    1
    21    13    14    1
    22   113   116    1
    23    97    96    2
    24    96   101   am
    25    14    17    1
    26    14    15    1
    27    27    15   am
    28    27    28    1
    29   116   117    1
    30   101   102    1
    31   118   117   ar
    32   118   120   ar
    33   117   119   ar
    34   120   122   ar
    35    17    18    1
    36    15    16    2
    37    23    20   ar
    38    23    25   ar
    39    18    20   ar
    40    18    19   ar
    41   119   121   ar
    42    28    29    1
    43    28    31    1
    44    20    22   ar
    45   122   121   ar
    46   122   123    1
    47    25    26   ar
    48    19    21   ar
    49    29    30    2
    50    22    21   ar
    51    22    24   ar
    52    26    24   ar
    53    33    35   ar
    54    33    32   ar
    55   102   103    1
    56   102   105    1
    57    35    36   ar
    58   103   104    2
    59   105   106    1
    60    31    32    1
    61    32    34   ar
    62   108   106   ar
    63   108   110   ar
    64     4     3    2
    65    36    34   ar
    66    36    38   ar
    67     3     2    1
    68   106   107   ar
    69    77    76    2
    70     1     2    1
    71    34    37   ar
    72   110   111   ar
    73     2     5    1
    74     5     6    1
    75    38    40   ar
    76    76    75    1
    77     8     6   ar
    78     8    10   ar
    79   107   109   ar
    80     6     7   ar
    81    10    11   ar
    82    37    39   ar
    83    75    78    1
    84    75    74    1
    85   111   109   ar
    86    78    79    1
    87    80    79    1
    88    80    81    1
    89    40    39   ar
    90    81    82    1
    91     7     9   ar
    92    11     9   ar
    93    11    12    1
    94    68    67    1
    95    70    73    1
    96    70    69    1
    97    70    71    1
    98    72    71    2
    99    59    58   ar
   100    67    66    1
   101    52    51    1
   102    58    60   ar
   103    58    57    1
   104    65    66    1
   105    65    62    1
   106    51    50   ar
   107    51    49   ar
   108    50    48   ar
   109    49    47   ar
   110    48    46   ar
   111    57    54    1
   112    62    61    1
   113    62    63    1
   114    47    46   ar
   115    46    45    1
   116    64    63    2
   117    45    42    1
   118    54    53    1
   119    54    55    1
   120    55    56    2
   121    44    43    2
   122    42    43    1
   123    42    41    1
