@<TRIPOS>MOLECULE
tmp/4wyeB02.pdb
 124 123 0 0 0
SMALL
GASTEIGER

@<TRIPOS>ATOM
      1  N        -14.6200   -3.6380   33.4360 N.3    18  PRO18      -0.2102
      2  CA       -13.8940   -2.4460   33.9180 C.3    18  PRO18       0.1504
      3  C        -14.1390   -2.1380   35.4100 C.2    18  PRO18       0.2575
      4  O        -15.3010   -2.1140   35.8270 O.2    18  PRO18      -0.2718
      5  CB       -14.4500   -1.3140   33.0420 C.3    18  PRO18       0.0282
      6  CG       -14.9370   -1.9890   31.7820 C.3    18  PRO18       0.0208
      7  CD       -15.3980   -3.3680   32.2060 C.3    18  PRO18       0.0893
      8  N        -13.0650   -1.9220   36.1830 N.am   19  TYR19      -0.1977
      9  CA       -13.1580   -1.4830   37.5840 C.3    19  TYR19       0.1639
     10  C        -14.1750   -2.2970   38.3750 C.2    19  TYR19       0.2290
     11  O        -14.9230   -1.7520   39.1820 O.2    19  TYR19      -0.2864
     12  CB       -13.5050    0.0130   37.6350 C.3    19  TYR19       0.0560
     13  CG       -12.7440    0.7710   36.5760 C.ar   19  TYR19      -0.0198
     14  CD1      -11.4120    1.1120   36.7630 C.ar   19  TYR19      -0.0009
     15  CD2      -13.3490    1.1110   35.3670 C.ar   19  TYR19      -0.0009
     16  CE1      -10.6990    1.7880   35.7760 C.ar   19  TYR19       0.0417
     17  CE2      -12.6450    1.7780   34.3700 C.ar   19  TYR19       0.0417
     18  CZ       -11.3180    2.1110   34.5850 C.ar   19  TYR19       0.1957
     19  OH       -10.6120    2.7630   33.6020 O.3    19  TYR19      -0.2866
     20  N        -18.4530    4.8300   24.9980 N.3    58  TRP58      -0.1227
     21  CA       -17.3520    5.5640   25.6080 C.3    58  TRP58       0.1737
     22  C        -16.5350    6.3970   24.6050 C.2    58  TRP58       0.2595
     23  O        -15.3220    6.2100   24.4770 O.2    58  TRP58      -0.2718
     24  CB       -16.4510    4.5890   26.3710 C.3    58  TRP58       0.0564
     25  CG       -16.8460    4.3870   27.8100 C.ar   58  TRP58       0.0003
     26  CD1      -17.5520    5.2490   28.6010 C.ar   58  TRP58       0.0946
     27  CD2      -16.5450    3.2490   28.6260 C.ar   58  TRP58       0.0152
     28  NE1      -17.7040    4.7220   29.8610 N.ar   58  TRP58      -0.2442
     29  CE2      -17.0920    3.4950   29.9040 C.ar   58  TRP58       0.0810
     30  CE3      -15.8590    2.0480   28.4000 C.ar   58  TRP58       0.0012
     31  CZ2      -16.9890    2.5760   30.9530 C.ar   58  TRP58       0.0191
     32  CZ3      -15.7490    1.1320   29.4500 C.ar   58  TRP58       0.0001
     33  CH2      -16.3100    1.4090   30.7090 C.ar   58  TRP58       0.0015
     34  N        -17.2250    7.3100   23.9100 N.am   59  TRP59      -0.1976
     35  CA       -16.6420    8.3430   23.0430 C.3    59  TRP59       0.1640
     36  C        -16.2290    7.8380   21.6650 C.2    59  TRP59       0.2290
     37  O        -15.8400    8.6280   20.8070 O.2    59  TRP59      -0.2864
     38  CB       -15.4030    9.0030   23.6770 C.3    59  TRP59       0.0576
     39  CG       -15.5480    9.5010   25.1000 C.ar   59  TRP59       0.0006
     40  CD1      -15.3640    8.7860   26.2530 C.ar   59  TRP59       0.0946
     41  CD2      -15.8380   10.8450   25.5060 C.ar   59  TRP59       0.0152
     42  NE1      -15.5520    9.6020   27.3490 N.ar   59  TRP59      -0.2442
     43  CE2      -15.8510   10.8650   26.9160 C.ar   59  TRP59       0.0810
     44  CE3      -16.1290   12.0230   24.8110 C.ar   59  TRP59       0.0012
     45  CZ2      -16.1200   12.0260   27.6460 C.ar   59  TRP59       0.0191
     46  CZ3      -16.3870   13.1760   25.5350 C.ar   59  TRP59       0.0001
     47  CH2      -16.3840   13.1660   26.9380 C.ar   59  TRP59       0.0015
     48  N         -7.9450   12.7900   34.2250 N.3   151  TYR151     -0.1241
     49  CA        -7.8440   11.3520   33.9830 C.3   151  TYR151      0.1605
     50  C         -7.0040   11.1140   32.7380 C.2   151  TYR151      0.2264
     51  O         -7.2420   11.7460   31.7040 O.2   151  TYR151     -0.2867
     52  CB        -9.2240   10.7060   33.7930 C.3   151  TYR151      0.0534
     53  CG        -9.1050    9.2480   33.4560 C.ar  151  TYR151     -0.0201
     54  CD1       -8.7970    8.3220   34.4400 C.ar  151  TYR151     -0.0009
     55  CD2       -9.2830    8.7950   32.1490 C.ar  151  TYR151     -0.0009
     56  CE1       -8.6740    6.9610   34.1300 C.ar  151  TYR151      0.0417
     57  CE2       -9.1700    7.4540   31.8360 C.ar  151  TYR151      0.0417
     58  CZ        -8.8690    6.5480   32.8220 C.ar  151  TYR151      0.1957
     59  OH        -8.7450    5.2150   32.4970 O.3   151  TYR151     -0.2866
     60  N         -4.8970    4.0800   32.7450 N.3   154  ASP154     -0.1239
     61  CA        -4.8300    3.1470   33.8680 C.3   154  ASP154      0.1674
     62  C         -3.4670    2.4910   34.0570 C.2   154  ASP154      0.2266
     63  O         -3.2600    1.7540   35.0300 O.2   154  ASP154     -0.2867
     64  CB        -5.8740    2.0340   33.7130 C.3   154  ASP154      0.1410
     65  CG        -7.3020    2.5370   33.7480 C.2   154  ASP154      0.3668
     66  OD1       -7.5530    3.6450   34.2700 O.co2 154  ASP154     -0.2456
     67  OD2       -8.1780    1.7790   33.2720 O.co2 154  ASP154     -0.2456
     68  N        -12.7450   14.5090   31.3110 N.3   219  GLY219     -0.1210
     69  CA       -13.6730   13.4060   31.1660 C.3   219  GLY219      0.1956
     70  C        -13.9190   12.5700   32.4020 C.2   219  GLY219      0.2611
     71  O        -14.8040   12.8800   33.2060 O.2   219  GLY219     -0.2717
     72  N        -13.1280   11.5080   32.5670 N.am  220  ALA220     -0.1979
     73  CA       -13.4400   10.4890   33.5590 C.3   220  ALA220      0.1597
     74  C        -13.2540   10.9670   34.9870 C.2   220  ALA220      0.2287
     75  O        -13.6640   10.2890   35.9320 O.2   220  ALA220     -0.2864
     76  CB       -12.5910    9.2240   33.3160 C.3   220  ALA220      0.0319
     77  N        -16.3180   14.9360   34.3230 N.3   223  MET223     -0.1245
     78  CA       -17.0490   15.5910   33.2360 C.3   223  MET223      0.1570
     79  C        -17.1700   17.0990   33.4790 C.2   223  MET223      0.2261
     80  O        -18.2540   17.6660   33.3830 O.2   223  MET223     -0.2867
     81  CB       -18.4230   14.9510   33.0610 C.3   223  MET223      0.0387
     82  CG       -18.3380   13.5100   32.5840 C.3   223  MET223      0.0595
     83  SD       -17.5510   13.4430   30.9650 S.3   223  MET223     -0.1393
     84  CE       -18.8240   14.2080   29.9790 C.3   223  MET223      0.0692
     85  N         -9.5080    7.3940   21.5190 N.3   277  LYS277     -0.1245
     86  CA       -10.8840    6.8660   21.4830 C.3   277  LYS277      0.1561
     87  C        -11.6480    6.9000   20.1410 C.2   277  LYS277      0.2260
     88  O        -12.0170    5.8520   19.6350 O.2   277  LYS277     -0.2867
     89  CB       -11.7150    7.5760   22.5580 C.3   277  LYS277      0.0271
     90  CG       -11.2790    7.2120   23.9850 C.3   277  LYS277      0.0035
     91  CD       -12.3110    7.6360   25.0120 C.3   277  LYS277      0.0206
     92  CE       -12.0180    7.0410   26.3890 C.3   277  LYS277      0.1093
     93  NZ       -10.9840    7.8020   27.1130 N.3   277  LYS277     -0.1314
     94  N        -21.9400    7.5050   36.1110 N.3   396  PHE396     -0.1241
     95  CA       -20.7150    7.3440   36.8970 C.3   396  PHE396      0.1605
     96  C        -20.7850    8.3030   38.0900 C.2   396  PHE396      0.2264
     97  O        -21.0070    9.4920   37.8690 O.2   396  PHE396     -0.2867
     98  CB       -19.4990    7.6440   36.0110 C.3   396  PHE396      0.0534
     99  CG       -18.1660    7.4860   36.6950 C.ar  396  PHE396     -0.0203
    100  CD1      -17.7210    6.2380   37.1060 C.ar  396  PHE396     -0.0042
    101  CD2      -17.3350    8.5780   36.8700 C.ar  396  PHE396     -0.0042
    102  CE1      -16.4900    6.0900   37.7140 C.ar  396  PHE396     -0.0003
    103  CE2      -16.0950    8.4370   37.4720 C.ar  396  PHE396     -0.0003
    104  CZ       -15.6750    7.1910   37.8940 C.ar  396  PHE396     -0.0000
    105  N        -23.0230   11.6290   38.1840 N.3   399  LEU399     -0.1245
    106  CA       -23.1810   12.2330   36.8690 C.3   399  LEU399      0.1561
    107  C        -24.0490   11.3740   35.9600 C.2   399  LEU399      0.2260
    108  O        -23.8330   10.1770   35.8150 O.2   399  LEU399     -0.2867
    109  CB       -21.8060   12.4740   36.2260 C.3   399  LEU399      0.0270
    110  CG       -20.9140   13.4170   37.0510 C.3   399  LEU399      0.0019
    111  CD1      -19.4650   13.3590   36.6430 C.3   399  LEU399      0.0001
    112  CD2      -21.3900   14.8560   36.9320 C.3   399  LEU399      0.0001
    113  N        -24.7090   11.4910   32.1380 N.3   401  TYR401     -0.1241
    114  CA       -24.0750   12.2180   31.0420 C.3   401  TYR401      0.1605
    115  C        -24.1440   11.4280   29.7280 C.2   401  TYR401      0.2264
    116  O        -24.4170   10.2280   29.7330 O.2   401  TYR401     -0.2867
    117  CB       -22.6080   12.5550   31.4050 C.3   401  TYR401      0.0534
    118  CG       -21.6620   11.3790   31.2960 C.ar  401  TYR401     -0.0201
    119  CD1      -21.6920   10.3390   32.2240 C.ar  401  TYR401     -0.0009
    120  CD2      -20.7360   11.3060   30.2630 C.ar  401  TYR401     -0.0009
    121  CE1      -20.8380    9.2600   32.1070 C.ar  401  TYR401      0.0417
    122  CE2      -19.8860   10.2350   30.1530 C.ar  401  TYR401      0.0417
    123  CZ       -19.9340    9.2210   31.0650 C.ar  401  TYR401      0.1957
    124  OH       -19.0860    8.1430   30.9190 O.3   401  TYR401     -0.2866
@<TRIPOS>BOND
     1    88    87    2
     2    87    86    1
     3    37    36    2
     4    86    85    1
     5    86    89    1
     6    36    35    1
     7    89    90    1
     8    35    38    1
     9    35    34    1
    10    38    39    1
    11    34    22   am
    12    90    91    1
    13    23    22    2
    14    22    21    1
    15    44    41   ar
    16    44    46   ar
    17    20    21    1
    18    91    92    1
    19    39    41   ar
    20    39    40   ar
    21    41    43   ar
    22    46    47   ar
    23    21    24    1
    24    40    42   ar
    25    24    25    1
    26    92    93    1
    27    43    42   ar
    28    43    45   ar
    29    47    45   ar
    30    25    26   ar
    31    25    27   ar
    32    30    27   ar
    33    30    32   ar
    34    26    28   ar
    35    27    29   ar
    36    32    33   ar
    37   115   116    2
    38   115   114    1
    39    28    29   ar
    40    29    31   ar
    41    84    83    1
    42   122   120   ar
    43   122   123   ar
    44   120   118   ar
    45    33    31   ar
    46   124   123    1
    47    83    82    1
    48   114   117    1
    49   114   113    1
    50   123   121   ar
    51    69    68    1
    52    69    70    1
    53   118   117    1
    54   118   119   ar
    55    51    50    2
    56     6     7    1
    57     6     5    1
    58    57    55   ar
    59    57    58   ar
    60   121   119   ar
    61    55    53   ar
    62     7     1    1
    63    70    72   am
    64    70    71    2
    65    59    58    1
    66    72    73    1
    67    82    81    1
    68    50    49    1
    69    60    61    1
    70    58    56   ar
    71     5     2    1
    72    81    78    1
    73    78    79    1
    74    78    77    1
    75    67    65   ar
    76    76    73    1
    77    80    79    2
    78     1     2    1
    79    53    52    1
    80    53    54   ar
    81    73    74    1
    82    19    18    1
    83    64    65    1
    84    64    61    1
    85    65    66   ar
    86    52    49    1
    87    61    62    1
    88     2     3    1
    89    49    48    1
    90    62    63    2
    91    56    54   ar
    92    17    18   ar
    93    17    15   ar
    94    18    16   ar
    95    74    75    2
    96    15    13   ar
    97     3     4    2
    98     3     8   am
    99    16    14   ar
   100   108   107    2
   101   107   106    1
   102    98    99    1
   103    98    95    1
   104    94    95    1
   105     8     9    1
   106   109   106    1
   107   109   110    1
   108    13    14   ar
   109    13    12    1
   110   111   110    1
   111    99   101   ar
   112    99   100   ar
   113   106   105    1
   114   101   103   ar
   115    95    96    1
   116   112   110    1
   117   100   102   ar
   118   103   104   ar
   119     9    12    1
   120     9    10    1
   121   102   104   ar
   122    97    96    2
   123    10    11    2
