@<TRIPOS>MOLECULE
tmp/4wygB04.pdb
 131 129 0 0 0
SMALL
GASTEIGER

@<TRIPOS>ATOM
      1  N         13.3440   30.1270  -36.6370 N.3    18  TYR18      -0.1241
      2  CA        13.5250   30.8340  -37.9060 C.3    18  TYR18       0.1605
      3  C         14.4320   30.0770  -38.8510 C.2    18  TYR18       0.2264
      4  O         15.2420   30.6810  -39.5470 O.2    18  TYR18      -0.2867
      5  CB        14.0800   32.2470  -37.6450 C.3    18  TYR18       0.0534
      6  CG        13.2440   32.9930  -36.6330 C.ar   18  TYR18      -0.0201
      7  CD1       11.8930   33.2070  -36.8680 C.ar   18  TYR18      -0.0009
      8  CD2       13.7870   33.4500  -35.4350 C.ar   18  TYR18      -0.0009
      9  CE1       11.0890   33.8530  -35.9310 C.ar   18  TYR18       0.0417
     10  CE2       12.9900   34.1170  -34.4960 C.ar   18  TYR18       0.0417
     11  CZ        11.6450   34.3150  -34.7640 C.ar   18  TYR18       0.1957
     12  OH        10.8320   34.9600  -33.8480 O.3    18  TYR18      -0.2866
     13  N         18.5360   36.6740  -25.8130 N.3    57  TRP57      -0.1227
     14  CA        17.4370   37.3410  -26.5020 C.3    57  TRP57       0.1737
     15  C         16.7540   38.3390  -25.5690 C.2    57  TRP57       0.2595
     16  O         15.5240   38.4080  -25.4880 O.2    57  TRP57      -0.2718
     17  CB        16.4410   36.3150  -27.0680 C.3    57  TRP57       0.0564
     18  CG        16.6510   36.0070  -28.5450 C.ar   57  TRP57       0.0003
     19  CD1       17.4510   36.6830  -29.4320 C.ar   57  TRP57       0.0946
     20  CD2       16.0270   34.9540  -29.2910 C.ar   57  TRP57       0.0152
     21  NE1       17.3620   36.1030  -30.6840 N.ar   57  TRP57      -0.2442
     22  CE2       16.4940   35.0440  -30.6210 C.ar   57  TRP57       0.0810
     23  CE3       15.1130   33.9440  -28.9620 C.ar   57  TRP57       0.0012
     24  CZ2       16.0770   34.1580  -31.6210 C.ar   57  TRP57       0.0191
     25  CZ3       14.7030   33.0710  -29.9520 C.ar   57  TRP57       0.0001
     26  CH2       15.1850   33.1840  -31.2690 C.ar   57  TRP57       0.0015
     27  N         17.5870   39.1130  -24.8680 N.am   58  TRP58      -0.1976
     28  CA        17.1950   40.3710  -24.2290 C.3    58  TRP58       0.1640
     29  C         16.3890   40.1330  -22.9480 C.2    58  TRP58       0.2290
     30  O         15.6040   40.9830  -22.5290 O.2    58  TRP58      -0.2864
     31  CB        16.3980   41.2660  -25.2100 C.3    58  TRP58       0.0576
     32  CG        16.7950   41.1550  -26.6910 C.ar   58  TRP58       0.0006
     33  CD1       17.9990   40.7340  -27.2180 C.ar   58  TRP58       0.0946
     34  CD2       15.9630   41.4660  -27.8190 C.ar   58  TRP58       0.0152
     35  NE1       17.9510   40.7530  -28.5990 N.ar   58  TRP58      -0.2442
     36  CE2       16.7170   41.2050  -28.9890 C.ar   58  TRP58       0.0810
     37  CE3       14.6560   41.9410  -27.9540 C.ar   58  TRP58       0.0012
     38  CZ2       16.2000   41.4030  -30.2710 C.ar   58  TRP58       0.0191
     39  CZ3       14.1430   42.1330  -29.2250 C.ar   58  TRP58       0.0001
     40  CH2       14.9130   41.8710  -30.3670 C.ar   58  TRP58       0.0015
     41  N          8.0320   44.8230  -35.1230 N.3   150  TYR150     -0.1241
     42  CA         7.9130   43.3940  -34.8610 C.3   150  TYR150      0.1605
     43  C          7.1020   43.1950  -33.5950 C.2   150  TYR150      0.2264
     44  O          7.3270   43.8870  -32.6100 O.2   150  TYR150     -0.2867
     45  CB         9.2830   42.7490  -34.7020 C.3   150  TYR150      0.0534
     46  CG         9.2010   41.3090  -34.2620 C.ar  150  TYR150     -0.0201
     47  CD1        8.9810   40.3050  -35.1850 C.ar  150  TYR150     -0.0009
     48  CD2        9.3480   40.9610  -32.9160 C.ar  150  TYR150     -0.0009
     49  CE1        8.8920   38.9770  -34.7940 C.ar  150  TYR150      0.0417
     50  CE2        9.2790   39.6270  -32.5130 C.ar  150  TYR150      0.0417
     51  CZ         9.0510   38.6460  -33.4620 C.ar  150  TYR150      0.1957
     52  OH         8.9790   37.3230  -33.0710 O.3   150  TYR150     -0.2866
     53  N          5.8420   39.6840  -32.6660 N.3   152  GLY152     -0.1210
     54  CA         5.6830   38.2640  -32.3970 C.3   152  GLY152      0.1956
     55  C          5.2910   37.4310  -33.5980 C.2   152  GLY152      0.2611
     56  O          5.1690   37.9590  -34.7030 O.2   152  GLY152     -0.2717
     57  N          5.0580   36.1360  -33.3840 N.am  153  ASP153     -0.1973
     58  CA         4.9780   35.1930  -34.5150 C.3   153  ASP153      0.1709
     59  C          3.6320   34.4800  -34.6760 C.2   153  ASP153      0.2293
     60  O          3.4550   33.7170  -35.6160 O.2   153  ASP153     -0.2864
     61  CB         6.0700   34.1240  -34.4070 C.3   153  ASP153      0.1436
     62  CG         7.4710   34.7050  -34.3750 C.2   153  ASP153      0.3671
     63  OD1        8.3540   34.0420  -33.8120 O.co2 153  ASP153     -0.2456
     64  OD2        7.7070   35.8240  -34.8850 O.co2 153  ASP153     -0.2456
     65  N         10.3020   39.8810  -41.2790 N.3   167  MET167     -0.1245
     66  CA        10.5190   38.4380  -41.2450 C.3   167  MET167      0.1570
     67  C          9.2790   37.6290  -41.6390 C.2   167  MET167      0.2261
     68  O          9.3980   36.4600  -42.0130 O.2   167  MET167     -0.2867
     69  CB        11.0060   37.9990  -39.8650 C.3   167  MET167      0.0387
     70  CG         9.9490   38.0250  -38.7800 C.3   167  MET167      0.0595
     71  SD        10.3610   36.8360  -37.4830 S.3   167  MET167     -0.1393
     72  CE        12.0850   37.2220  -37.1840 C.3   167  MET167      0.0692
     73  N         13.4030   43.6130  -33.2020 N.3   219  ALA219     -0.1245
     74  CA        13.6490   42.5410  -34.1600 C.3   219  ALA219      0.1562
     75  C         13.4980   42.9490  -35.6210 C.2   219  ALA219      0.2260
     76  O         14.0300   42.2880  -36.5180 O.2   219  ALA219     -0.2867
     77  CB        12.7270   41.3710  -33.8560 C.3   219  ALA219      0.0290
     78  N          9.6260   39.2780  -21.9440 N.3   276  LYS276     -0.1245
     79  CA        11.0890   39.0810  -22.0120 C.3   276  LYS276      0.1561
     80  C         11.7820   39.3160  -20.6600 C.2   276  LYS276      0.2260
     81  O         11.8560   38.3910  -19.8480 O.2   276  LYS276     -0.2867
     82  CB        11.7030   39.9540  -23.1260 C.3   276  LYS276      0.0271
     83  CG        11.4580   39.3870  -24.5530 C.3   276  LYS276      0.0035
     84  CD        12.4800   39.9310  -25.5820 C.3   276  LYS276      0.0206
     85  CE        12.3080   39.3260  -26.9810 C.3   276  LYS276      0.1093
     86  NZ        11.2580   40.0150  -27.8330 N.3   276  LYS276     -0.1314
     87  N         24.9120   37.0610  -31.4850 N.3   393  ARG393     -0.1245
     88  CA        24.0420   36.5030  -32.5070 C.3   393  ARG393      0.1563
     89  C         23.5560   37.6050  -33.4310 C.2   393  ARG393      0.2260
     90  O         22.5260   38.2210  -33.2010 O.2   393  ARG393     -0.2867
     91  CB        22.8560   35.7650  -31.8810 C.3   393  ARG393      0.0307
     92  CG        22.1000   34.9060  -32.8710 C.3   393  ARG393      0.0489
     93  CD        22.9550   33.8020  -33.4440 C.3   393  ARG393      0.2205
     94  NE        22.1700   32.8140  -34.1830 N.pl3 393  ARG393     -0.0865
     95  CZ        22.6890   31.6940  -34.6770 C.cat 393  ARG393      0.5346
     96  NH1       23.9840   31.4380  -34.4940 N.pl3 393  ARG393      0.1354
     97  NH2       21.9270   30.8210  -35.3220 N.pl3 393  ARG393      0.1354
     98  N         21.8720   39.2250  -36.8190 N.3   395  PHE395     -0.1227
     99  CA        20.8360   38.8180  -37.7570 C.3   395  PHE395      0.1736
    100  C         20.7950   39.8520  -38.8670 C.2   395  PHE395      0.2595
    101  O         21.1490   41.0100  -38.6490 O.2   395  PHE395     -0.2718
    102  CB        19.4630   38.6390  -37.0700 C.3   395  PHE395      0.0547
    103  CG        18.8270   39.9150  -36.5650 C.ar  395  PHE395     -0.0202
    104  CD1       18.0060   40.6720  -37.3910 C.ar  395  PHE395     -0.0042
    105  CD2       18.9760   40.3110  -35.2410 C.ar  395  PHE395     -0.0042
    106  CE1       17.3920   41.8270  -36.9220 C.ar  395  PHE395     -0.0003
    107  CE2       18.3620   41.4710  -34.7650 C.ar  395  PHE395     -0.0003
    108  CZ        17.5660   42.2250  -35.6070 C.ar  395  PHE395     -0.0000
    109  N         20.3830   39.4140  -40.0530 N.am  396  ARG396     -0.1980
    110  CA        20.4240   40.2780  -41.2300 C.3   396  ARG396      0.1597
    111  C         21.7810   40.9810  -41.2890 C.2   396  ARG396      0.2287
    112  O         22.8290   40.3380  -41.1920 O.2   396  ARG396     -0.2864
    113  CB        19.2830   41.3050  -41.2080 C.3   396  ARG396      0.0334
    114  CG        17.9030   40.7140  -40.9180 C.3   396  ARG396      0.0492
    115  CD        16.7720   41.5930  -41.4590 C.3   396  ARG396      0.2205
    116  NE        17.0840   43.0200  -41.4100 N.pl3 396  ARG396     -0.0865
    117  CZ        16.2750   43.9500  -40.9070 C.cat 396  ARG396      0.5346
    118  NH1       15.0980   43.6110  -40.4050 N.pl3 396  ARG396      0.1354
    119  NH2       16.6450   45.2210  -40.9080 N.pl3 396  ARG396      0.1354
    120  N         24.9720   43.3850  -33.0090 N.3   400  TYR400     -0.1241
    121  CA        24.4240   44.1710  -31.9140 C.3   400  TYR400      0.1605
    122  C         24.5440   43.4490  -30.5750 C.2   400  TYR400      0.2264
    123  O         24.7590   42.2300  -30.5130 O.2   400  TYR400     -0.2867
    124  CB        22.9430   44.5470  -32.1940 C.3   400  TYR400      0.0534
    125  CG        21.9640   43.4220  -31.9350 C.ar  400  TYR400     -0.0201
    126  CD1       21.8560   42.3570  -32.8180 C.ar  400  TYR400     -0.0009
    127  CD2       21.1650   43.4200  -30.7990 C.ar  400  TYR400     -0.0009
    128  CE1       20.9860   41.3080  -32.5780 C.ar  400  TYR400      0.0417
    129  CE2       20.2880   42.3800  -30.5510 C.ar  400  TYR400      0.0417
    130  CZ        20.1970   41.3370  -31.4410 C.ar  400  TYR400      0.1957
    131  OH        19.3330   40.2980  -31.1890 O.3   400  TYR400     -0.2866
@<TRIPOS>BOND
     1    68    67    2
     2    67    66    1
     3   115   116    1
     4   115   114    1
     5   116   117    2
     6   111   110    1
     7   111   112    2
     8    65    66    1
     9    66    69    1
    10   110   113    1
    11   110   109    1
    12   113   114    1
    13   119   117    1
    14   117   118    1
    15   109   100   am
    16    69    70    1
    17     4     3    2
    18   100   101    2
    19   100    99    1
    20     3     2    1
    21    70    71    1
    22     2     5    1
    23     2     1    1
    24    99   102    1
    25    99    98    1
    26     5     6    1
    27    71    72    1
    28   104   106   ar
    29   104   103   ar
    30   102   103    1
    31   106   108   ar
    32     7     6   ar
    33     7     9   ar
    34     6     8   ar
    35   103   105   ar
    36    76    75    2
    37     9    11   ar
    38    75    74    1
    39    60    59    2
    40   108   107   ar
    41     8    10   ar
    42    97    95    1
    43   105   107   ar
    44    47    49   ar
    45    47    46   ar
    46    41    42    1
    47    64    62   ar
    48    42    45    1
    49    42    43    1
    50    49    51   ar
    51    11    10   ar
    52    11    12    1
    53    56    55    2
    54    45    46    1
    55    95    96    1
    56    95    94    2
    57    59    58    1
    58    58    61    1
    59    58    57    1
    60    61    62    1
    61    62    63   ar
    62    46    48   ar
    63    94    93    1
    64    74    77    1
    65    74    73    1
    66    55    57   am
    67    55    54    1
    68    43    44    2
    69    51    52    1
    70    51    50   ar
    71    93    92    1
    72    89    90    2
    73    89    88    1
    74   120   121    1
    75    48    50   ar
    76    92    91    1
    77   126   128   ar
    78   126   125   ar
    79    53    54    1
    80   128   130   ar
    81    88    91    1
    82    88    87    1
    83   124   125    1
    84   124   121    1
    85   125   127   ar
    86   121   122    1
    87    24    26   ar
    88    24    22   ar
    89   130   131    1
    90   130   129   ar
    91    26    25   ar
    92   127   129   ar
    93    21    22   ar
    94    21    19   ar
    95    22    20   ar
    96   122   123    2
    97    40    38   ar
    98    40    39   ar
    99    38    36   ar
   100    25    23   ar
   101    19    18   ar
   102    20    23   ar
   103    20    18   ar
   104    39    37   ar
   105    36    35   ar
   106    36    34   ar
   107    35    33   ar
   108    18    17    1
   109    37    34   ar
   110    86    85    1
   111    34    32   ar
   112    33    32   ar
   113    17    14    1
   114    85    84    1
   115    32    31    1
   116    14    13    1
   117    14    15    1
   118    84    83    1
   119    15    16    2
   120    15    27   am
   121    31    28    1
   122    27    28    1
   123    83    82    1
   124    28    29    1
   125    82    79    1
   126    29    30    2
   127    79    78    1
   128    79    80    1
   129    80    81    2
