@<TRIPOS>MOLECULE
tmp/4wygB05.pdb
 103 101 0 0 0
SMALL
GASTEIGER

@<TRIPOS>ATOM
      1  N         14.6360   58.4640  -37.5010 N.3   186  ARG186     -0.1231
      2  CA        15.3780   58.6180  -36.2560 C.3   186  ARG186      0.1694
      3  C         15.1790   60.0240  -35.6790 C.2   186  ARG186      0.2592
      4  O         14.7500   60.1830  -34.5390 O.2   186  ARG186     -0.2718
      5  CB        16.8640   58.3350  -36.4790 C.3   186  ARG186      0.0321
      6  CG        17.7310   58.5020  -35.2290 C.3   186  ARG186      0.0489
      7  CD        19.2020   58.6850  -35.5980 C.3   186  ARG186      0.2205
      8  NE        19.3930   59.7770  -36.5530 N.pl3 186  ARG186     -0.0865
      9  CZ        20.4930   59.9620  -37.2790 C.cat 186  ARG186      0.5346
     10  NH1       21.5200   59.1290  -37.1660 N.pl3 186  ARG186      0.1354
     11  NH2       20.5640   60.9850  -38.1200 N.pl3 186  ARG186      0.1354
     12  N         15.4810   61.0470  -36.4770 N.am  187  ASP187     -0.1974
     13  CA        15.3690   62.4300  -36.0210 C.3   187  ASP187      0.1709
     14  C         13.9310   62.9290  -36.0710 C.2   187  ASP187      0.2293
     15  O         13.1530   62.5130  -36.9340 O.2   187  ASP187     -0.2864
     16  CB        16.2650   63.3400  -36.8680 C.3   187  ASP187      0.1436
     17  CG        17.7240   62.9670  -36.7610 C.2   187  ASP187      0.3671
     18  OD1       18.1490   62.5850  -35.6500 O.co2 187  ASP187     -0.2456
     19  OD2       18.4430   63.0670  -37.7780 O.co2 187  ASP187     -0.2456
     20  N         10.1520   54.0590  -29.0170 N.3   215  VAL215     -0.1245
     21  CA        11.5610   54.5050  -29.0230 C.3   215  VAL215      0.1561
     22  C         12.5180   53.5570  -29.7470 C.2   215  VAL215      0.2260
     23  O         13.3000   53.9940  -30.5940 O.2   215  VAL215     -0.2867
     24  CB        12.1060   54.7550  -27.6040 C.3   215  VAL215      0.0252
     25  CG1       13.5480   55.2840  -27.6940 C.3   215  VAL215      0.0019
     26  CG2       11.2370   55.7680  -26.8640 C.3   215  VAL215      0.0019
     27  N         16.1610   53.2830  -33.8250 N.3   224  PHE224     -0.1227
     28  CA        15.7360   54.1660  -32.7460 C.3   224  PHE224      0.1736
     29  C         14.9900   55.3600  -33.3380 C.2   224  PHE224      0.2595
     30  O         15.3120   55.7990  -34.4390 O.2   224  PHE224     -0.2718
     31  CB        16.9330   54.6660  -31.9230 C.3   224  PHE224      0.0547
     32  CG        17.9060   53.5910  -31.4950 C.ar  224  PHE224     -0.0202
     33  CD1       19.2540   53.8960  -31.3520 C.ar  224  PHE224     -0.0042
     34  CD2       17.4850   52.3020  -31.1970 C.ar  224  PHE224     -0.0042
     35  CE1       20.1650   52.9310  -30.9520 C.ar  224  PHE224     -0.0003
     36  CE2       18.3940   51.3330  -30.7930 C.ar  224  PHE224     -0.0003
     37  CZ        19.7370   51.6530  -30.6710 C.ar  224  PHE224     -0.0000
     38  N         13.9940   55.8850  -32.6320 N.am  225  HIS225     -0.1961
     39  CA        13.3360   57.1180  -33.0820 C.3   225  HIS225      0.1787
     40  C         13.1290   58.0640  -31.9210 C.2   225  HIS225      0.2620
     41  O         13.1070   57.6490  -30.7680 O.2   225  HIS225     -0.2715
     42  CB        12.0010   56.8220  -33.7790 C.3   225  HIS225      0.0785
     43  CG        11.0430   56.0270  -32.9440 C.ar  225  HIS225      0.0821
     44  ND1       10.9210   54.6610  -33.0600 N.ar  225  HIS225     -0.2267
     45  CD2       10.1760   56.4070  -31.9750 C.ar  225  HIS225      0.1154
     46  CE1       10.0110   54.2320  -32.1970 C.ar  225  HIS225      0.1986
     47  NE2        9.5390   55.2710  -31.5350 N.ar  225  HIS225     -0.2212
     48  N         12.9960   59.3480  -32.2330 N.am  226  ASP226     -0.1958
     49  CA        12.8250   60.3750  -31.2230 C.3   226  ASP226      0.1825
     50  C         11.5550   60.1330  -30.4110 C.2   226  ASP226      0.2464
     51  O         10.4930   59.9020  -30.9830 O.2   226  ASP226     -0.2730
     52  CB        12.7850   61.7610  -31.8840 C.3   226  ASP226      0.1450
     53  CG        12.9570   62.8860  -30.8770 C.2   226  ASP226      0.3671
     54  OD1       14.0190   63.5390  -30.8930 O.co2 226  ASP226     -0.2456
     55  OD2       12.0490   63.1080  -30.0550 O.co2 226  ASP226     -0.2456
     56  N         11.6580   60.1850  -29.0710 N.am  227  PRO227     -0.2715
     57  CA        10.4840   59.9370  -28.2310 C.3   227  PRO227      0.1536
     58  C          9.3210   60.8990  -28.4880 C.2   227  PRO227      0.2598
     59  O          8.1900   60.5690  -28.1640 O.2   227  PRO227     -0.2715
     60  CB        11.0140   60.1270  -26.8030 C.3   227  PRO227      0.0310
     61  CG        12.4610   59.9880  -26.9020 C.3   227  PRO227      0.0237
     62  CD        12.8550   60.4750  -28.2670 C.3   227  PRO227      0.0939
     63  N          9.5970   62.0700  -29.0620 N.am  228  ARG228     -0.1978
     64  CA         8.5460   63.0500  -29.3180 C.3   228  ARG228      0.1597
     65  C          7.4910   62.5120  -30.2830 C.2   228  ARG228      0.2287
     66  O          6.3610   62.9860  -30.3010 O.2   228  ARG228     -0.2864
     67  CB         9.1440   64.3470  -29.8670 C.3   228  ARG228      0.0334
     68  CG         9.8310   65.1930  -28.8100 C.3   228  ARG228      0.0492
     69  CD        10.5290   66.3920  -29.4300 C.3   228  ARG228      0.2205
     70  NE        11.7970   66.0250  -30.0500 N.pl3 228  ARG228     -0.0865
     71  CZ        12.5980   66.8870  -30.6650 C.cat 228  ARG228      0.5346
     72  NH1       12.2540   68.1660  -30.7460 N.pl3 228  ARG228      0.1354
     73  NH2       13.7380   66.4710  -31.2060 N.pl3 228  ARG228      0.1354
     74  N         16.1510   50.7590  -22.3390 N.3   256  THR256     -0.1218
     75  CA        16.4630   51.9700  -23.1190 C.3   256  THR256      0.1862
     76  C         16.8950   53.1690  -22.2900 C.2   256  THR256      0.2287
     77  O         17.0410   54.2630  -22.8310 O.2   256  THR256     -0.2866
     78  CB        15.2610   52.4350  -23.9770 C.3   256  THR256      0.1770
     79  OG1       14.2600   53.0330  -23.1340 O.3   256  THR256     -0.2211
     80  CG2       14.6780   51.2620  -24.7690 C.3   256  THR256      0.0375
     81  N         10.2990   58.0900  -21.6840 N.3   264  HIS264     -0.1241
     82  CA        11.1100   59.0830  -22.4080 C.3   264  HIS264      0.1621
     83  C         10.2490   60.2040  -22.9710 C.2   264  HIS264      0.2264
     84  O         10.7130   61.3330  -23.1520 O.2   264  HIS264     -0.2867
     85  CB        11.8670   58.4560  -23.5780 C.3   264  HIS264      0.0745
     86  CG        13.0000   57.5670  -23.1790 C.ar  264  HIS264      0.0817
     87  ND1       14.0780   58.0060  -22.4400 N.ar  264  HIS264     -0.2268
     88  CD2       13.2380   56.2630  -23.4590 C.ar  264  HIS264      0.1154
     89  CE1       14.9210   57.0040  -22.2630 C.ar  264  HIS264      0.1986
     90  NE2       14.4340   55.9360  -22.8720 N.ar  264  HIS264     -0.2212
     91  N         23.7270   53.7370  -30.2440 N.3   363  VAL363     -0.1231
     92  CA        23.5420   53.2470  -28.8840 C.3   363  VAL363      0.1692
     93  C         22.3350   53.9270  -28.2330 C.2   363  VAL363      0.2592
     94  O         22.1370   55.1410  -28.3620 O.2   363  VAL363     -0.2718
     95  CB        24.8230   53.4820  -28.0270 C.3   363  VAL363      0.0266
     96  CG1       24.5800   53.1320  -26.5640 C.3   363  VAL363      0.0020
     97  CG2       26.0020   52.6930  -28.5940 C.3   363  VAL363      0.0020
     98  N         21.5040   53.1320  -27.5580 N.am  364  CYS364     -0.1970
     99  CA        20.3860   53.6540  -26.7940 C.3   364  CYS364      0.1712
    100  C         20.2840   52.8440  -25.5090 C.2   364  CYS364      0.2296
    101  O         19.9250   51.6600  -25.5480 O.2   364  CYS364     -0.2864
    102  CB        19.0870   53.5730  -27.5970 C.3   364  CYS364      0.0983
    103  SG        17.6630   54.2640  -26.7320 S.3   364  CYS364     -0.0798
@<TRIPOS>BOND
     1    11     9    1
     2    19    17   ar
     3     1     2    1
     4     9    10    1
     5     9     8    2
     6    15    14    2
     7    16    17    1
     8    16    13    1
     9    17    18   ar
    10     8     7    1
    11     5     2    1
    12     5     6    1
    13    12    13    1
    14    12     3   am
    15     2     3    1
    16    14    13    1
    17     3     4    2
    18     7     6    1
    19    30    29    2
    20    27    28    1
    21    42    39    1
    22    42    43    1
    23    29    28    1
    24    29    38   am
    25    39    38    1
    26    39    40    1
    27    44    43   ar
    28    44    46   ar
    29    43    45   ar
    30    28    31    1
    31    48    40   am
    32    48    49    1
    33    46    47   ar
    34    45    47   ar
    35    31    32    1
    36    40    41    2
    37    52    49    1
    38    52    53    1
    39    32    33   ar
    40    32    34   ar
    41    33    35   ar
    42    49    50    1
    43    73    71    1
    44    34    36   ar
    45    51    50    2
    46    35    37   ar
    47    54    53   ar
    48    53    55   ar
    49    36    37   ar
    50    72    71    1
    51    71    70    2
    52    23    22    2
    53    50    56   am
    54    66    65    2
    55    65    64    1
    56    91    92    1
    57    70    69    1
    58    67    64    1
    59    67    68    1
    60    22    21    1
    61    69    68    1
    62    64    63    1
    63    56    62    1
    64    56    57    1
    65    63    58   am
    66    21    20    1
    67    21    24    1
    68    92    93    1
    69    92    95    1
    70    97    95    1
    71    58    57    1
    72    58    59    2
    73    94    93    2
    74    62    61    1
    75    93    98   am
    76    57    60    1
    77    95    96    1
    78    25    24    1
    79    24    26    1
    80   102    99    1
    81   102   103    1
    82    98    99    1
    83    61    60    1
    84    99   100    1
    85   101   100    2
    86    80    78    1
    87    78    79    1
    88    78    75    1
    89    85    86    1
    90    85    82    1
    91    88    86   ar
    92    88    90   ar
    93    86    87   ar
    94    84    83    2
    95    75    74    1
    96    75    76    1
    97    83    82    1
    98    90    89   ar
    99    77    76    2
   100    87    89   ar
   101    82    81    1
