@<TRIPOS>MOLECULE
tmp/4wyoA00.pdb
 120 114 0 0 0
SMALL
GASTEIGER

@<TRIPOS>ATOM
      1  N         13.1590   -3.4470  -28.1280 N.3   441  ALA441     -0.1245
      2  CA        13.1610   -2.7810  -26.8300 C.3   441  ALA441      0.1562
      3  C         14.5110   -2.9370  -26.1530 C.2   441  ALA441      0.2260
      4  O         15.1650   -3.9660  -26.3180 O.2   441  ALA441     -0.2867
      5  CB        12.0490   -3.3540  -25.9510 C.3   441  ALA441      0.0290
      6  N         16.6230   -5.9960  -23.4580 N.3   444  VAL444     -0.1245
      7  CA        16.0700   -7.3100  -23.8030 C.3   444  VAL444      0.1561
      8  C         16.9470   -7.9770  -24.8820 C.2   444  VAL444      0.2260
      9  O         17.2680   -7.3520  -25.8910 O.2   444  VAL444     -0.2867
     10  CB        14.5500   -7.2750  -24.1690 C.3   444  VAL444      0.0252
     11  CG1       14.0800   -8.5950  -24.8050 C.3   444  VAL444      0.0019
     12  CG2       13.6980   -6.9370  -22.9440 C.3   444  VAL444      0.0019
     13  N         17.5210  -10.2900  -27.9690 N.3   446  PHE446     -0.1241
     14  CA        16.8010  -10.7610  -29.1530 C.3   446  PHE446      0.1605
     15  C         17.7550  -11.7120  -29.9060 C.2   446  PHE446      0.2264
     16  O         18.9270  -11.8050  -29.5180 O.2   446  PHE446     -0.2867
     17  CB        16.4110   -9.5590  -30.0300 C.3   446  PHE446      0.0534
     18  CG        15.2940   -8.7230  -29.4420 C.ar  446  PHE446     -0.0203
     19  CD1       15.5660   -7.7160  -28.5200 C.ar  446  PHE446     -0.0042
     20  CD2       13.9690   -8.9270  -29.8280 C.ar  446  PHE446     -0.0042
     21  CE1       14.5330   -6.9420  -27.9770 C.ar  446  PHE446     -0.0003
     22  CE2       12.9390   -8.1580  -29.2810 C.ar  446  PHE446     -0.0003
     23  CZ        13.2290   -7.1730  -28.3560 C.ar  446  PHE446     -0.0000
     24  N         16.4610   -7.5400  -18.9470 N.3   475  ARG475     -0.1231
     25  CA        15.1820   -7.9630  -18.3840 C.3   475  ARG475      0.1694
     26  C         15.0430   -9.4870  -18.6160 C.2   475  ARG475      0.2593
     27  O         14.4830  -10.2000  -17.7800 O.2   475  ARG475     -0.2718
     28  CB        14.0160   -7.2380  -19.0790 C.3   475  ARG475      0.0321
     29  CG        13.9950   -5.7430  -18.8950 C.3   475  ARG475      0.0489
     30  CD        12.8320   -5.1270  -19.6400 C.3   475  ARG475      0.2205
     31  NE        11.5750   -5.2820  -18.9150 N.pl3 475  ARG475     -0.0865
     32  CZ        10.3920   -4.8270  -19.3300 C.cat 475  ARG475      0.5346
     33  NH1       10.2870   -4.1800  -20.4900 N.pl3 475  ARG475      0.1354
     34  NH2        9.3060   -5.0270  -18.5990 N.pl3 475  ARG475      0.1354
     35  N         15.5600   -9.9530  -19.7560 N.am  476  GLY476     -0.1942
     36  CA        15.5420  -11.3550  -20.1660 C.3   476  GLY476      0.2014
     37  C         15.7140  -11.5020  -21.6610 C.2   476  GLY476      0.2639
     38  O         16.4430  -10.7280  -22.2850 O.2   476  GLY476     -0.2714
     39  N         15.0550  -12.4910  -22.2410 N.am  477  PHE477     -0.1959
     40  CA        15.0880  -12.7180  -23.6890 C.3   477  PHE477      0.1771
     41  C         13.6850  -12.3790  -24.2260 C.2   477  PHE477      0.2620
     42  O         12.7350  -12.4200  -23.4480 O.2   477  PHE477     -0.2715
     43  CB        15.4910  -14.1910  -24.0200 C.3   477  PHE477      0.0574
     44  CG        16.9420  -14.5410  -23.7270 C.ar  477  PHE477     -0.0200
     45  CD1       17.3330  -14.9720  -22.4610 C.ar  477  PHE477     -0.0042
     46  CD2       17.9180  -14.4160  -24.7110 C.ar  477  PHE477     -0.0042
     47  CE1       18.6810  -15.2450  -22.1800 C.ar  477  PHE477     -0.0003
     48  CE2       19.2660  -14.6830  -24.4270 C.ar  477  PHE477     -0.0003
     49  CZ        19.6360  -15.1070  -23.1670 C.ar  477  PHE477     -0.0000
     50  N         13.5490  -12.0030  -25.5180 N.am  478  SER478     -0.1936
     51  CA        12.2270  -11.7700  -26.0830 C.3   478  SER478      0.2055
     52  C         11.6100  -13.1560  -26.2920 C.2   478  SER478      0.2644
     53  O         12.1130  -13.9510  -27.0960 O.2   478  SER478     -0.2714
     54  CB        12.3010  -11.0300  -27.4070 C.3   478  SER478      0.2130
     55  OG        10.9860  -10.7940  -27.8820 O.3   478  SER478     -0.2179
     56  N         10.5900  -13.4530  -25.4780 N.am  479  GLY479     -0.1939
     57  CA         9.8920  -14.7300  -25.4410 C.3   479  GLY479      0.2014
     58  C          8.6660  -14.8060  -26.3230 C.2   479  GLY479      0.2639
     59  O          8.0240  -15.8600  -26.3830 O.2   479  GLY479     -0.2714
     60  N          8.3460  -13.7010  -27.0070 N.am  480  GLY480     -0.1954
     61  CA         7.2130  -13.6270  -27.9260 C.3   480  GLY480      0.1869
     62  C          7.3440  -14.5240  -29.1450 C.2   480  GLY480      0.2309
     63  O          8.4320  -14.9880  -29.4590 O.2   480  GLY480     -0.2863
     64  N         17.1410  -10.8390  -14.4770 N.3   517  ARG517     -0.1245
     65  CA        15.9710  -11.6010  -14.0560 C.3   517  ARG517      0.1563
     66  C         16.1370  -13.0610  -14.4250 C.2   517  ARG517      0.2260
     67  O         17.1850  -13.4270  -14.9680 O.2   517  ARG517     -0.2867
     68  CB        14.6640  -10.9960  -14.6260 C.3   517  ARG517      0.0307
     69  CG        14.4430   -9.5170  -14.2930 C.3   517  ARG517      0.0489
     70  CD        13.9840   -9.2920  -12.8620 C.3   517  ARG517      0.2205
     71  NE        13.9890   -7.8740  -12.5110 N.pl3 517  ARG517     -0.0865
     72  CZ        13.8720   -7.4070  -11.2740 C.cat 517  ARG517      0.5346
     73  NH1       13.7580   -8.2430  -10.2500 N.pl3 517  ARG517      0.1354
     74  NH2       13.8760   -6.1010  -11.0500 N.pl3 517  ARG517      0.1354
     75  N         13.7150  -13.3730   -9.7740 N.3   545  VAL545     -0.1231
     76  CA        13.2000  -14.2350  -10.8450 C.3   545  VAL545      0.1692
     77  C         12.3820  -13.4050  -11.8540 C.2   545  VAL545      0.2592
     78  O         12.6420  -13.4540  -13.0620 O.2   545  VAL545     -0.2718
     79  CB        12.4300  -15.5030  -10.3430 C.3   545  VAL545      0.0266
     80  CG1       12.0000  -16.3950  -11.5090 C.3   545  VAL545      0.0020
     81  CG2       13.2470  -16.3050   -9.3290 C.3   545  VAL545      0.0020
     82  N         11.4300  -12.6270  -11.3310 N.am  546  LEU546     -0.1966
     83  CA        10.4920  -11.7970  -12.0760 C.3   546  LEU546      0.1728
     84  C         10.6350  -10.3260  -11.6820 C.2   546  LEU546      0.2616
     85  O         11.1490   -9.9980  -10.6070 O.2   546  LEU546     -0.2715
     86  CB         9.0660  -12.2300  -11.6660 C.3   546  LEU546      0.0311
     87  CG         8.2840  -13.3330  -12.3790 C.3   546  LEU546      0.0022
     88  CD1        9.1190  -14.4010  -13.0520 C.3   546  LEU546      0.0001
     89  CD2        7.2510  -13.8940  -11.4730 C.3   546  LEU546      0.0001
     90  N         10.0750   -9.4460  -12.4970 N.am  547  GLU547     -0.1977
     91  CA        10.0450   -8.0380  -12.1680 C.3   547  GLU547      0.1602
     92  C          8.9440   -7.8250  -11.0960 C.2   547  GLU547      0.2287
     93  O          7.9490   -8.5550  -11.1250 O.2   547  GLU547     -0.2864
     94  CB         9.8020   -7.2140  -13.4300 C.3   547  GLU547      0.0415
     95  CG        11.0110   -7.2150  -14.3330 C.3   547  GLU547      0.1163
     96  CD        10.8350   -6.6240  -15.7150 C.2   547  GLU547      0.3649
     97  OE1        9.6790   -6.4280  -16.1620 O.co2 547  GLU547     -0.2457
     98  OE2       11.8750   -6.3910  -16.3700 O.co2 547  GLU547     -0.2457
     99  N          6.2070   -6.3480  -10.6390 N.3   549  GLU549     -0.1231
    100  CA         4.8320   -6.4930  -11.1200 C.3   549  GLU549      0.1699
    101  C          4.4660   -7.9650  -11.3500 C.2   549  GLU549      0.2592
    102  O          3.3560   -8.3870  -11.0030 O.2   549  GLU549     -0.2718
    103  CB         4.5490   -5.6060  -12.3540 C.3   549  GLU549      0.0402
    104  CG         3.3670   -4.6590  -12.1870 C.3   549  GLU549      0.1161
    105  CD         2.1050   -5.2510  -11.5780 C.2   549  GLU549      0.3649
    106  OE1        1.6820   -4.7420  -10.5140 O.co2 549  GLU549     -0.2457
    107  OE2        1.5640   -6.2390  -12.1340 O.co2 549  GLU549     -0.2457
    108  N          5.4160   -8.7400  -11.8580 N.am  550  GLY550     -0.1957
    109  CA         5.2120  -10.1590  -12.0610 C.3   550  GLY550      0.1869
    110  C          5.1450  -10.9140  -10.7550 C.2   550  GLY550      0.2309
    111  O          4.3440  -11.8490  -10.6210 O.2   550  GLY550     -0.2863
    112  N          1.7320  -10.3430   -8.7570 N.3   553  GLU553     -0.1245
    113  CA         0.7200  -11.0490   -9.5370 C.3   553  GLU553      0.1567
    114  C          0.5960  -12.5160   -9.0540 C.2   553  GLU553      0.2260
    115  O         -0.5040  -13.0510   -9.0130 O.2   553  GLU553     -0.2867
    116  CB         1.1660  -11.0050  -10.9950 C.3   553  GLU553      0.0388
    117  CG         0.0890  -10.9250  -12.0600 C.3   553  GLU553      0.1160
    118  CD         0.6170  -11.2710  -13.4490 C.2   553  GLU553      0.3649
    119  OE1       -0.2170  -11.3260  -14.3810 O.co2 553  GLU553     -0.2457
    120  OE2        1.8320  -11.5580  -13.5990 O.co2 553  GLU553     -0.2457
@<TRIPOS>BOND
     1    17    18    1
     2    17    14    1
     3    15    16    2
     4    15    14    1
     5    20    18   ar
     6    20    22   ar
     7    63    62    2
     8    18    19   ar
     9    22    23   ar
    10    14    13    1
    11    62    61    1
    12    19    21   ar
    13    23    21   ar
    14     1     2    1
    15    61    60    1
    16    55    54    1
    17    54    51    1
    18    53    52    2
    19    60    58   am
    20     2     3    1
    21     2     5    1
    22    59    58    2
    23    58    57    1
    24     4     3    2
    25    52    51    1
    26    52    56   am
    27    51    50    1
    28     9     8    2
    29    50    41   am
    30    56    57    1
    31     8     7    1
    32    11    10    1
    33    46    48   ar
    34    46    44   ar
    35    48    49   ar
    36    41    40    1
    37    41    42    2
    38    10     7    1
    39    10    12    1
    40    43    44    1
    41    43    40    1
    42     7     6    1
    43    44    45   ar
    44    40    39    1
    45    49    47   ar
    46    45    47   ar
    47    38    37    2
    48    39    37   am
    49    37    36    1
    50    33    32    1
    51    36    35    1
    52    35    26   am
    53    30    31    1
    54    30    29    1
    55    32    31    2
    56    32    34    1
    57    28    29    1
    58    28    25    1
    59    24    25    1
    60    26    25    1
    61    26    27    2
    62    98    96   ar
    63    97    96   ar
    64    96    95    1
    65    67    66    2
    66    68    69    1
    67    68    65    1
    68    64    65    1
    69    66    65    1
    70   119   118   ar
    71    95    94    1
    72    69    70    1
    73   120   118   ar
    74   118   117    1
    75    94    91    1
    76    78    77    2
    77    88    87    1
    78    70    71    1
    79    71    72    2
    80    90    91    1
    81    90    84   am
    82    87    86    1
    83    87    89    1
    84   103   104    1
    85   103   100    1
    86   104   105    1
    87    91    92    1
    88   107   105   ar
    89    83    84    1
    90    83    86    1
    91    83    82    1
    92   109   108    1
    93   109   110    1
    94   117   116    1
    95   108   101   am
    96    77    82   am
    97    77    76    1
    98    84    85    2
    99   105   106   ar
   100    80    79    1
   101   101   100    1
   102   101   102    2
   103    72    74    1
   104    72    73    1
   105    93    92    2
   106   100    99    1
   107   116   113    1
   108    76    79    1
   109    76    75    1
   110   110   111    2
   111    79    81    1
   112   113   114    1
   113   113   112    1
   114   114   115    2
