@<TRIPOS>MOLECULE
tmp/4wyrB02.pdb
 75 69 0 0 0
SMALL
GASTEIGER

@<TRIPOS>ATOM
      1  N        -17.3820  -26.4880  -30.7980 N.3   178  PHE178     -0.1241
      2  CA       -17.3860  -25.8340  -29.4810 C.3   178  PHE178      0.1605
      3  C        -18.7540  -25.9250  -28.7870 C.2   178  PHE178      0.2264
      4  O        -18.8100  -26.3550  -27.6640 O.2   178  PHE178     -0.2867
      5  CB       -16.9360  -24.4150  -29.6360 C.3   178  PHE178      0.0534
      6  CG       -16.8550  -23.6460  -28.3630 C.ar  178  PHE178     -0.0203
      7  CD1      -18.0100  -23.0530  -27.8130 C.ar  178  PHE178     -0.0042
      8  CD2      -15.6280  -23.4430  -27.7420 C.ar  178  PHE178     -0.0042
      9  CE1      -17.9430  -22.3260  -26.6510 C.ar  178  PHE178     -0.0003
     10  CE2      -15.5590  -22.6740  -26.5850 C.ar  178  PHE178     -0.0003
     11  CZ       -16.7170  -22.1210  -26.0370 C.ar  178  PHE178     -0.0000
     12  N        -19.3770  -29.5670  -27.6690 N.3   181  ALA181     -0.1231
     13  CA       -18.5620  -29.8430  -26.4770 C.3   181  ALA181      0.1694
     14  C        -19.1950  -29.2360  -25.2180 C.2   181  ALA181      0.2592
     15  O        -19.2280  -29.8940  -24.1910 O.2   181  ALA181     -0.2718
     16  CB       -17.1250  -29.3400  -26.6470 C.3   181  ALA181      0.0304
     17  N        -19.7600  -28.0300  -25.3400 N.am  182  SER182     -0.1952
     18  CA       -20.4690  -27.3910  -24.2400 C.3   182  SER182      0.1924
     19  C        -21.7020  -28.2030  -23.8450 C.2   182  SER182      0.2314
     20  O        -21.8490  -28.5580  -22.6930 O.2   182  SER182     -0.2863
     21  CB       -20.8560  -25.9780  -24.5740 C.3   182  SER182      0.2116
     22  OG       -21.4420  -25.3800  -23.4420 O.3   182  SER182     -0.2180
     23  N        -20.4840  -31.7250  -22.1270 N.3   185  LYS185     -0.1245
     24  CA       -20.0270  -31.4740  -20.7760 C.3   185  LYS185      0.1561
     25  C        -21.1620  -31.0800  -19.8570 C.2   185  LYS185      0.2260
     26  O        -21.2120  -31.5660  -18.7190 O.2   185  LYS185     -0.2867
     27  CB       -18.9560  -30.4360  -20.7660 C.3   185  LYS185      0.0271
     28  CG       -17.7000  -30.9240  -21.4480 C.3   185  LYS185      0.0035
     29  CD       -16.5670  -29.9280  -21.3390 C.3   185  LYS185      0.0206
     30  CE       -16.8430  -28.6600  -22.1600 C.3   185  LYS185      0.1093
     31  NZ       -15.8240  -27.6030  -21.8420 N.3   185  LYS185     -0.1314
     32  N        -19.6560  -18.2970  -22.4060 N.3   317  GLU317     -0.1245
     33  CA       -19.9590  -18.5620  -23.7920 C.3   317  GLU317      0.1567
     34  C        -21.1450  -17.7530  -24.3120 C.2   317  GLU317      0.2260
     35  O        -22.1720  -18.3260  -24.6340 O.2   317  GLU317     -0.2867
     36  CB       -20.1980  -20.0570  -24.0130 C.3   317  GLU317      0.0388
     37  CG       -19.2620  -20.9660  -23.2520 C.3   317  GLU317      0.1160
     38  CD       -19.5370  -22.4360  -23.4890 C.2   317  GLU317      0.3649
     39  OE1      -20.6500  -22.7770  -23.9080 O.co2 317  GLU317     -0.2457
     40  OE2      -18.6320  -23.2420  -23.2680 O.co2 317  GLU317     -0.2457
     41  N         -7.8570  -26.0700  -23.4350 N.3   334  MET334     -0.1230
     42  CA        -9.2930  -26.2600  -23.5220 C.3   334  MET334      0.1702
     43  C         -9.8450  -27.2950  -22.5560 C.2   334  MET334      0.2592
     44  O        -11.0010  -27.2450  -22.2000 O.2   334  MET334     -0.2718
     45  CB        -9.7520  -26.4900  -24.9600 C.3   334  MET334      0.0401
     46  CG        -9.5030  -25.3250  -25.9090 C.3   334  MET334      0.0596
     47  SD        -9.8600  -23.6710  -25.2970 S.3   334  MET334     -0.1393
     48  CE       -11.6090  -23.5930  -25.5850 C.3   334  MET334      0.0692
     49  N         -9.0140  -28.2400  -22.1490 N.am  335  ASN335     -0.1974
     50  CA        -9.4220  -29.2600  -21.1960 C.3   335  ASN335      0.1688
     51  C         -9.7570  -28.6390  -19.8390 C.2   335  ASN335      0.2292
     52  O        -10.4810  -29.2110  -19.0610 O.2   335  ASN335     -0.2864
     53  CB        -8.3740  -30.3700  -21.0510 C.3   335  ASN335      0.1181
     54  CG        -8.1390  -31.1320  -22.3370 C.2   335  ASN335      0.2629
     55  OD1       -9.0640  -31.6170  -22.9820 O.2   335  ASN335     -0.2716
     56  ND2       -6.8840  -31.2490  -22.7070 N.am  335  ASN335     -0.0877
     57  N        -11.1950  -25.5960  -19.5460 N.3   337  VAL337     -0.1231
     58  CA       -12.2500  -24.6060  -19.7170 C.3   337  VAL337      0.1692
     59  C        -13.6840  -25.0840  -19.6460 C.2   337  VAL337      0.2592
     60  O        -14.0620  -26.0020  -20.3310 O.2   337  VAL337     -0.2718
     61  CB       -12.0740  -23.8690  -21.0640 C.3   337  VAL337      0.0266
     62  CG1      -13.1470  -22.8130  -21.2760 C.3   337  VAL337      0.0020
     63  CG2      -10.6970  -23.2720  -21.1730 C.3   337  VAL337      0.0020
     64  N        -14.4740  -24.4330  -18.8060 N.am  338  ASN338     -0.1974
     65  CA       -15.8930  -24.7360  -18.6950 C.3   338  ASN338      0.1688
     66  C        -16.1390  -26.2250  -18.5770 C.2   338  ASN338      0.2292
     67  O        -16.8960  -26.7910  -19.3420 O.2   338  ASN338     -0.2864
     68  CB       -16.6800  -24.1490  -19.8660 C.3   338  ASN338      0.1181
     69  CG       -16.4950  -22.6490  -20.0300 C.2   338  ASN338      0.2629
     70  OD1      -15.9860  -21.9630  -19.1720 O.2   338  ASN338     -0.2716
     71  ND2      -16.9390  -22.1450  -21.1480 N.am  338  ASN338     -0.0877
     72  N        -20.7920  -24.6690  -20.6610 N.3   342  GLY342     -0.1225
     73  CA       -20.8500  -23.1960  -20.5260 C.3   342  GLY342      0.1811
     74  C        -22.2110  -22.7150  -20.9860 C.2   342  GLY342      0.2280
     75  O        -23.1710  -23.5030  -21.1420 O.2   342  GLY342     -0.2866
@<TRIPOS>BOND
     1     1     2    1
     2     5     2    1
     3     5     6    1
     4     2     3    1
     5     3     4    2
     6     6     7   ar
     7     6     8   ar
     8     7     9   ar
     9     8    10   ar
    10    12    13    1
    11     9    11   ar
    12    16    13    1
    13    10    11   ar
    14    13    14    1
    15    46    47    1
    16    46    45    1
    17    48    47    1
    18    17    14   am
    19    17    18    1
    20    14    15    2
    21    45    42    1
    22    35    34    2
    23    21    18    1
    24    21    22    1
    25    34    33    1
    26    18    19    1
    27    36    33    1
    28    36    37    1
    29    39    38   ar
    30    19    20    2
    31    33    32    1
    32    42    41    1
    33    42    43    1
    34    38    40   ar
    35    38    37    1
    36    55    54    2
    37    56    54   am
    38    43    44    2
    39    43    49   am
    40    54    53    1
    41    30    31    1
    42    30    29    1
    43    49    50    1
    44    23    24    1
    45    28    29    1
    46    28    27    1
    47    62    61    1
    48    50    53    1
    49    50    51    1
    50    63    61    1
    51    71    69   am
    52    75    74    2
    53    61    58    1
    54    74    73    1
    55    24    27    1
    56    24    25    1
    57    72    73    1
    58    60    59    2
    59    69    68    1
    60    69    70    2
    61    68    65    1
    62    25    26    2
    63    51    52    2
    64    58    59    1
    65    58    57    1
    66    59    64   am
    67    67    66    2
    68    64    65    1
    69    65    66    1
