@<TRIPOS>MOLECULE
tmp/4wyrB01.pdb
 104 100 0 0 0
SMALL
GASTEIGER

@<TRIPOS>ATOM
      1  N        -35.1840  -12.5130  -17.8730 N.3   118  MET118     -0.1245
      2  CA       -35.4260  -12.1420  -19.2420 C.3   118  MET118      0.1570
      3  C        -36.8280  -12.4800  -19.7220 C.2   118  MET118      0.2261
      4  O        -37.3700  -11.7910  -20.5580 O.2   118  MET118     -0.2867
      5  CB       -34.3340  -12.6820  -20.1520 C.3   118  MET118      0.0387
      6  CG       -32.9660  -12.1950  -19.7430 C.3   118  MET118      0.0595
      7  SD       -31.5740  -12.8620  -20.6370 S.3   118  MET118     -0.1393
      8  CE       -31.5960  -11.8020  -22.0560 C.3   118  MET118      0.0692
      9  N        -29.4770   -6.6700  -25.1970 N.3   148  LEU148     -0.1245
     10  CA       -28.8200   -7.2250  -26.3600 C.3   148  LEU148      0.1561
     11  C        -28.5180   -6.3830  -27.5930 C.2   148  LEU148      0.2260
     12  O        -28.1290   -6.9230  -28.5900 O.2   148  LEU148     -0.2867
     13  CB       -29.6490   -8.4170  -26.7920 C.3   148  LEU148      0.0270
     14  CG       -30.0010   -9.3150  -25.6150 C.3   148  LEU148      0.0019
     15  CD1      -31.2310  -10.1520  -25.8520 C.3   148  LEU148      0.0001
     16  CD2      -28.8260  -10.1930  -25.2870 C.3   148  LEU148      0.0001
     17  N        -27.5990   -5.9820  -33.1920 N.3   156  HIS156     -0.1226
     18  CA       -27.6250   -7.0240  -32.1740 C.3   156  HIS156      0.1752
     19  C        -26.2270   -7.4900  -31.7490 C.2   156  HIS156      0.2595
     20  O        -25.2670   -7.3400  -32.4660 O.2   156  HIS156     -0.2718
     21  CB       -28.4350   -8.2090  -32.7030 C.3   156  HIS156      0.0759
     22  CG       -28.9950   -9.1070  -31.6450 C.ar  156  HIS156      0.0818
     23  ND1      -28.2140   -9.9510  -30.8980 N.ar  156  HIS156     -0.2268
     24  CD2      -30.2670   -9.3260  -31.2420 C.ar  156  HIS156      0.1154
     25  CE1      -28.9710  -10.6300  -30.0640 C.ar  156  HIS156      0.1986
     26  NE2      -30.2220  -10.2750  -30.2580 N.ar  156  HIS156     -0.2212
     27  N        -26.1400   -8.0490  -30.5570 N.am  157  MET157     -0.1979
     28  CA       -24.8980   -8.5510  -30.0200 C.3   157  MET157      0.1605
     29  C        -24.3860   -9.6360  -30.9440 C.2   157  MET157      0.2287
     30  O        -23.2050   -9.8240  -31.0610 O.2   157  MET157     -0.2864
     31  CB       -25.0810   -9.0920  -28.6130 C.3   157  MET157      0.0413
     32  CG       -25.2190   -8.0440  -27.5230 C.3   157  MET157      0.0598
     33  SD       -23.8710   -6.8770  -27.3980 S.3   157  MET157     -0.1393
     34  CE       -24.5630   -5.4900  -28.2600 C.3   157  MET157      0.0692
     35  N        -28.6790  -17.1320  -37.4780 N.3   234  ALA234     -0.1231
     36  CA       -29.5230  -16.2500  -36.6760 C.3   234  ALA234      0.1694
     37  C        -29.5710  -14.7320  -36.9240 C.2   234  ALA234      0.2592
     38  O        -30.6200  -14.1190  -36.8330 O.2   234  ALA234     -0.2718
     39  CB       -29.2990  -16.5320  -35.2010 C.3   234  ALA234      0.0304
     40  N        -28.4260  -14.1300  -37.1900 N.am  235  PHE235     -0.1976
     41  CA       -28.3390  -12.6880  -37.3240 C.3   235  PHE235      0.1639
     42  C        -27.9520  -12.0780  -38.6490 C.2   235  PHE235      0.2290
     43  O        -28.1140  -10.8960  -38.8500 O.2   235  PHE235     -0.2864
     44  CB       -27.3530  -12.1900  -36.2770 C.3   235  PHE235      0.0560
     45  CG       -27.6290  -12.7060  -34.9120 C.ar  235  PHE235     -0.0200
     46  CD1      -28.5090  -12.0610  -34.0830 C.ar  235  PHE235     -0.0042
     47  CD2      -27.0290  -13.8520  -34.4670 C.ar  235  PHE235     -0.0042
     48  CE1      -28.7780  -12.5430  -32.8330 C.ar  235  PHE235     -0.0003
     49  CE2      -27.2980  -14.3400  -33.2190 C.ar  235  PHE235     -0.0003
     50  CZ       -28.1720  -13.6850  -32.3990 C.ar  235  PHE235     -0.0000
     51  N        -28.6100  -20.1720  -33.4870 N.3   243  ALA243     -0.1245
     52  CA       -29.2270  -20.4130  -32.1990 C.3   243  ALA243      0.1562
     53  C        -28.4460  -21.5080  -31.4640 C.2   243  ALA243      0.2260
     54  O        -28.3810  -21.5420  -30.2590 O.2   243  ALA243     -0.2867
     55  CB       -30.6800  -20.8060  -32.3700 C.3   243  ALA243      0.0290
     56  N        -24.7030  -19.9480  -30.1280 N.3   246  ALA246     -0.1231
     57  CA       -24.8630  -18.7290  -29.3900 C.3   246  ALA246      0.1694
     58  C        -25.6910  -19.1290  -28.1910 C.2   246  ALA246      0.2593
     59  O        -26.4250  -20.0900  -28.2370 O.2   246  ALA246     -0.2718
     60  CB       -25.5990  -17.6980  -30.2160 C.3   246  ALA246      0.0304
     61  N        -25.5510  -18.3940  -27.1070 N.am  247  SER247     -0.1938
     62  CA       -26.3130  -18.6660  -25.9000 C.3   247  SER247      0.2055
     63  C        -27.7570  -18.1860  -26.0510 C.2   247  SER247      0.2644
     64  O        -28.0530  -17.4510  -26.9420 O.2   247  SER247     -0.2714
     65  CB       -25.6530  -18.0340  -24.6870 C.3   247  SER247      0.2130
     66  OG       -26.1430  -18.6240  -23.5050 O.3   247  SER247     -0.2179
     67  N        -28.6490  -18.6420  -25.1950 N.am  248  GLY248     -0.1939
     68  CA       -30.0510  -18.2510  -25.2190 C.3   248  GLY248      0.2014
     69  C        -30.4260  -17.0870  -24.3130 C.2   248  GLY248      0.2638
     70  O        -29.5610  -16.3820  -23.8410 O.2   248  GLY248     -0.2714
     71  N        -31.7220  -16.9090  -24.0930 N.am  249  LEU249     -0.1977
     72  CA       -32.2800  -15.8940  -23.2180 C.3   249  LEU249      0.1596
     73  C        -32.7360  -16.6690  -21.9990 C.2   249  LEU249      0.2287
     74  O        -33.5020  -17.5930  -22.1120 O.2   249  LEU249     -0.2864
     75  CB       -33.4630  -15.2000  -23.8840 C.3   249  LEU249      0.0297
     76  CG       -33.3110  -14.7430  -25.3310 C.3   249  LEU249      0.0022
     77  CD1      -34.6710  -14.4720  -25.9300 C.3   249  LEU249      0.0001
     78  CD2      -32.4530  -13.5070  -25.4010 C.3   249  LEU249      0.0001
     79  N        -21.0120  -16.4390  -24.4080 N.3   318  ALA318     -0.1231
     80  CA       -22.1090  -15.6470  -24.9480 C.3   318  ALA318      0.1694
     81  C        -22.2790  -16.1130  -26.3840 C.2   318  ALA318      0.2592
     82  O        -23.3760  -16.3340  -26.8410 O.2   318  ALA318     -0.2718
     83  CB       -21.8070  -14.1680  -24.8880 C.3   318  ALA318      0.0304
     84  N        -21.1520  -16.2730  -27.0670 N.am  319  PHE319     -0.1976
     85  CA       -21.1020  -16.7950  -28.4130 C.3   319  PHE319      0.1639
     86  C        -19.8670  -17.6690  -28.6330 C.2   319  PHE319      0.2290
     87  O        -18.7640  -17.2860  -28.2910 O.2   319  PHE319     -0.2864
     88  CB       -21.1020  -15.6640  -29.4620 C.3   319  PHE319      0.0560
     89  CG       -22.3150  -14.7910  -29.4240 C.ar  319  PHE319     -0.0200
     90  CD1      -23.4570  -15.1510  -30.0870 C.ar  319  PHE319     -0.0042
     91  CD2      -22.3170  -13.6310  -28.7060 C.ar  319  PHE319     -0.0042
     92  CE1      -24.5800  -14.3640  -30.0530 C.ar  319  PHE319     -0.0003
     93  CE2      -23.4430  -12.8380  -28.6560 C.ar  319  PHE319     -0.0003
     94  CZ       -24.5760  -13.1990  -29.3450 C.ar  319  PHE319     -0.0000
     95  N        -27.7100  -17.8280  -20.6170 N.3   348  HIS348     -0.1241
     96  CA       -27.1250  -16.5240  -20.3700 C.3   348  HIS348      0.1621
     97  C        -28.0760  -15.4900  -19.7570 C.2   348  HIS348      0.2264
     98  O        -28.4880  -14.5740  -20.4370 O.2   348  HIS348     -0.2867
     99  CB       -26.5290  -15.9940  -21.6670 C.3   348  HIS348      0.0745
    100  CG       -25.6910  -14.7740  -21.4990 C.ar  348  HIS348      0.0817
    101  ND1      -24.6680  -14.6950  -20.5870 N.ar  348  HIS348     -0.2268
    102  CD2      -25.7150  -13.5870  -22.1380 C.ar  348  HIS348      0.1154
    103  CE1      -24.1040  -13.5090  -20.6670 C.ar  348  HIS348      0.1986
    104  NE2      -24.7210  -12.8170  -21.6010 N.ar  348  HIS348     -0.2212
@<TRIPOS>BOND
     1    43    42    2
     2    42    41    1
     3    35    36    1
     4    41    40    1
     5    41    44    1
     6    40    37   am
     7    37    38    2
     8    37    36    1
     9    36    39    1
    10    44    45    1
    11    45    47   ar
    12    45    46   ar
    13    47    49   ar
    14    46    48   ar
    15    51    52    1
    16    49    50   ar
    17    17    18    1
    18    48    50   ar
    19    21    18    1
    20    21    22    1
    21    20    19    2
    22    55    52    1
    23    52    53    1
    24    18    19    1
    25    19    27   am
    26    22    24   ar
    27    22    23   ar
    28    53    54    2
    29    24    26   ar
    30    30    29    2
    31    29    28    1
    32    23    25   ar
    33    27    28    1
    34    26    25   ar
    35    60    57    1
    36    56    57    1
    37    90    92   ar
    38    90    89   ar
    39    92    94   ar
    40    28    31    1
    41    88    89    1
    42    88    85    1
    43    89    91   ar
    44    57    58    1
    45    94    93   ar
    46    91    93   ar
    47    86    85    1
    48    86    87    2
    49    31    32    1
    50    12    11    2
    51    85    84    1
    52    34    33    1
    53    59    58    2
    54    58    61   am
    55    11    10    1
    56    32    33    1
    57    61    62    1
    58    84    81   am
    59    64    63    2
    60    82    81    2
    61    13    10    1
    62    13    14    1
    63    81    80    1
    64    10     9    1
    65    63    62    1
    66    63    67   am
    67    77    76    1
    68    62    65    1
    69    15    14    1
    70    14    16    1
    71    78    76    1
    72    76    75    1
    73    68    67    1
    74    68    69    1
    75    80    83    1
    76    80    79    1
    77    65    66    1
    78    69    71   am
    79    69    70    2
    80    71    72    1
    81    75    72    1
    82    72    73    1
    83   102   104   ar
    84   102   100   ar
    85    74    73    2
    86     8     7    1
    87    99   100    1
    88    99    96    1
    89   104   103   ar
    90   100   101   ar
    91   103   101   ar
    92     7     6    1
    93    95    96    1
    94     4     3    2
    95    98    97    2
    96    96    97    1
    97     5     6    1
    98     5     2    1
    99     3     2    1
   100     2     1    1
