@<TRIPOS>MOLECULE
tmp/4wyuC00.pdb
 175 169 0 0 0
SMALL
GASTEIGER

@<TRIPOS>ATOM
      1  N          4.1690  -28.1930  210.8550 N.3    21  PRO21      -0.2102
      2  CA         3.2770  -27.4360  211.7420 C.3    21  PRO21       0.1504
      3  C          3.5050  -25.9280  211.6640 C.2    21  PRO21       0.2576
      4  O          4.5420  -25.4840  211.1740 O.2    21  PRO21      -0.2718
      5  CB         3.6370  -27.9720  213.1290 C.3    21  PRO21       0.0282
      6  CG         5.0650  -28.3690  213.0060 C.3    21  PRO21       0.0208
      7  CD         5.2240  -28.8970  211.6050 C.3    21  PRO21       0.0893
      8  N          2.5380  -25.1580  212.1530 N.am   22  LEU22      -0.1966
      9  CA         2.5980  -23.7010  212.0880 C.3    22  LEU22       0.1728
     10  C          3.6160  -23.1190  213.0630 C.2    22  LEU22       0.2617
     11  O          4.1780  -22.0510  212.8210 O.2    22  LEU22      -0.2715
     12  CB         1.2170  -23.1040  212.3660 C.3    22  LEU22       0.0311
     13  CG         0.0970  -23.5080  211.4070 C.3    22  LEU22       0.0022
     14  CD1       -1.2120  -22.8450  211.8040 C.3    22  LEU22       0.0001
     15  CD2        0.4690  -23.1610  209.9720 C.3    22  LEU22       0.0001
     16  N          3.8480  -23.8220  214.1660 N.am   23  GLY23      -0.1940
     17  CA         4.7720  -23.3540  215.1800 C.3    23  GLY23       0.2014
     18  C          4.1490  -22.2920  216.0670 C.2    23  GLY23       0.2639
     19  O          4.8320  -21.3850  216.5420 O.2    23  GLY23      -0.2714
     20  N          2.8440  -22.4060  216.2870 N.am   24  LEU24      -0.1963
     21  CA         2.1330  -21.4600  217.1360 C.3    24  LEU24       0.1728
     22  C          1.0930  -22.1610  218.0020 C.2    24  LEU24       0.2617
     23  O          0.6840  -23.2860  217.7170 O.2    24  LEU24      -0.2715
     24  CB         1.4660  -20.3680  216.2880 C.3    24  LEU24       0.0311
     25  CG         0.3400  -20.7580  215.3250 C.3    24  LEU24       0.0022
     26  CD1       -1.0320  -20.6340  215.9750 C.3    24  LEU24       0.0001
     27  CD2        0.4070  -19.9150  214.0610 C.3    24  LEU24       0.0001
     28  N          0.6720  -21.4810  219.0630 N.am   25  SER25      -0.1936
     29  CA        -0.4050  -21.9660  219.9150 C.3    25  SER25       0.2055
     30  C         -1.4670  -20.8870  220.0600 C.2    25  SER25       0.2643
     31  O         -1.1510  -19.6970  220.0840 O.2    25  SER25      -0.2714
     32  CB         0.1230  -22.3780  221.2890 C.3    25  SER25       0.2130
     33  OG         1.1020  -23.3960  221.1800 O.3    25  SER25      -0.2179
     34  N         -2.7260  -21.2970  220.1510 N.am   26  ILE26      -0.1963
     35  CA        -3.8040  -20.3370  220.3440 C.3    26  ILE26       0.1727
     36  C         -4.6140  -20.6200  221.6030 C.2    26  ILE26       0.2616
     37  O         -4.8060  -21.7710  221.9970 O.2    26  ILE26      -0.2715
     38  CB        -4.7680  -20.2980  219.1380 C.3    26  ILE26       0.0290
     39  CG1       -5.3860  -21.6740  218.8890 C.3    26  ILE26       0.0022
     40  CG2       -4.0520  -19.7930  217.8960 C.3    26  ILE26       0.0023
     41  CD1       -6.5680  -21.6430  217.9450 C.3    26  ILE26       0.0001
     42  N         -5.0690  -19.5460  222.2370 N.am   27  VAL27      -0.1963
     43  CA        -6.0020  -19.6360  223.3470 C.3    27  VAL27       0.1727
     44  C         -7.1950  -18.7470  223.0420 C.2    27  VAL27       0.2616
     45  O         -7.1360  -17.9090  222.1430 O.2    27  VAL27      -0.2715
     46  CB        -5.3650  -19.2070  224.6820 C.3    27  VAL27       0.0290
     47  CG1       -4.2320  -20.1450  225.0580 C.3    27  VAL27       0.0023
     48  CG2       -4.8730  -17.7690  224.5970 C.3    27  VAL27       0.0023
     49  N         -8.2780  -18.9320  223.7840 N.am   28  GLY28      -0.1955
     50  CA        -9.4430  -18.0870  223.6210 C.3    28  GLY28       0.1869
     51  C        -10.5390  -18.7000  222.7740 C.2    28  GLY28       0.2309
     52  O        -10.5400  -19.8990  222.4940 O.2    28  GLY28      -0.2863
     53  N        -14.6730  -19.7490  225.6400 N.3    32  HIS32      -0.1226
     54  CA       -13.5920  -19.8490  226.6020 C.3    32  HIS32       0.1752
     55  C        -13.2800  -18.5060  227.1440 C.2    32  HIS32       0.2597
     56  O        -13.7960  -17.5340  226.6850 O.2    32  HIS32      -0.2718
     57  CB       -12.3200  -20.3020  225.9390 C.3    32  HIS32       0.0759
     58  CG       -12.2970  -21.7390  225.5680 C.ar   32  HIS32       0.0818
     59  ND1      -13.3380  -22.5900  225.8290 N.ar   32  HIS32      -0.2268
     60  CD2      -11.3520  -22.4740  224.9490 C.ar   32  HIS32       0.1154
     61  CE1      -13.0430  -23.7900  225.3670 C.ar   32  HIS32       0.1986
     62  NE2      -11.8420  -23.7460  224.8310 N.ar   32  HIS32      -0.2212
     63  N        -12.3860  -18.4680  228.1060 N.am   33  SER33      -0.1938
     64  CA       -11.8060  -17.2380  228.5730 C.3    33  SER33       0.2055
     65  C        -10.3360  -17.4110  228.3410 C.2    33  SER33       0.2644
     66  O         -9.9240  -18.4850  228.0050 O.2    33  SER33      -0.2714
     67  CB       -12.0770  -17.0670  230.0430 C.3    33  SER33       0.2130
     68  OG       -11.1300  -16.2020  230.6080 O.3    33  SER33      -0.2179
     69  N         -9.5210  -16.3880  228.5100 N.am   34  SER34      -0.1935
     70  CA        -8.1180  -16.5820  228.2050 C.3    34  SER34       0.2055
     71  C         -7.1150  -15.7170  228.9200 C.2    34  SER34       0.2643
     72  O         -6.0590  -15.4970  228.4230 O.2    34  SER34      -0.2714
     73  CB        -7.8990  -16.4610  226.7130 C.3    34  SER34       0.2130
     74  OG        -8.5520  -15.3480  226.2140 O.3    34  SER34      -0.2179
     75  N         -7.4210  -15.2410  230.0930 N.am   35  HIS35      -0.1973
     76  CA        -6.4300  -14.4630  230.8350 C.3    35  HIS35       0.1656
     77  C         -5.0780  -15.1280  230.8670 C.2    35  HIS35       0.2291
     78  O         -5.0330  -16.3150  230.9860 O.2    35  HIS35      -0.2864
     79  CB        -6.8790  -14.2480  232.2650 C.3    35  HIS35       0.0771
     80  CG        -8.3150  -13.9020  232.4050 C.ar   35  HIS35       0.0820
     81  ND1       -8.7430  -12.6350  232.6990 N.ar   35  HIS35      -0.2267
     82  CD2       -9.4230  -14.6560  232.2940 C.ar   35  HIS35       0.1154
     83  CE1      -10.0560  -12.6180  232.7480 C.ar   35  HIS35       0.1986
     84  NE2      -10.4910  -13.8340  232.5110 N.ar   35  HIS35      -0.2212
     85  N         -0.7900  -17.5120  221.8100 N.3    47  SER47      -0.1202
     86  CA        -0.2360  -17.5850  223.1580 C.3    47  SER47       0.2020
     87  C          1.2220  -18.0350  223.1820 C.2    47  SER47       0.2618
     88  O          1.9840  -17.6470  224.0660 O.2    47  SER47      -0.2717
     89  CB        -1.0790  -18.5290  224.0180 C.3    47  SER47       0.2103
     90  OG        -1.2060  -19.8000  223.4020 O.3    47  SER47      -0.2182
     91  N          1.6040  -18.8620  222.2160 N.am   48  LYS48      -0.1979
     92  CA         2.9760  -19.3480  222.1370 C.3    48  LYS48       0.1596
     93  C          3.4720  -19.3660  220.6980 C.2    48  LYS48       0.2287
     94  O          2.7820  -19.8410  219.7980 O.2    48  LYS48      -0.2864
     95  CB         3.0900  -20.7470  222.7490 C.3    48  LYS48       0.0298
     96  CG         4.5040  -21.3050  222.7550 C.3    48  LYS48       0.0038
     97  CD         4.7860  -22.1080  224.0150 C.3    48  LYS48       0.0206
     98  CE         4.0570  -23.4400  223.9980 C.3    48  LYS48       0.1093
     99  NZ         4.4250  -24.2830  225.1690 N.3    48  LYS48      -0.1314
    100  N          6.7330  -20.7380  218.5700 N.3    50  LEU50      -0.1245
    101  CA         7.9460  -21.5490  218.5730 C.3    50  LEU50       0.1561
    102  C          9.1000  -20.8290  217.8770 C.2    50  LEU50       0.2260
    103  O          8.9500  -20.3610  216.7490 O.2    50  LEU50      -0.2867
    104  CB         7.6900  -22.9010  217.9020 C.3    50  LEU50       0.0270
    105  CG         7.2830  -24.0790  218.7960 C.3    50  LEU50       0.0019
    106  CD1        6.2020  -23.6880  219.7920 C.3    50  LEU50       0.0001
    107  CD2        6.8300  -25.2550  217.9430 C.3    50  LEU50       0.0001
    108  N        -13.4210  -21.7110  220.1340 N.3    79  HIS79      -0.1241
    109  CA       -12.0650  -22.2400  220.0620 C.3    79  HIS79       0.1621
    110  C        -11.9180  -23.2620  218.9400 C.2    79  HIS79       0.2264
    111  O        -10.9500  -23.2280  218.1830 O.2    79  HIS79      -0.2867
    112  CB       -11.6610  -22.8710  221.3940 C.3    79  HIS79       0.0745
    113  CG       -10.2040  -23.2010  221.4880 C.ar   79  HIS79       0.0817
    114  ND1       -9.2540  -22.2750  221.8600 N.ar   79  HIS79      -0.2268
    115  CD2       -9.5340  -24.3540  221.2530 C.ar   79  HIS79       0.1154
    116  CE1       -8.0610  -22.8430  221.8530 C.ar   79  HIS79       0.1986
    117  NE2       -8.2030  -24.1040  221.4880 N.ar   79  HIS79      -0.2212
    118  N         -9.7190  -23.3050  215.4510 N.3    83  VAL83      -0.1245
    119  CA        -8.7320  -24.3480  215.1900 C.3    83  VAL83       0.1561
    120  C         -8.9240  -24.9600  213.8020 C.2    83  VAL83       0.2260
    121  O         -7.9570  -25.1730  213.0680 O.2    83  VAL83      -0.2867
    122  CB        -8.8000  -25.4620  216.2580 C.3    83  VAL83       0.0252
    123  CG1       -8.0040  -26.6840  215.8210 C.3    83  VAL83       0.0019
    124  CG2       -8.3020  -24.9450  217.6000 C.3    83  VAL83       0.0019
    125  N         -7.8800  -22.8040  210.9250 N.3    86  LEU86      -0.1231
    126  CA        -6.4280  -22.7290  210.8190 C.3    86  LEU86       0.1693
    127  C         -5.8180  -24.0050  210.2460 C.2    86  LEU86       0.2591
    128  O         -4.6620  -24.0130  209.8280 O.2    86  LEU86      -0.2718
    129  CB        -5.8160  -22.4380  212.1920 C.3    86  LEU86       0.0284
    130  CG        -5.9150  -20.9960  212.6900 C.3    86  LEU86       0.0019
    131  CD1       -5.6280  -20.9170  214.1790 C.3    86  LEU86       0.0001
    132  CD2       -4.9520  -20.1180  211.9160 C.3    86  LEU86       0.0001
    133  N         -6.5960  -25.0830  210.2310 N.am   87  LEU87      -0.1980
    134  CA        -6.0970  -26.3750  209.7690 C.3    87  LEU87       0.1596
    135  C         -6.6130  -26.7220  208.3750 C.2    87  LEU87       0.2287
    136  O         -6.1420  -27.6710  207.7500 O.2    87  LEU87      -0.2864
    137  CB        -6.4850  -27.4770  210.7560 C.3    87  LEU87       0.0297
    138  CG        -5.7510  -27.4710  212.0980 C.3    87  LEU87       0.0022
    139  CD1       -6.2670  -28.5850  212.9980 C.3    87  LEU87       0.0001
    140  CD2       -4.2480  -27.5910  211.8920 C.3    87  LEU87       0.0001
    141  N         -9.7270  -17.2040  235.9570 N.3   140  GLU140     -0.1245
    142  CA        -9.5240  -18.5750  236.4040 C.3   140  GLU140      0.1567
    143  C         -8.0390  -18.9190  236.4700 C.2   140  GLU140      0.2260
    144  O         -7.6610  -20.0930  236.4260 O.2   140  GLU140     -0.2867
    145  CB       -10.2360  -19.5540  235.4760 C.3   140  GLU140      0.0388
    146  CG       -11.6070  -19.9710  235.9370 C.3   140  GLU140      0.1160
    147  CD       -12.3640  -20.7190  234.8630 C.2   140  GLU140      0.3649
    148  OE1      -11.8500  -20.7970  233.7320 O.co2 140  GLU140     -0.2457
    149  OE2      -13.4560  -21.2500  235.1460 O.co2 140  GLU140     -0.2457
    150  N          1.8800  -26.0900  229.8030 N.3   172  SER172     -0.1217
    151  CA         0.9430  -24.9890  229.9910 C.3   172  SER172      0.1889
    152  C          0.0260  -25.2200  231.1920 C.2   172  SER172      0.2288
    153  O         -0.5570  -26.2930  231.3450 O.2   172  SER172     -0.2866
    154  CB         0.1070  -24.7840  228.7240 C.3   172  SER172      0.2089
    155  OG        -0.6120  -23.5640  228.7680 O.3   172  SER172     -0.2183
    156  N         -2.5050  -23.1610  231.7320 N.3   174  LEU174     -0.1231
    157  CA        -3.7600  -22.5340  231.3370 C.3   174  LEU174      0.1693
    158  C         -4.8980  -23.5440  231.2230 C.2   174  LEU174      0.2593
    159  O         -4.7630  -24.5780  230.5670 O.2   174  LEU174     -0.2718
    160  CB        -3.5800  -21.7970  230.0100 C.3   174  LEU174      0.0284
    161  CG        -2.6050  -20.6200  229.9740 C.3   174  LEU174      0.0019
    162  CD1       -2.4580  -20.0930  228.5540 C.3   174  LEU174      0.0001
    163  CD2       -3.0660  -19.5130  230.9090 C.3   174  LEU174      0.0001
    164  N         -6.0180  -23.2340  231.8680 N.am  175  GLY175     -0.1942
    165  CA        -7.1930  -24.0850  231.8210 C.3   175  GLY175      0.2014
    166  C         -7.1200  -25.2730  232.7610 C.2   175  GLY175      0.2638
    167  O         -7.9610  -26.1670  232.7030 O.2   175  GLY175     -0.2714
    168  N         -6.1110  -25.2830  233.6280 N.am  176  LEU176     -0.1977
    169  CA        -5.9380  -26.3740  234.5830 C.3   176  LEU176      0.1596
    170  C         -6.5690  -26.0440  235.9290 C.2   176  LEU176      0.2287
    171  O         -6.7090  -24.8750  236.2910 O.2   176  LEU176     -0.2864
    172  CB        -4.4530  -26.6930  234.7750 C.3   176  LEU176      0.0297
    173  CG        -3.6970  -27.2950  233.5890 C.3   176  LEU176      0.0022
    174  CD1       -2.2870  -27.6850  234.0050 C.3   176  LEU176      0.0001
    175  CD2       -4.4420  -28.4940  233.0270 C.3   176  LEU176      0.0001
@<TRIPOS>BOND
     1   136   135    2
     2   135   134    1
     3   134   133    1
     4   134   137    1
     5   128   127    2
     6    15    13    1
     7   133   127   am
     8   127   126    1
     9   137   138    1
    10   126   125    1
    11   126   129    1
    12     1     7    1
    13     1     2    1
    14     4     3    2
    15    13    14    1
    16    13    12    1
    17     7     6    1
    18     3     2    1
    19     3     8   am
    20     2     5    1
    21   140   138    1
    22   132   130    1
    23     9     8    1
    24     9    12    1
    25     9    10    1
    26   138   139    1
    27   129   130    1
    28   130   131    1
    29    11    10    2
    30     6     5    1
    31    10    16   am
    32   121   120    2
    33   120   119    1
    34    27    25    1
    35    16    17    1
    36    17    18    1
    37   119   118    1
    38   119   122    1
    39    25    26    1
    40    25    24    1
    41   123   122    1
    42    18    20   am
    43    18    19    2
    44   122   124    1
    45    20    21    1
    46    24    21    1
    47   103   102    2
    48    21    22    1
    49    23    22    2
    50   102   101    1
    51    40    38    1
    52   104   101    1
    53   104   105    1
    54   107   105    1
    55    41    39    1
    56    22    28   am
    57   111   110    2
    58   100   101    1
    59   105   106    1
    60    39    38    1
    61   110   109    1
    62    28    29    1
    63    38    35    1
    64    94    93    2
    65    29    30    1
    66    29    32    1
    67    30    31    2
    68    30    34   am
    69   109   108    1
    70   109   112    1
    71    34    35    1
    72    35    36    1
    73    93    92    1
    74    33    32    1
    75   115   117   ar
    76   115   113   ar
    77   112   113    1
    78   117   116   ar
    79   113   114   ar
    80    36    37    2
    81    36    42   am
    82    85    86    1
    83   116   114   ar
    84    92    91    1
    85    92    95    1
    86    45    44    2
    87    91    87   am
    88    42    43    1
    89    52    51    2
    90    95    96    1
    91    96    97    1
    92    51    50    1
    93    44    43    1
    94    44    49   am
    95    86    87    1
    96    86    89    1
    97    87    88    2
    98    43    46    1
    99    90    89    1
   100    50    49    1
   101    98    97    1
   102    98    99    1
   103    48    46    1
   104    46    47    1
   105    62    60   ar
   106    62    61   ar
   107    60    58   ar
   108    61    59   ar
   109    58    59   ar
   110    58    57    1
   111    53    54    1
   112    57    54    1
   113    74    73    1
   114    54    55    1
   115    56    55    2
   116    73    70    1
   117    55    63   am
   118    66    65    2
   119    63    64    1
   120    70    69    1
   121    70    71    1
   122    65    69   am
   123    65    64    1
   124    72    71    2
   125   162   161    1
   126    64    67    1
   127   154   155    1
   128   154   151    1
   129    71    75   am
   130   150   151    1
   131   161   160    1
   132   161   163    1
   133   151   152    1
   134   160   157    1
   135    67    68    1
   136    75    76    1
   137   159   158    2
   138    76    77    1
   139    76    79    1
   140    77    78    2
   141   152   153    2
   142   158   157    1
   143   158   164   am
   144   157   156    1
   145   165   164    1
   146   165   166    1
   147    79    80    1
   148    82    80   ar
   149    82    84   ar
   150    80    81   ar
   151    84    83   ar
   152    81    83   ar
   153   167   166    2
   154   166   168   am
   155   175   173    1
   156   173   174    1
   157   173   172    1
   158   168   169    1
   159   148   147   ar
   160   169   172    1
   161   169   170    1
   162   147   149   ar
   163   147   146    1
   164   145   146    1
   165   145   142    1
   166   170   171    2
   167   141   142    1
   168   142   143    1
   169   144   143    2
