@<TRIPOS>MOLECULE
tmp/4wyyA00.pdb
 133 125 0 0 0
SMALL
GASTEIGER

@<TRIPOS>ATOM
      1  N         -7.1200   -7.8240   16.6390 N.3    62  SER62      -0.1217
      2  CA        -6.7180   -7.0100   17.8030 C.3    62  SER62       0.1889
      3  C         -6.4480   -5.5420   17.5190 C.2    62  SER62       0.2288
      4  O         -6.2820   -4.7800   18.4720 O.2    62  SER62      -0.2866
      5  CB        -5.5200   -7.6250   18.4880 C.3    62  SER62       0.2089
      6  OG        -5.8510   -8.9380   18.9320 O.3    62  SER62      -0.2183
      7  N         -8.6430   -3.5090   19.5950 N.3    65  LYS65      -0.1245
      8  CA        -8.2900   -3.0660   20.9560 C.3    65  LYS65       0.1561
      9  C         -8.0460   -1.5580   21.0040 C.2    65  LYS65       0.2260
     10  O         -8.2310   -0.9530   22.0690 O.2    65  LYS65      -0.2867
     11  CB        -7.0840   -3.8250   21.4900 C.3    65  LYS65       0.0271
     12  CG        -7.3730   -5.3140   21.7400 C.3    65  LYS65       0.0035
     13  CD        -6.1220   -6.1060   22.1210 C.3    65  LYS65       0.0206
     14  CE        -6.4080   -7.5490   22.5250 C.3    65  LYS65       0.1093
     15  NZ        -6.9580   -8.3770   21.3970 N.3    65  LYS65      -0.1314
     16  N         -4.0200  -15.4690   27.5250 N.3   117  LEU117     -0.1231
     17  CA        -4.1700  -14.9480   26.1730 C.3   117  LEU117      0.1693
     18  C         -5.6260  -14.9830   25.6960 C.2   117  LEU117      0.2591
     19  O         -6.1320  -13.9890   25.1680 O.2   117  LEU117     -0.2718
     20  CB        -3.2900  -15.7650   25.2400 C.3   117  LEU117      0.0284
     21  CG        -3.3880  -15.3950   23.7640 C.3   117  LEU117      0.0019
     22  CD1       -2.9280  -13.9830   23.4800 C.3   117  LEU117      0.0001
     23  CD2       -2.5760  -16.3770   22.9500 C.3   117  LEU117      0.0001
     24  N         -6.2830  -16.1330   25.8800 N.am  118  GLN118     -0.1979
     25  CA        -7.6600  -16.3540   25.4560 C.3   118  GLN118      0.1601
     26  C         -8.4550  -16.8420   26.6390 C.2   118  GLN118      0.2287
     27  O         -7.9270  -17.4920   27.5540 O.2   118  GLN118     -0.2864
     28  CB        -7.6900  -17.4720   24.3750 C.3   118  GLN118      0.0394
     29  CG        -7.0600  -17.0280   23.0580 C.3   118  GLN118      0.0908
     30  CD        -7.0240  -18.1640   22.0790 C.2   118  GLN118      0.2608
     31  OE1       -6.1000  -18.9950   22.0710 O.2   118  GLN118     -0.2717
     32  NE2       -7.9760  -18.1610   21.1860 N.am  118  GLN118     -0.0878
     33  N          0.0340  -10.5510   27.4060 N.3   149  TYR149     -0.1241
     34  CA        -0.9670  -10.1130   26.4270 C.3   149  TYR149      0.1605
     35  C         -2.2320  -10.9670   26.5740 C.2   149  TYR149      0.2264
     36  O         -2.1680  -12.1920   26.6440 O.2   149  TYR149     -0.2867
     37  CB        -0.3840  -10.1760   25.0340 C.3   149  TYR149      0.0534
     38  CG        -1.3160   -9.6950   23.9490 C.ar  149  TYR149     -0.0201
     39  CD1       -1.6230   -8.3430   23.8110 C.ar  149  TYR149     -0.0009
     40  CD2       -1.8420  -10.5860   23.0210 C.ar  149  TYR149     -0.0009
     41  CE1       -2.4570   -7.8990   22.7840 C.ar  149  TYR149      0.0417
     42  CE2       -2.6630  -10.1540   21.9870 C.ar  149  TYR149      0.0417
     43  CZ        -2.9350   -8.8050   21.8590 C.ar  149  TYR149      0.1957
     44  OH        -3.6680   -8.3430   20.7780 O.3   149  TYR149     -0.2866
     45  N         -6.7180  -11.2620   25.8860 N.3   151  ASN151     -0.1240
     46  CA        -8.0690  -10.8700   25.4540 C.3   151  ASN151      0.1653
     47  C         -9.0040  -10.7470   26.6740 C.2   151  ASN151      0.2266
     48  O         -9.6770   -9.7030   26.7910 O.2   151  ASN151     -0.2867
     49  CB        -8.6010  -11.8250   24.4210 C.3   151  ASN151      0.1155
     50  CG        -7.8670  -11.6300   23.1110 C.2   151  ASN151      0.2627
     51  OD1       -8.0500  -10.6300   22.4500 O.2   151  ASN151     -0.2716
     52  ND2       -6.8580  -12.4390   22.8070 N.am  151  ASN151     -0.0877
     53  N        -14.6190  -14.8750   11.3140 N.3   211  VAL211     -0.1245
     54  CA       -14.6060  -14.9780   12.7600 C.3   211  VAL211      0.1561
     55  C        -15.9670  -15.3600   13.3230 C.2   211  VAL211      0.2260
     56  O        -17.0020  -14.8340   12.9110 O.2   211  VAL211     -0.2867
     57  CB       -14.0020  -13.7120   13.4120 C.3   211  VAL211      0.0252
     58  CG1      -14.9020  -12.4760   13.2960 C.3   211  VAL211      0.0019
     59  CG2      -13.6160  -13.9740   14.8770 C.3   211  VAL211      0.0019
     60  N        -11.4110   -8.2890   19.5460 N.3   221  TYR221     -0.1241
     61  CA       -10.9650   -8.5700   18.1870 C.3   221  TYR221      0.1605
     62  C        -12.0850   -8.5580   17.1520 C.2   221  TYR221      0.2264
     63  O        -11.8760   -9.1460   16.0650 O.2   221  TYR221     -0.2867
     64  CB       -10.2450   -9.9600   18.1670 C.3   221  TYR221      0.0534
     65  CG       -11.0740  -11.1080   18.7180 C.ar  221  TYR221     -0.0201
     66  CD1      -11.9950  -11.7760   17.9160 C.ar  221  TYR221     -0.0009
     67  CD2      -10.9570  -11.5080   20.0480 C.ar  221  TYR221     -0.0009
     68  CE1      -12.7580  -12.8300   18.4120 C.ar  221  TYR221      0.0417
     69  CE2      -11.7240  -12.5530   20.5570 C.ar  221  TYR221      0.0417
     70  CZ       -12.6280  -13.2000   19.7350 C.ar  221  TYR221      0.1957
     71  OH       -13.4140  -14.2350   20.2060 O.3   221  TYR221     -0.2866
     72  N          3.4380  -11.8500   22.2420 N.3   291  ALA291     -0.1231
     73  CA         2.0370  -12.2130   22.3700 C.3   291  ALA291      0.1694
     74  C          1.8280  -13.3620   23.3450 C.2   291  ALA291      0.2591
     75  O          0.7500  -13.4270   23.9440 O.2   291  ALA291     -0.2718
     76  CB         1.4730  -12.6220   20.9990 C.3   291  ALA291      0.0304
     77  N          2.8320  -14.2370   23.5280 N.am  292  LEU292     -0.1980
     78  CA         2.6170  -15.4800   24.2680 C.3   292  LEU292      0.1596
     79  C          3.2870  -15.6000   25.6190 C.2   292  LEU292      0.2287
     80  O          2.9120  -16.5130   26.3760 O.2   292  LEU292     -0.2864
     81  CB         3.0330  -16.6800   23.3970 C.3   292  LEU292      0.0297
     82  CG         2.3960  -16.8110   21.9920 C.3   292  LEU292      0.0022
     83  CD1        2.7080  -18.1790   21.3960 C.3   292  LEU292      0.0001
     84  CD2        0.8700  -16.6190   21.9960 C.3   292  LEU292      0.0001
     85  N         -0.2460   -1.2780   15.8960 N.3   314  LYS314     -0.1231
     86  CA        -0.9230   -2.4390   16.4470 C.3   314  LYS314      0.1693
     87  C         -1.0880   -3.4700   15.3450 C.2   314  LYS314      0.2593
     88  O         -1.5420   -3.1480   14.2320 O.2   314  LYS314     -0.2718
     89  CB        -2.3000   -2.0860   17.0610 C.3   314  LYS314      0.0285
     90  CG        -2.9330   -3.2540   17.8470 C.3   314  LYS314      0.0035
     91  CD        -2.1650   -3.5820   19.1320 C.3   314  LYS314      0.0206
     92  CE        -2.6370   -4.8790   19.7830 C.3   314  LYS314      0.1093
     93  NZ        -2.0340   -6.0630   19.0830 N.3   314  LYS314     -0.1314
     94  N         -0.7230   -4.7280   15.6340 N.am  315  THR315     -0.1939
     95  CA        -1.0450   -5.8750   14.7880 C.3   315  THR315      0.2028
     96  C         -2.4270   -6.4150   15.2010 C.2   315  THR315      0.2643
     97  O         -2.8520   -6.3260   16.3620 O.2   315  THR315     -0.2714
     98  CB        -0.0310   -7.0250   14.9660 C.3   315  THR315      0.1808
     99  OG1        0.0420   -7.3870   16.3580 O.3   315  THR315     -0.2208
    100  CG2        1.3630   -6.6580   14.4710 C.3   315  THR315      0.0379
    101  N         -3.1010   -7.0360   14.2470 N.am  316  GLY316     -0.1939
    102  CA        -4.3450   -7.7090   14.5880 C.3   316  GLY316      0.2014
    103  C         -4.5490   -8.8940   13.6860 C.2   316  GLY316      0.2640
    104  O         -4.3060   -8.7850   12.4740 O.2   316  GLY316     -0.2714
    105  N         -5.0170  -10.0030   14.2360 N.am  317  SER317     -0.1935
    106  CA        -5.2520  -11.2070   13.4530 C.3   317  SER317      0.2055
    107  C         -6.4740  -11.9210   13.9170 C.2   317  SER317      0.2644
    108  O         -6.8240  -11.8900   15.1110 O.2   317  SER317     -0.2714
    109  CB        -4.0900  -12.1720   13.6530 C.3   317  SER317      0.2130
    110  OG        -2.8420  -11.5620   13.3750 O.3   317  SER317     -0.2179
    111  N         -7.1000  -12.6360   12.9840 N.am  318  THR318     -0.1936
    112  CA        -8.1340  -13.6190   13.3010 C.3   318  THR318      0.2028
    113  C         -7.6920  -14.8920   12.6040 C.2   318  THR318      0.2642
    114  O         -6.6330  -14.9170   11.9800 O.2   318  THR318     -0.2714
    115  CB        -9.5110  -13.1850   12.8710 C.3   318  THR318      0.1808
    116  OG1       -9.4420  -12.9470   11.4660 O.3   318  THR318     -0.2208
    117  CG2       -9.9680  -11.9310   13.5870 C.3   318  THR318      0.0379
    118  N         -8.4950  -15.9570   12.6360 N.am  319  ASN319     -0.1971
    119  CA        -8.0290  -17.1680   11.9660 C.3   319  ASN319      0.1688
    120  C         -7.7820  -16.9700   10.4690 C.2   319  ASN319      0.2292
    121  O         -6.8910  -17.5980    9.9170 O.2   319  ASN319     -0.2864
    122  CB        -8.9830  -18.3530   12.1680 C.3   319  ASN319      0.1181
    123  CG        -9.0430  -18.8170   13.5960 C.2   319  ASN319      0.2629
    124  OD1       -8.0280  -18.8870   14.2860 O.2   319  ASN319     -0.2716
    125  ND2      -10.2270  -19.1560   14.0530 N.am  319  ASN319     -0.0877
    126  N          3.3690  -11.7420   11.5680 N.3   345  ASN345     -0.1240
    127  CA         3.5010  -10.3180   11.8860 C.3   345  ASN345      0.1653
    128  C          4.7920   -9.7530   11.3490 C.2   345  ASN345      0.2266
    129  O          4.8310   -8.5920   10.9150 O.2   345  ASN345     -0.2867
    130  CB         3.4650  -10.1160   13.4110 C.3   345  ASN345      0.1155
    131  CG         2.1070  -10.2630   14.0110 C.2   345  ASN345      0.2627
    132  OD1        1.1260  -10.4280   13.2890 O.2   345  ASN345     -0.2716
    133  ND2        2.0320  -10.1960   15.3410 N.am  345  ASN345     -0.0877
@<TRIPOS>BOND
     1   121   120    2
     2   120   119    1
     3   129   128    2
     4    53    54    1
     5   128   127    1
     6   116   115    1
     7   126   127    1
     8   127   130    1
     9   119   122    1
    10   119   118    1
    11   114   113    2
    12   122   123    1
    13   104   103    2
    14   113   118   am
    15   113   112    1
    16    54    55    1
    17    54    57    1
    18   115   112    1
    19   115   117    1
    20    56    55    2
    21   111   112    1
    22   111   107   am
    23   132   131    2
    24    58    57    1
    25   110   109    1
    26   130   131    1
    27    57    59    1
    28   106   109    1
    29   106   107    1
    30   106   105    1
    31   123   125   am
    32   123   124    2
    33   103   105   am
    34   103   102    1
    35   107   108    2
    36   131   133   am
    37    88    87    2
    38   101   102    1
    39   101    96   am
    40   100    98    1
    41    95    98    1
    42    95    96    1
    43    95    94    1
    44    98    99    1
    45    96    97    2
    46    87    94   am
    47    87    86    1
    48    85    86    1
    49    63    62    2
    50    86    89    1
    51     1     2    1
    52    89    90    1
    53    62    61    1
    54     3     2    1
    55     3     4    2
    56     2     5    1
    57    90    91    1
    58    66    68   ar
    59    66    65   ar
    60    64    61    1
    61    64    65    1
    62    61    60    1
    63    68    70   ar
    64     5     6    1
    65    65    67   ar
    66    93    92    1
    67    91    92    1
    68     7     8    1
    69    70    71    1
    70    70    69   ar
    71    67    69   ar
    72    44    43    1
    73     8     9    1
    74     8    11    1
    75    76    73    1
    76     9    10    2
    77    32    30   am
    78    83    82    1
    79    15    14    1
    80    11    12    1
    81    12    13    1
    82    43    42   ar
    83    43    41   ar
    84    42    40   ar
    85    82    84    1
    86    82    81    1
    87    31    30    2
    88    30    29    1
    89    13    14    1
    90    72    73    1
    91    73    74    1
    92    51    50    2
    93    41    39   ar
    94    52    50   am
    95    23    21    1
    96    40    38   ar
    97    29    28    1
    98    50    49    1
    99    74    77   am
   100    74    75    2
   101    81    78    1
   102    22    21    1
   103    77    78    1
   104    21    20    1
   105    39    38   ar
   106    38    37    1
   107    78    79    1
   108    28    25    1
   109    49    46    1
   110    37    34    1
   111    19    18    2
   112    20    17    1
   113    46    45    1
   114    46    47    1
   115    25    24    1
   116    25    26    1
   117    79    80    2
   118    18    24   am
   119    18    17    1
   120    17    16    1
   121    34    35    1
   122    34    33    1
   123    35    36    2
   124    26    27    2
   125    47    48    2
