@<TRIPOS>MOLECULE
tmp/4wyzA00.pdb
 123 121 0 0 0
SMALL
GASTEIGER

@<TRIPOS>ATOM
      1  N         13.9910  -14.9350  -33.7430 N.3     8  LYS8       -0.1245
      2  CA        12.6820  -15.0500  -33.1010 C.3     8  LYS8        0.1561
      3  C         12.6410  -16.2460  -32.1650 C.2     8  LYS8        0.2260
      4  O         12.0790  -16.1570  -31.0770 O.2     8  LYS8       -0.2867
      5  CB        11.5730  -15.1380  -34.1640 C.3     8  LYS8        0.0271
      6  CG        10.1670  -15.3950  -33.6140 C.3     8  LYS8        0.0035
      7  CD         9.1000  -15.2650  -34.7080 C.3     8  LYS8        0.0206
      8  CE         7.6900  -15.4620  -34.1600 C.3     8  LYS8        0.1093
      9  NZ         6.6090  -15.1490  -35.1530 N.3     8  LYS8       -0.1314
     10  N         11.7590  -15.9240  -28.2500 N.3    12  GLN12      -0.1231
     11  CA        10.6260  -16.6410  -27.6840 C.3    12  GLN12       0.1698
     12  C         10.9950  -17.7720  -26.7310 C.2    12  GLN12       0.2592
     13  O         10.1650  -18.1600  -25.9020 O.2    12  GLN12      -0.2718
     14  CB         9.7250  -17.2070  -28.7990 C.3    12  GLN12       0.0381
     15  CG         9.1680  -16.1670  -29.7530 C.3    12  GLN12       0.0905
     16  CD         8.1550  -16.7240  -30.7250 C.2    12  GLN12       0.2608
     17  OE1        8.2840  -17.8380  -31.2330 O.2    12  GLN12      -0.2717
     18  NE2        7.1460  -15.9330  -31.0060 N.am   12  GLN12      -0.0878
     19  N         12.1960  -18.3460  -26.8790 N.am   13  HIS13      -0.1976
     20  CA        12.4880  -19.6000  -26.1870 C.3    13  HIS13       0.1656
     21  C         13.8360  -19.7460  -25.4770 C.2    13  HIS13       0.2291
     22  O         14.0490  -20.7650  -24.8370 O.2    13  HIS13      -0.2864
     23  CB        12.3280  -20.7690  -27.1560 C.3    13  HIS13       0.0771
     24  CG        10.9600  -20.8740  -27.7350 C.ar   13  HIS13       0.0820
     25  ND1        9.8580  -21.2060  -26.9810 N.ar   13  HIS13      -0.2267
     26  CD2       10.5090  -20.7020  -29.0040 C.ar   13  HIS13       0.1154
     27  CE1        8.7860  -21.2270  -27.7530 C.ar   13  HIS13       0.1986
     28  NE2        9.1580  -20.9260  -28.9890 N.ar   13  HIS13      -0.2212
     29  N         -0.7190  -16.3140  -24.9110 N.3    42  LYS42      -0.1231
     30  CA        -0.2150  -17.5760  -25.4120 C.3    42  LYS42       0.1678
     31  C         -0.4170  -18.6070  -24.3000 C.2    42  LYS42       0.2434
     32  O          0.0340  -18.3870  -23.1810 O.2    42  LYS42      -0.2733
     33  CB         1.2640  -17.4070  -25.7560 C.3    42  LYS42       0.0284
     34  CG         1.9240  -18.6090  -26.3680 C.3    42  LYS42       0.0035
     35  CD         3.2520  -18.2320  -26.9950 C.3    42  LYS42       0.0206
     36  CE         3.8130  -19.3840  -27.8200 C.3    42  LYS42       0.1093
     37  NZ         5.1110  -19.0480  -28.4530 N.3    42  LYS42      -0.1314
     38  N         -1.1000  -19.7250  -24.5850 N.am   43  PRO43      -0.2718
     39  CA        -1.4050  -20.6800  -23.5060 C.3    43  PRO43       0.1535
     40  C         -0.1850  -21.3620  -22.8720 C.2    43  PRO43       0.2598
     41  O         -0.1800  -21.5930  -21.6630 O.2    43  PRO43      -0.2715
     42  CB        -2.3020  -21.7190  -24.1920 C.3    43  PRO43       0.0310
     43  CG        -2.0800  -21.5400  -25.6430 C.3    43  PRO43       0.0237
     44  CD        -1.7750  -20.0920  -25.8420 C.3    43  PRO43       0.0939
     45  N          0.8180  -21.7020  -23.6710 N.am   44  VAL44      -0.1964
     46  CA         2.0320  -22.3010  -23.1350 C.3    44  VAL44       0.1727
     47  C          3.2450  -21.7950  -23.8960 C.2    44  VAL44       0.2616
     48  O          3.2060  -21.6210  -25.1140 O.2    44  VAL44      -0.2715
     49  CB         2.0340  -23.8550  -23.1880 C.3    44  VAL44       0.0290
     50  CG1        1.8370  -24.3390  -24.5800 C.3    44  VAL44       0.0023
     51  CG2        3.3670  -24.4120  -22.6260 C.3    44  VAL44       0.0023
     52  N          4.3290  -21.5830  -23.1730 N.am   45  ASN45      -0.1958
     53  CA         5.5890  -21.2230  -23.7960 C.3    45  ASN45       0.1819
     54  C          6.7470  -21.7140  -22.9480 C.2    45  ASN45       0.2621
     55  O          6.7230  -21.5840  -21.7380 O.2    45  ASN45      -0.2715
     56  CB         5.6800  -19.7120  -23.9640 C.3    45  ASN45       0.1195
     57  CG         6.7960  -19.3000  -24.8830 C.2    45  ASN45       0.2630
     58  OD1        6.7110  -19.4740  -26.0990 O.2    45  ASN45      -0.2716
     59  ND2        7.8570  -18.7580  -24.3140 N.am   45  ASN45      -0.0877
     60  N          7.7450  -22.2960  -23.5970 N.am   46  THR46      -0.1951
     61  CA         8.9090  -22.8320  -22.9180 C.3    46  THR46       0.1897
     62  C         10.1390  -21.9600  -23.1370 C.2    46  THR46       0.2313
     63  O         10.4190  -21.5450  -24.2730 O.2    46  THR46      -0.2863
     64  CB         9.2070  -24.2270  -23.4530 C.3    46  THR46       0.1794
     65  OG1        8.0170  -25.0120  -23.3650 O.3    46  THR46      -0.2208
     66  CG2       10.3350  -24.8840  -22.6830 C.3    46  THR46       0.0378
     67  N          5.4850  -32.8300  -34.3300 N.3    67  LYS67      -0.1245
     68  CA         4.1340  -33.3060  -34.0700 C.3    67  LYS67       0.1561
     69  C          3.1990  -33.1160  -35.2800 C.2    67  LYS67       0.2260
     70  O          2.2380  -33.8720  -35.4540 O.2    67  LYS67      -0.2867
     71  CB         3.5530  -32.6660  -32.8110 C.3    67  LYS67       0.0271
     72  CG         3.4120  -31.1380  -32.8260 C.3    67  LYS67       0.0035
     73  CD         2.6590  -30.6560  -31.5750 C.3    67  LYS67       0.0206
     74  CE         2.4510  -29.1400  -31.5930 C.3    67  LYS67       0.1093
     75  NZ         1.6840  -28.6980  -32.7790 N.3    67  LYS67      -0.1314
     76  N          8.5240  -23.9350  -18.0820 N.3    84  ASP84      -0.1239
     77  CA         7.2650  -23.9110  -18.8180 C.3    84  ASP84       0.1674
     78  C          6.3560  -22.8470  -18.2230 C.2    84  ASP84       0.2266
     79  O          6.0680  -22.8630  -17.0310 O.2    84  ASP84      -0.2867
     80  CB         6.5680  -25.2710  -18.7750 C.3    84  ASP84       0.1410
     81  CG         7.1770  -26.2730  -19.7420 C.2    84  ASP84       0.3668
     82  OD1        7.4330  -25.9190  -20.9150 O.co2  84  ASP84      -0.2456
     83  OD2        7.4020  -27.4270  -19.3290 O.co2  84  ASP84      -0.2456
     84  N         11.9920  -23.1820  -34.3740 N.3   120  HIS120     -0.1226
     85  CA        10.6890  -23.6010  -33.8720 C.3   120  HIS120      0.1752
     86  C         10.8930  -24.4620  -32.6410 C.2   120  HIS120      0.2596
     87  O         11.7470  -25.3410  -32.6590 O.2   120  HIS120     -0.2718
     88  CB         9.9560  -24.3830  -34.9710 C.3   120  HIS120      0.0759
     89  CG         8.8060  -25.2020  -34.4860 C.ar  120  HIS120      0.0818
     90  ND1        7.5850  -24.6500  -34.1470 N.ar  120  HIS120     -0.2268
     91  CD2        8.6740  -26.5370  -34.3070 C.ar  120  HIS120      0.1154
     92  CE1        6.7600  -25.6100  -33.7720 C.ar  120  HIS120      0.1986
     93  NE2        7.3950  -26.7670  -33.8660 N.ar  120  HIS120     -0.2212
     94  N         10.1370  -24.1900  -31.5730 N.am  121  PHE121     -0.1962
     95  CA        10.1230  -25.0790  -30.4010 C.3   121  PHE121      0.1771
     96  C          8.9250  -26.0120  -30.5020 C.2   121  PHE121      0.2620
     97  O          7.7860  -25.5520  -30.4960 O.2   121  PHE121     -0.2715
     98  CB        10.0850  -24.2940  -29.0820 C.3   121  PHE121      0.0574
     99  CG        10.3700  -25.1450  -27.8680 C.ar  121  PHE121     -0.0200
    100  CD1        9.3620  -25.9050  -27.2860 C.ar  121  PHE121     -0.0042
    101  CD2       11.6440  -25.2090  -27.3270 C.ar  121  PHE121     -0.0042
    102  CE1        9.6230  -26.6970  -26.1940 C.ar  121  PHE121     -0.0003
    103  CE2       11.9130  -26.0100  -26.2220 C.ar  121  PHE121     -0.0003
    104  CZ        10.9140  -26.7620  -25.6650 C.ar  121  PHE121     -0.0000
    105  N          9.1760  -27.3100  -30.6230 N.am  122  ASP122     -0.1957
    106  CA         8.0770  -28.2650  -30.8430 C.3   122  ASP122      0.1840
    107  C          7.5290  -28.8780  -29.5590 C.2   122  ASP122      0.2622
    108  O          6.3090  -28.9590  -29.3750 O.2   122  ASP122     -0.2715
    109  CB         8.5270  -29.3920  -31.7770 C.3   122  ASP122      0.1450
    110  CG         7.3640  -30.0190  -32.5330 C.2   122  ASP122      0.3671
    111  OD1        6.6560  -29.2700  -33.2330 O.co2 122  ASP122     -0.2456
    112  OD2        7.1560  -31.2490  -32.4300 O.co2 122  ASP122     -0.2456
    113  N          8.4200  -29.3180  -28.6800 N.am  123  ALA123     -0.1963
    114  CA         8.0070  -30.0630  -27.5020 C.3   123  ALA123      0.1728
    115  C          9.1620  -30.2380  -26.5220 C.2   123  ALA123      0.2616
    116  O         10.3160  -30.0490  -26.8710 O.2   123  ALA123     -0.2715
    117  CB         7.4750  -31.4350  -27.9220 C.3   123  ALA123      0.0334
    118  N          8.8400  -30.6010  -25.2890 N.am  124  SER124     -0.1950
    119  CA         9.8220  -31.1740  -24.3810 C.3   124  SER124      0.1924
    120  C          9.3490  -32.5830  -24.0450 C.2   124  SER124      0.2314
    121  O          8.1510  -32.8160  -23.9550 O.2   124  SER124     -0.2863
    122  CB         9.9500  -30.3260  -23.1230 C.3   124  SER124      0.2116
    123  OG         8.7770  -30.4090  -22.3470 O.3   124  SER124     -0.2180
@<TRIPOS>BOND
     1    70    69    2
     2    69    68    1
     3     9     8    1
     4    88    89    1
     5    88    85    1
     6     7     8    1
     7     7     6    1
     8    89    91   ar
     9    89    90   ar
    10    84    85    1
    11    67    68    1
    12    91    93   ar
    13     5     6    1
    14     5     2    1
    15    90    92   ar
    16    68    71    1
    17    85    86    1
    18    93    92   ar
    19     1     2    1
    20   111   110   ar
    21     2     3    1
    22    72    71    1
    23    72    73    1
    24    75    74    1
    25    87    86    2
    26    86    94   am
    27   110   112   ar
    28   110   109    1
    29     3     4    2
    30   109   106    1
    31    74    73    1
    32    94    95    1
    33    17    16    2
    34    18    16   am
    35   106   105    1
    36   106   107    1
    37    16    15    1
    38   105    96   am
    39    96    97    2
    40    96    95    1
    41    95    98    1
    42    15    14    1
    43   107   108    2
    44   107   113   am
    45    98    99    1
    46    26    28   ar
    47    26    24   ar
    48    28    27   ar
    49    14    11    1
    50   113   114    1
    51    37    36    1
    52    10    11    1
    53   117   114    1
    54    99   101   ar
    55    99   100   ar
    56    36    35    1
    57    27    25   ar
    58    24    23    1
    59    24    25   ar
    60    11    12    1
    61   114   115    1
    62   101   103   ar
    63   100   102   ar
    64    23    20    1
    65    35    34    1
    66    19    12   am
    67    19    20    1
    68   116   115    2
    69    12    13    2
    70   115   118   am
    71    34    33    1
    72   103   104   ar
    73   102   104   ar
    74    20    21    1
    75    58    57    2
    76    44    43    1
    77    44    38    1
    78    33    30    1
    79    43    42    1
    80    21    22    2
    81    30    29    1
    82    30    31    1
    83   118   119    1
    84    48    47    2
    85    57    59   am
    86    57    56    1
    87    38    31   am
    88    38    39    1
    89    50    49    1
    90   119   120    1
    91   119   122    1
    92    31    32    2
    93    63    62    2
    94    42    39    1
    95   120   121    2
    96    56    53    1
    97    47    52   am
    98    47    46    1
    99    53    52    1
   100    53    54    1
   101    45    46    1
   102    45    40   am
   103    60    54   am
   104    60    61    1
   105    39    40    1
   106    64    65    1
   107    64    61    1
   108    64    66    1
   109    49    46    1
   110    49    51    1
   111    62    61    1
   112   122   123    1
   113    54    55    2
   114    40    41    2
   115    82    81   ar
   116    81    83   ar
   117    81    80    1
   118    77    80    1
   119    77    78    1
   120    77    76    1
   121    78    79    2
