@<TRIPOS>MOLECULE
tmp/4wz4A00.pdb
 139 131 0 0 0
SMALL
GASTEIGER

@<TRIPOS>ATOM
      1  N         -7.2550   -8.0860   16.7240 N.3    62  SER62      -0.1217
      2  CA        -6.8450   -7.2810   17.8740 C.3    62  SER62       0.1889
      3  C         -6.5800   -5.7990   17.6040 C.2    62  SER62       0.2288
      4  O         -6.4060   -5.0700   18.5580 O.2    62  SER62      -0.2866
      5  CB        -5.6400   -7.8910   18.5460 C.3    62  SER62       0.2089
      6  OG        -5.9560   -9.1990   19.0250 O.3    62  SER62      -0.2183
      7  N         -4.0500  -15.7680   27.4960 N.3   117  LEU117     -0.1231
      8  CA        -4.1900  -15.2390   26.1410 C.3   117  LEU117      0.1693
      9  C         -5.6550  -15.2520   25.6860 C.2   117  LEU117      0.2591
     10  O         -6.1660  -14.2680   25.1590 O.2   117  LEU117     -0.2718
     11  CB        -3.3240  -16.0760   25.1960 C.3   117  LEU117      0.0284
     12  CG        -3.4090  -15.7490   23.7330 C.3   117  LEU117      0.0019
     13  CD1       -2.9830  -14.3060   23.4420 C.3   117  LEU117      0.0001
     14  CD2       -2.6070  -16.7680   22.9410 C.3   117  LEU117      0.0001
     15  N         -6.3130  -16.4010   25.8540 N.am  118  GLN118     -0.1979
     16  CA        -7.7130  -16.6040   25.4830 C.3   118  GLN118      0.1601
     17  C         -8.4970  -17.1090   26.6670 C.2   118  GLN118      0.2287
     18  O         -7.9370  -17.7490   27.5550 O.2   118  GLN118     -0.2864
     19  CB        -7.8230  -17.6720   24.3610 C.3   118  GLN118      0.0394
     20  CG        -7.1090  -17.2870   23.0790 C.3   118  GLN118      0.0908
     21  CD        -7.1960  -18.3950   22.0610 C.2   118  GLN118      0.2608
     22  OE1       -6.4450  -19.3810   22.0950 O.2   118  GLN118     -0.2717
     23  NE2       -8.1240  -18.2410   21.1240 N.am  118  GLN118     -0.0878
     24  N         -0.0100  -10.8220   27.3780 N.3   149  TYR149     -0.1241
     25  CA        -1.0280  -10.3950   26.3970 C.3   149  TYR149      0.1605
     26  C         -2.2830  -11.2660   26.5350 C.2   149  TYR149      0.2264
     27  O         -2.2100  -12.4930   26.5580 O.2   149  TYR149     -0.2867
     28  CB        -0.4290  -10.4360   25.0150 C.3   149  TYR149      0.0534
     29  CG        -1.3450   -9.9390   23.9250 C.ar  149  TYR149     -0.0201
     30  CD1       -1.5660   -8.5720   23.7360 C.ar  149  TYR149     -0.0009
     31  CD2       -1.9370  -10.8270   23.0350 C.ar  149  TYR149     -0.0009
     32  CE1       -2.3610   -8.1090   22.6830 C.ar  149  TYR149      0.0417
     33  CE2       -2.7120  -10.3720   21.9670 C.ar  149  TYR149      0.0417
     34  CZ        -2.9130   -9.0150   21.7990 C.ar  149  TYR149      0.1957
     35  OH        -3.6440   -8.5430   20.7330 O.3   149  TYR149     -0.2866
     36  N         -6.7610  -11.5320   25.9080 N.3   151  ASN151     -0.1240
     37  CA        -8.1220  -11.1910   25.5090 C.3   151  ASN151      0.1653
     38  C         -9.0510  -11.0700   26.7310 C.2   151  ASN151      0.2266
     39  O         -9.7730  -10.0650   26.8250 O.2   151  ASN151     -0.2867
     40  CB        -8.6360  -12.1450   24.4390 C.3   151  ASN151      0.1155
     41  CG        -7.8960  -11.8840   23.1560 C.2   151  ASN151      0.2627
     42  OD1       -8.1240  -10.8940   22.4980 O.2   151  ASN151     -0.2716
     43  ND2       -6.9130  -12.7080   22.8380 N.am  151  ASN151     -0.0877
     44  N        -14.6920  -15.0180   11.3480 N.3   211  VAL211     -0.1231
     45  CA       -14.6810  -15.1700   12.8040 C.3   211  VAL211      0.1692
     46  C        -16.0610  -15.5610   13.3670 C.2   211  VAL211      0.2592
     47  O        -17.0830  -15.0100   12.9860 O.2   211  VAL211     -0.2718
     48  CB       -14.0560  -13.9300   13.4850 C.3   211  VAL211      0.0266
     49  CG1      -14.9650  -12.7110   13.4020 C.3   211  VAL211      0.0020
     50  CG2      -13.6630  -14.2410   14.9230 C.3   211  VAL211      0.0020
     51  N        -16.0470  -16.5410   14.2550 N.am  212  GLY212     -0.1957
     52  CA       -17.2380  -17.0370   14.9270 C.3   212  GLY212      0.1869
     53  C        -17.3950  -16.4100   16.3040 C.2   212  GLY212      0.2309
     54  O        -16.4800  -15.7270   16.8060 O.2   212  GLY212     -0.2863
     55  N        -11.5160   -8.5640   19.6580 N.3   221  TYR221     -0.1241
     56  CA       -11.0660   -8.8260   18.2920 C.3   221  TYR221      0.1605
     57  C        -12.1790   -8.8000   17.2600 C.2   221  TYR221      0.2264
     58  O        -11.9790   -9.3600   16.1730 O.2   221  TYR221     -0.2867
     59  CB       -10.3090  -10.1960   18.2740 C.3   221  TYR221      0.0534
     60  CG       -11.1250  -11.3570   18.8080 C.ar  221  TYR221     -0.0201
     61  CD1      -12.0180  -12.0360   17.9930 C.ar  221  TYR221     -0.0009
     62  CD2      -11.0060  -11.7740   20.1380 C.ar  221  TYR221     -0.0009
     63  CE1      -12.7790  -13.0920   18.4760 C.ar  221  TYR221      0.0417
     64  CE2      -11.7650  -12.8340   20.6320 C.ar  221  TYR221      0.0417
     65  CZ       -12.6560  -13.4870   19.7960 C.ar  221  TYR221      0.1957
     66  OH       -13.4370  -14.5270   20.2630 O.3   221  TYR221     -0.2866
     67  N          3.4130  -12.1530   22.2120 N.3   291  ALA291     -0.1231
     68  CA         2.0070  -12.4780   22.3110 C.3   291  ALA291      0.1694
     69  C          1.7940  -13.6280   23.2780 C.2   291  ALA291      0.2591
     70  O          0.7080  -13.7100   23.8520 O.2   291  ALA291     -0.2718
     71  CB         1.4520  -12.8530   20.9430 C.3   291  ALA291      0.0304
     72  N          2.8060  -14.5080   23.4820 N.am  292  LEU292     -0.1980
     73  CA         2.5830  -15.7360   24.2250 C.3   292  LEU292      0.1596
     74  C          3.2380  -15.8920   25.6070 C.2   292  LEU292      0.2287
     75  O          2.7970  -16.7640   26.3620 O.2   292  LEU292     -0.2864
     76  CB         3.0120  -16.9200   23.3410 C.3   292  LEU292      0.0297
     77  CG         2.3700  -17.0460   21.9230 C.3   292  LEU292      0.0022
     78  CD1        2.6120  -18.4240   21.3590 C.3   292  LEU292      0.0001
     79  CD2        0.8390  -16.8100   21.9250 C.3   292  LEU292      0.0001
     80  N         -0.3630   -1.4680   15.9870 N.3   314  LYS314     -0.1231
     81  CA        -1.0590   -2.6340   16.5270 C.3   314  LYS314      0.1693
     82  C         -1.2240   -3.6580   15.4190 C.2   314  LYS314      0.2593
     83  O         -1.6850   -3.3380   14.3080 O.2   314  LYS314     -0.2718
     84  CB        -2.4510   -2.2790   17.1300 C.3   314  LYS314      0.0285
     85  CG        -3.0910   -3.4440   17.8880 C.3   314  LYS314      0.0035
     86  CD        -2.3850   -3.7720   19.2150 C.3   314  LYS314      0.0206
     87  CE        -2.9520   -5.0290   19.8810 C.3   314  LYS314      0.1093
     88  NZ        -2.4790   -6.2820   19.2160 N.3   314  LYS314     -0.1314
     89  N         -0.8680   -4.9010   15.7440 N.am  315  THR315     -0.1939
     90  CA        -1.1880   -6.0470   14.9080 C.3   315  THR315      0.2028
     91  C         -2.5630   -6.6050   15.3010 C.2   315  THR315      0.2643
     92  O         -3.0010   -6.5190   16.4660 O.2   315  THR315     -0.2714
     93  CB        -0.1490   -7.2050   15.1080 C.3   315  THR315      0.1808
     94  OG1       -0.0940   -7.5610   16.5020 O.3   315  THR315     -0.2208
     95  CG2        1.2520   -6.8150   14.6340 C.3   315  THR315      0.0379
     96  N         -3.2450   -7.2150   14.3500 N.am  316  GLY316     -0.1939
     97  CA        -4.4770   -7.9290   14.6620 C.3   316  GLY316      0.2014
     98  C         -4.6900   -9.0760   13.7100 C.2   316  GLY316      0.2640
     99  O         -4.4240   -8.9770   12.5130 O.2   316  GLY316     -0.2714
    100  N         -5.1450  -10.1890   14.2650 N.am  317  SER317     -0.1935
    101  CA        -5.3590  -11.4020   13.4860 C.3   317  SER317      0.2055
    102  C         -6.5950  -12.1240   13.9300 C.2   317  SER317      0.2644
    103  O         -6.9580  -12.1100   15.1200 O.2   317  SER317     -0.2714
    104  CB        -4.1980  -12.3880   13.6770 C.3   317  SER317      0.2130
    105  OG        -2.9540  -11.7550   13.4460 O.3   317  SER317     -0.2179
    106  N         -7.1850  -12.8530   13.0030 N.am  318  THR318     -0.1936
    107  CA        -8.2100  -13.8600   13.2790 C.3   318  THR318      0.2028
    108  C         -7.7670  -15.1050   12.5170 C.2   318  THR318      0.2642
    109  O         -6.7350  -15.0750   11.8250 O.2   318  THR318     -0.2714
    110  CB        -9.5770  -13.3910   12.8500 C.3   318  THR318      0.1808
    111  OG1       -9.5290  -13.1190   11.4430 O.3   318  THR318     -0.2208
    112  CG2      -10.0450  -12.1830   13.6110 C.3   318  THR318      0.0379
    113  N         -8.5540  -16.2080   12.5820 N.am  319  ASN319     -0.1971
    114  CA        -8.1030  -17.3980   11.8540 C.3   319  ASN319      0.1688
    115  C         -7.8580  -17.1400   10.3660 C.2   319  ASN319      0.2292
    116  O         -6.9640  -17.7570    9.7840 O.2   319  ASN319     -0.2864
    117  CB        -9.0620  -18.5860   12.0280 C.3   319  ASN319      0.1181
    118  CG        -9.2620  -19.0280   13.4530 C.2   319  ASN319      0.2629
    119  OD1      -10.3760  -19.3830   13.8700 O.2   319  ASN319     -0.2716
    120  ND2       -8.1910  -19.0340   14.2280 N.am  319  ASN319     -0.0877
    121  N          3.2260  -11.8530   11.5640 N.3   345  ASN345     -0.1240
    122  CA         3.3950  -10.4280   11.9110 C.3   345  ASN345      0.1653
    123  C          4.6910   -9.8710   11.3670 C.2   345  ASN345      0.2266
    124  O          4.7330   -8.7240   10.9480 O.2   345  ASN345     -0.2867
    125  CB         3.3860  -10.2300   13.4220 C.3   345  ASN345      0.1155
    126  CG         2.0480  -10.3900   14.0630 C.2   345  ASN345      0.2627
    127  OD1        1.0420  -10.5340   13.3960 O.2   345  ASN345     -0.2716
    128  ND2        2.0350  -10.3240   15.3960 N.am  345  ASN345     -0.0877
    129  N          4.0980   -8.5880    7.9570 N.3   348  ARG348     -0.1245
    130  CA         3.2900   -7.3600    7.9320 C.3   348  ARG348      0.1563
    131  C          4.1770   -6.1630    8.2030 C.2   348  ARG348      0.2260
    132  O          4.0840   -5.1270    7.5560 O.2   348  ARG348     -0.2867
    133  CB         2.1890   -7.4250    9.0150 C.3   348  ARG348      0.0307
    134  CG         1.3420   -8.6900    8.9440 C.3   348  ARG348      0.0489
    135  CD         0.2740   -8.7230    9.9990 C.3   348  ARG348      0.2205
    136  NE        -0.2060  -10.1000   10.1230 N.pl3 348  ARG348     -0.0865
    137  CZ        -1.0830  -10.5000   11.0110 C.cat 348  ARG348      0.5346
    138  NH1       -1.7130   -9.6080   11.7710 N.pl3 348  ARG348      0.1354
    139  NH2       -1.3910  -11.7970   11.1110 N.pl3 348  ARG348      0.1354
@<TRIPOS>BOND
     1   132   131    2
     2   130   129    1
     3   130   131    1
     4   130   133    1
     5   134   133    1
     6   134   135    1
     7   116   115    2
     8   135   136    1
     9   136   137    2
    10   115   114    1
    11   124   123    2
    12   137   139    1
    13   137   138    1
    14    44    45    1
    15   123   122    1
    16   111   110    1
    17   121   122    1
    18   109   108    2
    19   114   117    1
    20   114   113    1
    21   122   125    1
    22   117   118    1
    23    99    98    2
    24   108   113   am
    25   108   107    1
    26    45    46    1
    27    45    48    1
    28   110   107    1
    29   110   112    1
    30    47    46    2
    31   106   107    1
    32   106   102   am
    33    46    51   am
    34   127   126    2
    35    49    48    1
    36   125   126    1
    37   105   104    1
    38   118   119    2
    39   118   120   am
    40    48    50    1
    41   101   104    1
    42   101   102    1
    43   101   100    1
    44    98   100   am
    45    98    97    1
    46   102   103    2
    47   126   128   am
    48    51    52    1
    49    83    82    2
    50    96    97    1
    51    96    91   am
    52    95    93    1
    53    90    93    1
    54    90    91    1
    55    90    89    1
    56    52    53    1
    57    93    94    1
    58    91    92    2
    59    82    89   am
    60    82    81    1
    61    80    81    1
    62    58    57    2
    63    53    54    2
    64    81    84    1
    65     1     2    1
    66    84    85    1
    67    57    56    1
    68     3     2    1
    69     3     4    2
    70     2     5    1
    71    85    86    1
    72    61    63   ar
    73    61    60   ar
    74    59    56    1
    75    59    60    1
    76    56    55    1
    77    63    65   ar
    78     5     6    1
    79    60    62   ar
    80    86    87    1
    81    88    87    1
    82    65    66    1
    83    65    64   ar
    84    62    64   ar
    85    35    34    1
    86    71    68    1
    87    23    21   am
    88    78    77    1
    89    34    33   ar
    90    34    32   ar
    91    77    79    1
    92    77    76    1
    93    33    31   ar
    94    21    22    2
    95    21    20    1
    96    67    68    1
    97    68    69    1
    98    42    41    2
    99    32    30   ar
   100    43    41   am
   101    14    12    1
   102    31    29   ar
   103    20    19    1
   104    41    40    1
   105    69    72   am
   106    69    70    2
   107    76    73    1
   108    13    12    1
   109    72    73    1
   110    12    11    1
   111    30    29   ar
   112    29    28    1
   113    73    74    1
   114    19    16    1
   115    40    37    1
   116    28    25    1
   117    10     9    2
   118    11     8    1
   119    16    15    1
   120    16    17    1
   121    37    36    1
   122    37    38    1
   123    74    75    2
   124     9    15   am
   125     9     8    1
   126     8     7    1
   127    25    26    1
   128    25    24    1
   129    26    27    2
   130    17    18    2
   131    38    39    2
