@<TRIPOS>MOLECULE
tmp/4wz5B00.pdb
 139 133 0 0 0
SMALL
GASTEIGER

@<TRIPOS>ATOM
      1  N        -20.9090    6.9370  -19.0030 N.3    47  SER47      -0.1217
      2  CA       -19.7090    6.1280  -18.7000 C.3    47  SER47       0.1889
      3  C        -19.8710    5.1310  -17.5460 C.2    47  SER47       0.2288
      4  O        -18.9830    4.2950  -17.3740 O.2    47  SER47      -0.2866
      5  CB       -18.4790    7.0160  -18.5020 C.3    47  SER47       0.2089
      6  OG       -18.2750    7.8830  -19.6280 O.3    47  SER47      -0.2183
      7  N        -10.5760   12.6530  -28.5250 N.3    77  ALA77      -0.1231
      8  CA       -11.3120   13.8030  -27.9820 C.3    77  ALA77       0.1694
      9  C        -10.6560   14.4400  -26.7690 C.2    77  ALA77       0.2591
     10  O        -10.7990   15.6490  -26.5760 O.2    77  ALA77      -0.2718
     11  CB       -12.7370   13.4110  -27.6580 C.3    77  ALA77       0.0304
     12  N         -9.9520   13.6330  -25.9580 N.am   78  MET78      -0.1979
     13  CA        -9.2770   14.0970  -24.7410 C.3    78  MET78       0.1605
     14  C         -7.8090   13.7340  -24.7850 C.2    78  MET78       0.2287
     15  O         -7.4720   12.5900  -25.1240 O.2    78  MET78      -0.2864
     16  CB        -9.9090   13.4780  -23.4840 C.3    78  MET78       0.0413
     17  CG       -11.3880   13.7580  -23.3350 C.3    78  MET78       0.0598
     18  SD       -11.7560   14.7360  -21.8690 S.3    78  MET78      -0.1393
     19  CE       -11.6880   16.3390  -22.5400 C.3    78  MET78       0.0692
     20  N         -5.9710   13.1510  -22.2940 N.3    80  GLN80      -0.1231
     21  CA        -5.7760   12.0660  -21.3190 C.3    80  GLN80       0.1698
     22  C         -5.9960   10.6610  -21.9050 C.2    80  GLN80       0.2592
     23  O         -5.5800    9.6660  -21.3010 O.2    80  GLN80      -0.2718
     24  CB        -6.6340   12.2810  -20.0540 C.3    80  GLN80       0.0381
     25  CG        -8.1570   12.2370  -20.2450 C.3    80  GLN80       0.0905
     26  CD        -8.9000   12.5540  -18.9640 C.2    80  GLN80       0.2608
     27  OE1       -8.4220   12.2950  -17.8450 O.2    80  GLN80      -0.2717
     28  NE2      -10.1010   13.0910  -19.1070 N.am   80  GLN80      -0.0878
     29  N         -6.6290   10.5890  -23.1010 N.am   81  TRP81      -0.1976
     30  CA        -6.8920    9.3090  -23.7850 C.3    81  TRP81       0.1640
     31  C         -5.8380    9.0080  -24.8430 C.2    81  TRP81       0.2290
     32  O         -5.8290    7.9130  -25.4070 O.2    81  TRP81      -0.2864
     33  CB        -8.2620    9.3530  -24.4710 C.3    81  TRP81       0.0576
     34  CG        -9.4200    9.6160  -23.5490 C.ar   81  TRP81       0.0006
     35  CD1       -9.4490    9.4720  -22.1820 C.ar   81  TRP81       0.0946
     36  CD2      -10.7520    9.9600  -23.9480 C.ar   81  TRP81       0.0152
     37  NE1      -10.6980    9.7670  -21.7050 N.ar   81  TRP81      -0.2442
     38  CE2      -11.5170   10.0890  -22.7640 C.ar   81  TRP81       0.0810
     39  CE3      -11.3630   10.2200  -25.1990 C.ar   81  TRP81       0.0012
     40  CZ2      -12.8660   10.4500  -22.7890 C.ar   81  TRP81       0.0191
     41  CZ3      -12.6990   10.5880  -25.2230 C.ar   81  TRP81       0.0001
     42  CH2      -13.4370   10.7080  -24.0310 C.ar   81  TRP81       0.0015
     43  N         -9.9070    6.6550  -16.4530 N.3    93  VAL93      -0.1231
     44  CA        -9.8350    7.9180  -17.2050 C.3    93  VAL93       0.1692
     45  C        -11.0700    8.0460  -18.1170 C.2    93  VAL93       0.2592
     46  O        -11.2390    9.0320  -18.8310 O.2    93  VAL93      -0.2718
     47  CB        -8.5030    8.1580  -17.9780 C.3    93  VAL93       0.0266
     48  CG1       -7.2740    7.9840  -17.0570 C.3    93  VAL93       0.0020
     49  CG2       -8.4070    7.2720  -19.2220 C.3    93  VAL93       0.0020
     50  N        -11.9540    7.0150  -18.0820 N.am   94  SER94      -0.1952
     51  CA       -13.2000    6.9920  -18.8460 C.3    94  SER94       0.1924
     52  C        -12.9440    7.1690  -20.3500 C.2    94  SER94       0.2314
     53  O        -13.5420    8.0330  -20.9890 O.2    94  SER94      -0.2863
     54  CB       -14.1630    8.0720  -18.3260 C.3    94  SER94       0.2116
     55  OG       -15.4990    7.6030  -18.3900 O.3    94  SER94      -0.2180
     56  N        -13.6710    6.7030  -23.5980 N.3    96  VAL96      -0.1245
     57  CA       -14.7970    6.3460  -24.4840 C.3    96  VAL96       0.1561
     58  C        -14.3600    5.5760  -25.7380 C.2    96  VAL96       0.2260
     59  O        -14.9700    4.5320  -25.9990 O.2    96  VAL96      -0.2867
     60  CB       -15.6200    7.6080  -24.8370 C.3    96  VAL96       0.0252
     61  CG1      -16.7310    7.2900  -25.8210 C.3    96  VAL96       0.0019
     62  CG2      -16.1910    8.2360  -23.5700 C.3    96  VAL96       0.0019
     63  N        -24.5250    6.3010  -24.6370 N.3   134  LEU134     -0.1231
     64  CA       -24.0850    7.7060  -24.6230 C.3   134  LEU134      0.1693
     65  C        -25.1650    8.6320  -25.1380 C.2   134  LEU134      0.2591
     66  O        -25.3620    9.7260  -24.6010 O.2   134  LEU134     -0.2718
     67  CB       -22.8290    7.8530  -25.4990 C.3   134  LEU134      0.0284
     68  CG       -21.6010    7.0350  -25.1040 C.3   134  LEU134      0.0019
     69  CD1      -20.6270    6.8960  -26.2580 C.3   134  LEU134      0.0001
     70  CD2      -20.9180    7.6040  -23.8890 C.3   134  LEU134      0.0001
     71  N        -25.8310    8.2170  -26.2160 N.am  135  GLU135     -0.1979
     72  CA       -26.8660    9.0510  -26.8160 C.3   135  GLU135      0.1602
     73  C        -28.0300    8.2500  -27.3860 C.2   135  GLU135      0.2287
     74  O        -28.9020    8.8240  -28.0490 O.2   135  GLU135     -0.2864
     75  CB       -26.2300    9.9740  -27.8720 C.3   135  GLU135      0.0415
     76  CG       -25.5120    9.2380  -28.9920 C.3   135  GLU135      0.1163
     77  CD       -25.0230   10.1730  -30.0780 C.2   135  GLU135      0.3649
     78  OE1      -25.8550   10.9210  -30.6410 O.co2 135  GLU135     -0.2457
     79  OE2      -23.8090   10.1390  -30.3820 O.co2 135  GLU135     -0.2457
     80  N        -17.5050    4.6310  -10.0020 N.3   184  LYS184     -0.1231
     81  CA       -17.4270    5.0400  -11.3970 C.3   184  LYS184      0.1693
     82  C        -18.3070    6.2520  -11.6220 C.2   184  LYS184      0.2593
     83  O        -19.4620    6.2580  -11.2170 O.2   184  LYS184     -0.2718
     84  CB       -17.8400    3.8960  -12.3510 C.3   184  LYS184      0.0285
     85  CG       -17.7570    4.2570  -13.8540 C.3   184  LYS184      0.0035
     86  CD       -16.2960    4.3870  -14.3180 C.3   184  LYS184      0.0206
     87  CE       -16.1210    4.9970  -15.7090 C.3   184  LYS184      0.1093
     88  NZ       -16.1900    6.4820  -15.6920 N.3   184  LYS184     -0.1314
     89  N        -17.7680    7.2420  -12.3230 N.am  185  THR185     -0.1939
     90  CA       -18.5500    8.4220  -12.6740 C.3   185  THR185      0.2028
     91  C        -19.1750    8.2580  -14.0760 C.2   185  THR185      0.2643
     92  O        -18.6990    7.4650  -14.9010 O.2   185  THR185     -0.2714
     93  CB       -17.6210    9.6460  -12.7040 C.3   185  THR185      0.1808
     94  OG1      -16.5730    9.4190  -13.6720 O.3   185  THR185     -0.2208
     95  CG2      -17.0450    9.9890  -11.3180 C.3   185  THR185      0.0379
     96  N        -20.1750    9.0850  -14.3470 N.am  186  GLY186     -0.1939
     97  CA       -20.7790    9.1450  -15.6740 C.3   186  GLY186      0.2014
     98  C        -21.2210   10.5640  -15.9490 C.2   186  GLY186      0.2639
     99  O        -21.4580   11.3370  -15.0060 O.2   186  GLY186     -0.2714
    100  N        -21.2730   10.9370  -17.2290 N.am  187  PHE187     -0.1959
    101  CA       -21.7190   12.2660  -17.6210 C.3   187  PHE187      0.1771
    102  C        -22.1030   12.1950  -19.0770 C.2   187  PHE187      0.2620
    103  O        -21.2670   11.8760  -19.9170 O.2   187  PHE187     -0.2715
    104  CB       -20.5900   13.2880  -17.3690 C.3   187  PHE187      0.0574
    105  CG       -20.8060   14.6880  -17.8610 C.ar  187  PHE187     -0.0200
    106  CD1      -22.0140   15.3430  -17.6430 C.ar  187  PHE187     -0.0042
    107  CD2      -19.7520   15.4140  -18.4120 C.ar  187  PHE187     -0.0042
    108  CE1      -22.1850   16.6690  -18.0300 C.ar  187  PHE187     -0.0003
    109  CE2      -19.9330   16.7410  -18.8140 C.ar  187  PHE187     -0.0003
    110  CZ       -21.1490   17.3570  -18.6250 C.ar  187  PHE187     -0.0000
    111  N        -23.3680   12.4660  -19.3780 N.am  188  SER188     -0.1936
    112  CA       -23.8390   12.3730  -20.7590 C.3   188  SER188      0.2055
    113  C        -23.6180   13.6270  -21.5960 C.2   188  SER188      0.2643
    114  O        -23.8940   13.5890  -22.7920 O.2   188  SER188     -0.2714
    115  CB       -25.3200   11.9930  -20.7850 C.3   188  SER188      0.2130
    116  OG       -26.1290   13.0870  -20.3850 O.3   188  SER188     -0.2179
    117  N        -23.1940   14.7240  -20.9740 N.am  189  GLY189     -0.1954
    118  CA       -23.0790   16.0210  -21.6310 C.3   189  GLY189      0.1869
    119  C        -24.0370   16.9980  -20.9730 C.2   189  GLY189      0.2309
    120  O        -24.7290   16.6290  -20.0130 O.2   189  GLY189     -0.2863
    121  N        -20.3730   19.7930  -12.5520 N.3   226  LEU226     -0.1245
    122  CA       -19.9210   18.4030  -12.5870 C.3   226  LEU226      0.1561
    123  C        -19.3790   17.8570  -11.2590 C.2   226  LEU226      0.2260
    124  O        -19.7840   16.7570  -10.8920 O.2   226  LEU226     -0.2867
    125  CB       -18.9080   18.1630  -13.7120 C.3   226  LEU226      0.0270
    126  CG       -18.7330   16.7340  -14.1900 C.3   226  LEU226      0.0019
    127  CD1      -20.0710   16.0760  -14.5920 C.3   226  LEU226      0.0001
    128  CD2      -17.7660   16.6830  -15.3440 C.3   226  LEU226      0.0001
    129  N        -21.4920   15.7510   -8.5150 N.3   229  ARG229     -0.1245
    130  CA       -21.8240   14.3250   -8.6120 C.3   229  ARG229      0.1563
    131  C        -21.0670   13.5070   -7.5670 C.2   229  ARG229      0.2260
    132  O        -21.5140   12.4270   -7.2200 O.2   229  ARG229     -0.2867
    133  CB       -21.6130   13.7770  -10.0370 C.3   229  ARG229      0.0307
    134  CG       -20.1250   13.6000  -10.3670 C.3   229  ARG229      0.0489
    135  CD       -19.9340   13.3150  -11.8450 C.3   229  ARG229      0.2205
    136  NE       -18.5260   13.3860  -12.2360 N.pl3 229  ARG229     -0.0865
    137  CZ       -18.0640   13.0610  -13.4360 C.cat 229  ARG229      0.5346
    138  NH1      -16.7660   13.1670  -13.7040 N.pl3 229  ARG229      0.1354
    139  NH2      -18.8940   12.6010  -14.3750 N.pl3 229  ARG229      0.1354
@<TRIPOS>BOND
     1    78    77   ar
     2    79    77   ar
     3    77    76    1
     4    76    75    1
     5     7     8    1
     6    74    73    2
     7     8    11    1
     8     8     9    1
     9    75    72    1
    10    73    72    1
    11    72    71    1
    12     9    10    2
    13     9    12   am
    14    69    68    1
    15    71    65   am
    16    59    58    2
    17    12    13    1
    18    61    60    1
    19    58    57    1
    20    67    68    1
    21    67    64    1
    22    32    31    2
    23    41    39   ar
    24    41    42   ar
    25    39    36   ar
    26    65    64    1
    27    65    66    2
    28    15    14    2
    29    68    70    1
    30    31    30    1
    31    60    57    1
    32    60    62    1
    33    14    13    1
    34    13    16    1
    35    63    64    1
    36    57    56    1
    37    33    30    1
    38    33    34    1
    39    42    40   ar
    40    36    34   ar
    41    36    38   ar
    42    30    29    1
    43    34    35   ar
    44    16    17    1
    45    17    18    1
    46    29    22   am
    47   114   113    2
    48    40    38   ar
    49    38    37   ar
    50    19    18    1
    51    20    21    1
    52    35    37   ar
    53    22    21    1
    54    22    23    2
    55   118   117    1
    56   118   119    1
    57   113   117   am
    58   113   112    1
    59    21    24    1
    60    53    52    2
    61   119   120    2
    62   115   112    1
    63   115   116    1
    64   112   111    1
    65    52    51    1
    66    25    24    1
    67    25    26    1
    68   103   102    2
    69     6     5    1
    70   111   102   am
    71    49    47    1
    72    28    26   am
    73   102   101    1
    74     1     2    1
    75    26    27    2
    76    51    54    1
    77    51    50    1
    78    46    45    2
    79   109   110   ar
    80   109   107   ar
    81     2     5    1
    82     2     3    1
    83   110   108   ar
    84   107   105   ar
    85    55    54    1
    86    45    50   am
    87    45    44    1
    88   108   106   ar
    89    47    44    1
    90    47    48    1
    91   105   106   ar
    92   105   104    1
    93   101   104    1
    94   101   100    1
    95     3     4    2
    96   100    98   am
    97    44    43    1
    98    98    97    1
    99    98    99    2
   100    87    88    1
   101    87    86    1
   102    97    96    1
   103   128   126    1
   104    92    91    2
   105   127   126    1
   106   139   137    1
   107    96    91   am
   108    86    85    1
   109   126   125    1
   110    91    90    1
   111    85    84    1
   112   125   122    1
   113   138   137    1
   114    94    93    1
   115   137   136    2
   116    93    90    1
   117    93    95    1
   118    90    89    1
   119   122   121    1
   120   122   123    1
   121    84    81    1
   122    89    82   am
   123   136   135    1
   124   135   134    1
   125    82    81    1
   126    82    83    2
   127    81    80    1
   128   123   124    2
   129   134   133    1
   130   133   130    1
   131   130   129    1
   132   130   131    1
   133   131   132    2
