@<TRIPOS>MOLECULE
tmp/4wz8A00.pdb
 120 114 0 0 0
SMALL
GASTEIGER

@<TRIPOS>ATOM
      1  N         13.0380   -3.4870  -28.1980 N.3   441  ALA441     -0.1245
      2  CA        13.0630   -2.8280  -26.8960 C.3   441  ALA441      0.1562
      3  C         14.4400   -2.9870  -26.2610 C.2   441  ALA441      0.2260
      4  O         15.0730   -4.0330  -26.4150 O.2   441  ALA441     -0.2867
      5  CB        11.9990   -3.4500  -25.9830 C.3   441  ALA441      0.0290
      6  N         16.6600   -6.0520  -23.5510 N.3   444  VAL444     -0.1245
      7  CA        16.0900   -7.3400  -23.9150 C.3   444  VAL444      0.1561
      8  C         17.0460   -7.9900  -24.9140 C.2   444  VAL444      0.2260
      9  O         17.5310   -7.3260  -25.8310 O.2   444  VAL444     -0.2867
     10  CB        14.6210   -7.2610  -24.4460 C.3   444  VAL444      0.0252
     11  CG1       14.0940   -8.6540  -24.8160 C.3   444  VAL444      0.0019
     12  CG2       13.6790   -6.6140  -23.4170 C.3   444  VAL444      0.0019
     13  N         17.5880  -10.1950  -27.9770 N.3   446  PHE446     -0.1241
     14  CA        16.8450  -10.7140  -29.1320 C.3   446  PHE446      0.1605
     15  C         17.7760  -11.6810  -29.8660 C.2   446  PHE446      0.2264
     16  O         18.9490  -11.7600  -29.4720 O.2   446  PHE446     -0.2867
     17  CB        16.4240   -9.5550  -30.0450 C.3   446  PHE446      0.0534
     18  CG        15.2660   -8.7600  -29.4910 C.ar  446  PHE446     -0.0203
     19  CD1       15.4770   -7.7610  -28.5450 C.ar  446  PHE446     -0.0042
     20  CD2       13.9660   -8.9870  -29.9380 C.ar  446  PHE446     -0.0042
     21  CE1       14.4050   -7.0140  -28.0430 C.ar  446  PHE446     -0.0003
     22  CE2       12.8970   -8.2130  -29.4560 C.ar  446  PHE446     -0.0003
     23  CZ        13.1240   -7.2430  -28.5070 C.ar  446  PHE446     -0.0000
     24  N         16.5320   -7.5300  -18.9000 N.3   475  ARG475     -0.1231
     25  CA        15.2830   -7.9620  -18.2650 C.3   475  ARG475      0.1694
     26  C         15.0640   -9.4550  -18.5470 C.2   475  ARG475      0.2593
     27  O         14.4340  -10.1610  -17.7440 O.2   475  ARG475     -0.2718
     28  CB        14.1110   -7.1570  -18.8330 C.3   475  ARG475      0.0321
     29  CG        14.2150   -5.6640  -18.5350 C.3   475  ARG475      0.0489
     30  CD        13.1650   -4.8830  -19.2920 C.3   475  ARG475      0.2205
     31  NE        11.8300   -5.1890  -18.8000 N.pl3 475  ARG475     -0.0865
     32  CZ        10.7210   -4.6460  -19.2710 C.cat 475  ARG475      0.5346
     33  NH1       10.7760   -3.7490  -20.2470 N.pl3 475  ARG475      0.1354
     34  NH2        9.5460   -5.0090  -18.7870 N.pl3 475  ARG475      0.1354
     35  N         15.5910   -9.9140  -19.6890 N.am  476  GLY476     -0.1942
     36  CA        15.4890  -11.3010  -20.1290 C.3   476  GLY476      0.2014
     37  C         15.6790  -11.4260  -21.6170 C.2   476  GLY476      0.2639
     38  O         16.2750  -10.5530  -22.2470 O.2   476  GLY476     -0.2714
     39  N         15.1650  -12.5120  -22.1880 N.am  477  PHE477     -0.1959
     40  CA        15.1940  -12.7880  -23.6170 C.3   477  PHE477      0.1771
     41  C         13.8340  -12.4590  -24.2010 C.2   477  PHE477      0.2620
     42  O         12.8420  -12.5440  -23.4860 O.2   477  PHE477     -0.2715
     43  CB        15.5180  -14.2860  -23.8570 C.3   477  PHE477      0.0574
     44  CG        16.9830  -14.5980  -23.7010 C.ar  477  PHE477     -0.0200
     45  CD1       17.8520  -14.4900  -24.7840 C.ar  477  PHE477     -0.0042
     46  CD2       17.5090  -14.9630  -22.4620 C.ar  477  PHE477     -0.0042
     47  CE1       19.2240  -14.7260  -24.6320 C.ar  477  PHE477     -0.0003
     48  CE2       18.8770  -15.2370  -22.3220 C.ar  477  PHE477     -0.0003
     49  CZ        19.7240  -15.0970  -23.4060 C.ar  477  PHE477     -0.0000
     50  N         13.7600  -12.1110  -25.4970 N.am  478  SER478     -0.1936
     51  CA        12.4590  -11.8610  -26.1260 C.3   478  SER478      0.2055
     52  C         11.7180  -13.1870  -26.2920 C.2   478  SER478      0.2644
     53  O         12.1760  -14.0690  -27.0240 O.2   478  SER478     -0.2714
     54  CB        12.6260  -11.1610  -27.4660 C.3   478  SER478      0.2130
     55  OG        11.3310  -10.8570  -27.9560 O.3   478  SER478     -0.2179
     56  N         10.6460  -13.3570  -25.5310 N.am  479  GLY479     -0.1939
     57  CA         9.8770  -14.5980  -25.4880 C.3   479  GLY479      0.2014
     58  C          8.6500  -14.6570  -26.3730 C.2   479  GLY479      0.2639
     59  O          7.9320  -15.6550  -26.3470 O.2   479  GLY479     -0.2714
     60  N          8.4110  -13.6000  -27.1440 N.am  480  GLY480     -0.1954
     61  CA         7.3000  -13.5000  -28.0800 C.3   480  GLY480      0.1869
     62  C          7.4380  -14.4510  -29.2500 C.2   480  GLY480      0.2309
     63  O          8.5240  -14.9800  -29.4990 O.2   480  GLY480     -0.2863
     64  N         17.1420  -10.9000  -14.5980 N.3   517  ARG517     -0.1245
     65  CA        15.9600  -11.6280  -14.1480 C.3   517  ARG517      0.1563
     66  C         16.1580  -13.0960  -14.4570 C.2   517  ARG517      0.2260
     67  O         17.2440  -13.4730  -14.8900 O.2   517  ARG517     -0.2867
     68  CB        14.6570  -11.0590  -14.7410 C.3   517  ARG517      0.0307
     69  CG        14.3730   -9.5850  -14.4130 C.3   517  ARG517      0.0489
     70  CD        14.0170   -9.3590  -12.9440 C.3   517  ARG517      0.2205
     71  NE        13.9970   -7.9330  -12.6220 N.pl3 517  ARG517     -0.0865
     72  CZ        13.7000   -7.4230  -11.4330 C.cat 517  ARG517      0.5346
     73  NH1       13.3960   -8.2190  -10.4150 N.pl3 517  ARG517      0.1354
     74  NH2       13.6950   -6.1090  -11.2540 N.pl3 517  ARG517      0.1354
     75  N         13.6290  -13.5610   -9.8990 N.3   545  VAL545     -0.1231
     76  CA        13.0950  -14.3860  -10.9800 C.3   545  VAL545      0.1692
     77  C         12.2640  -13.5320  -11.9180 C.2   545  VAL545      0.2592
     78  O         12.5870  -13.4330  -13.1060 O.2   545  VAL545     -0.2718
     79  CB        12.3650  -15.6700  -10.4740 C.3   545  VAL545      0.0266
     80  CG1       11.8930  -16.5430  -11.6410 C.3   545  VAL545      0.0020
     81  CG2       13.2590  -16.4680   -9.5390 C.3   545  VAL545      0.0020
     82  N         11.2270  -12.8860  -11.3870 N.am  546  LEU546     -0.1966
     83  CA        10.3720  -12.0190  -12.1920 C.3   546  LEU546      0.1728
     84  C         10.5310  -10.5640  -11.7500 C.2   546  LEU546      0.2616
     85  O         11.0650  -10.2690  -10.6780 O.2   546  LEU546     -0.2715
     86  CB         8.9050  -12.3970  -12.0440 C.3   546  LEU546      0.0311
     87  CG         8.3550  -13.7410  -12.5140 C.3   546  LEU546      0.0022
     88  CD1        9.2070  -14.5560  -13.5090 C.3   546  LEU546      0.0001
     89  CD2        7.6370  -14.3960  -11.4680 C.3   546  LEU546      0.0001
     90  N         10.0960   -9.6570  -12.5970 N.am  547  GLU547     -0.1977
     91  CA        10.0660   -8.2460  -12.2870 C.3   547  GLU547      0.1602
     92  C          8.9900   -8.0460  -11.1400 C.2   547  GLU547      0.2287
     93  O          8.1180   -8.9100  -10.9910 O.2   547  GLU547     -0.2864
     94  CB         9.7250   -7.4670  -13.5710 C.3   547  GLU547      0.0415
     95  CG        10.9160   -7.4330  -14.5020 C.3   547  GLU547      0.1163
     96  CD        10.8050   -6.7190  -15.8330 C.2   547  GLU547      0.3649
     97  OE1        9.6810   -6.4970  -16.3460 O.co2 547  GLU547     -0.2457
     98  OE2       11.8830   -6.4380  -16.4010 O.co2 547  GLU547     -0.2457
     99  N          6.1560   -6.5610  -10.6940 N.3   549  GLU549     -0.1231
    100  CA         4.7920   -6.7460  -11.1860 C.3   549  GLU549      0.1699
    101  C          4.4660   -8.2270  -11.3530 C.2   549  GLU549      0.2592
    102  O          3.3370   -8.6240  -11.0920 O.2   549  GLU549     -0.2718
    103  CB         4.5500   -5.9910  -12.5160 C.3   549  GLU549      0.0402
    104  CG         4.8420   -4.4940  -12.5010 C.3   549  GLU549      0.1161
    105  CD         6.3000   -4.0570  -12.3920 C.2   549  GLU549      0.3649
    106  OE1        7.2060   -4.8500  -12.7480 O.co2 549  GLU549     -0.2457
    107  OE2        6.5330   -2.9130  -11.9340 O.co2 549  GLU549     -0.2457
    108  N          5.4570   -9.0240  -11.7740 N.am  550  GLY550     -0.1957
    109  CA         5.3090  -10.4630  -11.9360 C.3   550  GLY550      0.1869
    110  C          5.2390  -11.2000  -10.6150 C.2   550  GLY550      0.2309
    111  O          4.4110  -12.1030  -10.4650 O.2   550  GLY550     -0.2863
    112  N          1.8680  -10.4180   -8.7800 N.3   553  GLU553     -0.1245
    113  CA         0.8010  -11.0680   -9.5470 C.3   553  GLU553      0.1567
    114  C          0.5470  -12.5220   -9.1280 C.2   553  GLU553      0.2260
    115  O         -0.5330  -13.0470   -9.3890 O.2   553  GLU553     -0.2867
    116  CB         1.1400  -11.0080  -11.0270 C.3   553  GLU553      0.0388
    117  CG        -0.0460  -10.8060  -11.9450 C.3   553  GLU553      0.1160
    118  CD         0.2020  -11.2580  -13.3730 C.2   553  GLU553      0.3649
    119  OE1        1.3690  -11.2240  -13.8320 O.co2 553  GLU553     -0.2457
    120  OE2       -0.7870  -11.6390  -14.0400 O.co2 553  GLU553     -0.2457
@<TRIPOS>BOND
     1    17    18    1
     2    17    14    1
     3    20    18   ar
     4    20    22   ar
     5    15    16    2
     6    15    14    1
     7    63    62    2
     8    18    19   ar
     9    22    23   ar
    10    62    61    1
    11    14    13    1
    12    19    21   ar
    13    23    21   ar
    14     1     2    1
    15    61    60    1
    16    55    54    1
    17    54    51    1
    18    60    58   am
    19    53    52    2
    20     2     3    1
    21     2     5    1
    22     4     3    2
    23    58    59    2
    24    58    57    1
    25    52    51    1
    26    52    56   am
    27    51    50    1
    28     9     8    2
    29    56    57    1
    30    50    41   am
    31     8     7    1
    32    11    10    1
    33    45    47   ar
    34    45    44   ar
    35    47    49   ar
    36    10     7    1
    37    10    12    1
    38    41    40    1
    39    41    42    2
    40     7     6    1
    41    43    44    1
    42    43    40    1
    43    44    46   ar
    44    40    39    1
    45    49    48   ar
    46    46    48   ar
    47    38    37    2
    48    39    37   am
    49    37    36    1
    50    33    32    1
    51    36    35    1
    52    35    26   am
    53    30    31    1
    54    30    29    1
    55    32    31    2
    56    32    34    1
    57    24    25    1
    58    28    29    1
    59    28    25    1
    60    26    25    1
    61    26    27    2
    62    98    96   ar
    63    97    96   ar
    64    96    95    1
    65    67    66    2
    66    68    69    1
    67    68    65    1
    68    64    65    1
    69    95    94    1
    70    66    65    1
    71    69    70    1
    72   120   118   ar
    73   119   118   ar
    74    94    91    1
    75    88    87    1
    76   118   117    1
    77    78    77    2
    78    70    71    1
    79   106   105   ar
    80    71    72    2
    81    90    91    1
    82    90    84   am
    83   103   104    1
    84   103   100    1
    85    87    86    1
    86    87    89    1
    87   104   105    1
    88   105   107   ar
    89    91    92    1
    90    83    86    1
    91    83    84    1
    92    83    82    1
    93   117   116    1
    94   109   108    1
    95   109   110    1
    96    77    82   am
    97    77    76    1
    98   108   101   am
    99    84    85    2
   100    80    79    1
   101    72    74    1
   102    72    73    1
   103   101   100    1
   104   101   102    2
   105   100    99    1
   106    92    93    2
   107   116   113    1
   108    76    79    1
   109    76    75    1
   110   110   111    2
   111    79    81    1
   112   113   114    1
   113   113   112    1
   114   115   114    2
