@<TRIPOS>MOLECULE
tmp/4wz9B00.pdb
 176 169 0 0 0
SMALL
GASTEIGER

@<TRIPOS>ATOM
      1  N         35.7560  -57.8380  -27.2130 N.3   141  GLN141     -0.1245
      2  CA        36.3150  -58.0910  -28.5140 C.3   141  GLN141      0.1566
      3  C         36.8570  -59.4910  -28.4700 C.2   141  GLN141      0.2260
      4  O         37.7720  -59.7540  -27.7110 O.2   141  GLN141     -0.2867
      5  CB        37.4310  -57.0910  -28.8220 C.3   141  GLN141      0.0367
      6  CG        38.2610  -57.4380  -30.0450 C.3   141  GLN141      0.0905
      7  CD        37.4220  -57.5640  -31.3080 C.2   141  GLN141      0.2608
      8  OE1       36.5110  -56.7620  -31.5390 O.2   141  GLN141     -0.2717
      9  NE2       37.7300  -58.5470  -32.1350 N.am  141  GLN141     -0.0878
     10  N         37.3690  -61.7320  -31.5580 N.3   143  GLU143     -0.1245
     11  CA        37.9160  -62.3220  -32.8010 C.3   143  GLU143      0.1567
     12  C         39.4290  -62.4290  -32.7190 C.2   143  GLU143      0.2260
     13  O         40.0580  -61.5690  -32.0980 O.2   143  GLU143     -0.2867
     14  CB        37.4980  -61.6000  -34.1020 C.3   143  GLU143      0.0388
     15  CG        37.9130  -62.3440  -35.3860 C.3   143  GLU143      0.1160
     16  CD        37.3250  -61.7800  -36.6570 C.2   143  GLU143      0.3649
     17  OE1       37.3450  -60.5280  -36.7970 O.co2 143  GLU143     -0.2457
     18  OE2       36.9270  -62.5880  -37.5810 O.co2 143  GLU143     -0.2457
     19  N         40.7080  -52.5490  -33.4640 N.3   273  ALA273     -0.1231
     20  CA        40.4660  -52.5230  -34.9160 C.3   273  ALA273      0.1694
     21  C         39.6740  -51.2990  -35.3090 C.2   273  ALA273      0.2593
     22  O         39.4750  -50.3760  -34.5220 O.2   273  ALA273     -0.2718
     23  CB        39.7090  -53.7680  -35.3500 C.3   273  ALA273      0.0304
     24  N         39.2070  -51.2950  -36.5440 N.am  274  GLY274     -0.1942
     25  CA        38.2010  -50.3230  -36.9940 C.3   274  GLY274      0.2014
     26  C         36.8210  -50.7210  -36.4880 C.2   274  GLY274      0.2639
     27  O         36.0700  -49.8640  -36.0390 O.2   274  GLY274     -0.2714
     28  N         36.4920  -52.0200  -36.5770 N.am  275  ALA275     -0.1963
     29  CA        35.1800  -52.5200  -36.1890 C.3   275  ALA275      0.1728
     30  C         35.1680  -54.0420  -36.0690 C.2   275  ALA275      0.2616
     31  O         36.0770  -54.6740  -36.5470 O.2   275  ALA275     -0.2715
     32  CB        34.1270  -52.0650  -37.1900 C.3   275  ALA275      0.0334
     33  N         34.1260  -54.6120  -35.4500 N.am  276  MET276     -0.1963
     34  CA        33.9950  -56.0730  -35.3170 C.3   276  MET276      0.1736
     35  C         32.5500  -56.5430  -35.5310 C.2   276  MET276      0.2616
     36  O         31.6090  -56.0220  -34.9300 O.2   276  MET276     -0.2715
     37  CB        34.5460  -56.5350  -33.9510 C.3   276  MET276      0.0427
     38  CG        34.3720  -58.0140  -33.6850 C.3   276  MET276      0.0599
     39  SD        35.4210  -58.9420  -34.8170 S.3   276  MET276     -0.1393
     40  CE        34.4070  -60.3490  -35.2370 C.3   276  MET276      0.0692
     41  N         32.3860  -57.5400  -36.3910 N.am  277  GLU277     -0.1977
     42  CA        31.0620  -57.9260  -36.9390 C.3   277  GLU277      0.1602
     43  C         30.1670  -58.8020  -36.0530 C.2   277  GLU277      0.2287
     44  O         29.3380  -59.5550  -36.5690 O.2   277  GLU277     -0.2864
     45  CB        31.2750  -58.6840  -38.2620 C.3   277  GLU277      0.0415
     46  CG        31.9060  -60.0620  -38.0610 C.3   277  GLU277      0.1163
     47  CD        33.4060  -60.1140  -38.2780 C.2   277  GLU277      0.3649
     48  OE1       34.0870  -59.0860  -38.0290 O.co2 277  GLU277     -0.2457
     49  OE2       33.8950  -61.2130  -38.6620 O.co2 277  GLU277     -0.2457
     50  N         35.0350  -48.4470  -33.6820 N.3   285  ARG285     -0.1245
     51  CA        35.7160  -47.3310  -33.0940 C.3   285  ARG285      0.1563
     52  C         34.9000  -46.1020  -33.5750 C.2   285  ARG285      0.2260
     53  O         34.2710  -46.1350  -34.6230 O.2   285  ARG285     -0.2867
     54  CB        37.2110  -47.2950  -33.4730 C.3   285  ARG285      0.0307
     55  CG        37.5370  -46.6370  -34.7970 C.3   285  ARG285      0.0489
     56  CD        38.9550  -46.9450  -35.2430 C.3   285  ARG285      0.2205
     57  NE        39.9770  -46.3020  -34.4140 N.pl3 285  ARG285     -0.0865
     58  CZ        41.0890  -46.8860  -33.9600 C.cat 285  ARG285      0.5346
     59  NH1       41.9180  -46.1880  -33.2130 N.pl3 285  ARG285      0.1354
     60  NH2       41.3780  -48.1570  -34.2150 N.pl3 285  ARG285      0.1354
     61  N         32.8350  -49.1120  -43.7620 N.3   307  THR307     -0.1218
     62  CA        32.9780  -49.9570  -42.6310 C.3   307  THR307      0.1862
     63  C         31.6850  -50.6460  -42.3070 C.2   307  THR307      0.2287
     64  O         31.6870  -51.8280  -41.9950 O.2   307  THR307     -0.2866
     65  CB        33.4470  -49.1810  -41.4040 C.3   307  THR307      0.1770
     66  OG1       34.6550  -48.4770  -41.7200 O.3   307  THR307     -0.2211
     67  CG2       33.7570  -50.1200  -40.2860 C.3   307  THR307      0.0375
     68  N         31.1570  -53.1960  -44.8490 N.3   310  HIS310     -0.1226
     69  CA        32.0700  -54.2950  -44.5700 C.3   310  HIS310      0.1752
     70  C         31.5100  -55.2460  -43.4960 C.2   310  HIS310      0.2595
     71  O         31.3710  -56.4510  -43.7350 O.2   310  HIS310     -0.2718
     72  CB        33.3610  -53.7350  -44.0940 C.3   310  HIS310      0.0759
     73  CG        34.3980  -54.7680  -43.8460 C.ar  310  HIS310      0.0818
     74  ND1       35.4410  -54.9980  -44.7210 N.ar  310  HIS310     -0.2268
     75  CD2       34.5770  -55.6260  -42.8090 C.ar  310  HIS310      0.1154
     76  CE1       36.2240  -55.9430  -44.2260 C.ar  310  HIS310      0.1986
     77  NE2       35.7280  -56.3320  -43.0690 N.ar  310  HIS310     -0.2212
     78  N         31.1260  -54.6960  -42.3490 N.am  311  GLU311     -0.1979
     79  CA        30.6990  -55.4960  -41.2290 C.3   311  GLU311      0.1602
     80  C         29.3200  -56.1250  -41.4500 C.2   311  GLU311      0.2287
     81  O         29.0490  -57.2320  -40.9550 O.2   311  GLU311     -0.2864
     82  CB        30.7180  -54.6760  -39.9190 C.3   311  GLU311      0.0415
     83  CG        32.0280  -53.9320  -39.6370 C.3   311  GLU311      0.1163
     84  CD        33.2710  -54.8260  -39.5470 C.2   311  GLU311      0.3649
     85  OE1       34.3760  -54.3960  -39.9630 O.co2 311  GLU311     -0.2457
     86  OE2       33.1790  -55.9570  -39.0600 O.co2 311  GLU311     -0.2457
     87  N         29.6380  -59.3000  -43.3160 N.3   314  HIS314     -0.1241
     88  CA        29.9930  -60.4040  -42.4380 C.3   314  HIS314      0.1621
     89  C         28.7880  -61.1630  -41.8010 C.2   314  HIS314      0.2264
     90  O         28.9230  -62.3380  -41.4090 O.2   314  HIS314     -0.2867
     91  CB        30.8890  -59.9040  -41.3120 C.3   314  HIS314      0.0745
     92  CG        32.3320  -59.7920  -41.6840 C.ar  314  HIS314      0.0817
     93  ND1       33.0350  -60.8390  -42.2320 N.ar  314  HIS314     -0.2268
     94  CD2       33.2100  -58.7750  -41.5530 C.ar  314  HIS314      0.1154
     95  CE1       34.2710  -60.4470  -42.4780 C.ar  314  HIS314      0.1986
     96  NE2       34.4100  -59.2120  -42.0480 N.ar  314  HIS314     -0.2212
     97  N         36.9920  -62.4710  -44.8980 N.3   333  GLU333     -0.1245
     98  CA        37.5160  -61.1220  -45.0920 C.3   333  GLU333      0.1567
     99  C         37.5940  -60.7430  -46.5760 C.2   333  GLU333      0.2260
    100  O         37.6640  -59.5670  -46.9160 O.2   333  GLU333     -0.2867
    101  CB        38.8600  -60.9290  -44.3530 C.3   333  GLU333      0.0388
    102  CG        38.8640  -61.2630  -42.8400 C.3   333  GLU333      0.1160
    103  CD        37.9000  -60.4370  -42.0300 C.2   333  GLU333      0.3649
    104  OE1       37.3400  -59.4740  -42.6110 O.co2 333  GLU333     -0.2457
    105  OE2       37.6490  -60.7700  -40.8390 O.co2 333  GLU333     -0.2457
    106  N         32.3690  -54.3930  -49.0380 N.3   340  GLU340     -0.1196
    107  CA        32.7670  -53.1090  -48.4600 C.3   340  GLU340      0.1783
    108  C         32.4610  -51.9960  -49.4740 C.2   340  GLU340      0.2306
    109  O         31.9660  -50.9220  -49.0940 O.2   340  GLU340     -0.2863
    110  CB        34.2620  -53.1390  -48.0880 C.2   340  GLU340      0.0071
    111  CG        34.8110  -51.8900  -47.4090 C.2   340  GLU340      0.0834
    112  CD        36.1960  -52.0240  -46.7740 C.2   340  GLU340      0.3877
    113  OE1       36.8580  -50.9570  -46.6090 O.co2 340  GLU340     -0.2406
    114  OE2       36.6100  -53.1530  -46.4030 O.co2 340  GLU340     -0.2406
    115  N         46.2130  -51.5840  -54.4340 N.3   364  TYR364     -0.1241
    116  CA        46.7020  -51.7900  -53.0970 C.3   364  TYR364      0.1605
    117  C         47.1040  -53.2610  -52.8460 C.2   364  TYR364      0.2264
    118  O         48.1510  -53.5140  -52.3060 O.2   364  TYR364     -0.2867
    119  CB        45.6300  -51.3370  -52.1280 C.3   364  TYR364      0.0534
    120  CG        46.0150  -51.3610  -50.6930 C.ar  364  TYR364     -0.0201
    121  CD1       47.0970  -50.6210  -50.2410 C.ar  364  TYR364     -0.0009
    122  CD2       45.2630  -52.0580  -49.7700 C.ar  364  TYR364     -0.0009
    123  CE1       47.4500  -50.6100  -48.9070 C.ar  364  TYR364      0.0417
    124  CE2       45.5940  -52.0490  -48.4300 C.ar  364  TYR364      0.0417
    125  CZ        46.6940  -51.3210  -48.0050 C.ar  364  TYR364      0.1957
    126  OH        47.0520  -51.3130  -46.6780 O.3   364  TYR364     -0.2866
    127  N         45.3920  -61.9870  -40.6220 N.3   391  PHE391     -0.1227
    128  CA        44.4930  -60.9180  -40.9200 C.3   391  PHE391      0.1736
    129  C         45.2680  -59.8050  -41.5830 C.2   391  PHE391      0.2595
    130  O         45.4390  -58.7320  -41.0040 O.2   391  PHE391     -0.2718
    131  CB        43.7970  -60.3910  -39.6630 C.3   391  PHE391      0.0547
    132  CG        42.6970  -61.2740  -39.1500 C.ar  391  PHE391     -0.0202
    133  CD1       43.0040  -62.4200  -38.4080 C.ar  391  PHE391     -0.0042
    134  CD2       41.3420  -60.9130  -39.3420 C.ar  391  PHE391     -0.0042
    135  CE1       42.0030  -63.2070  -37.8970 C.ar  391  PHE391     -0.0003
    136  CE2       40.3100  -61.7120  -38.8500 C.ar  391  PHE391     -0.0003
    137  CZ        40.6470  -62.8630  -38.1280 C.ar  391  PHE391     -0.0000
    138  N         45.6850  -60.0600  -42.8200 N.am  392  ASP392     -0.1960
    139  CA        46.6740  -59.2520  -43.5000 C.3   392  ASP392      0.1840
    140  C         46.1580  -58.8380  -44.8550 C.2   392  ASP392      0.2621
    141  O         45.0090  -59.0740  -45.1600 O.2   392  ASP392     -0.2715
    142  CB        47.9800  -60.0510  -43.6360 C.3   392  ASP392      0.1450
    143  CG        47.8180  -61.3640  -44.4080 C.2   392  ASP392      0.3671
    144  OD1       46.8050  -61.5900  -45.1200 O.co2 392  ASP392     -0.2456
    145  OD2       48.7210  -62.2070  -44.2740 O.co2 392  ASP392     -0.2456
    146  N         47.0170  -58.2770  -45.6970 N.am  393  ARG393     -0.1977
    147  CA        46.5660  -57.8180  -46.9750 C.3   393  ARG393      0.1597
    148  C         46.1440  -58.9450  -47.9180 C.2   393  ARG393      0.2287
    149  O         45.4690  -58.6760  -48.9010 O.2   393  ARG393     -0.2864
    150  CB        47.5820  -56.9050  -47.6430 C.3   393  ARG393      0.0334
    151  CG        47.4410  -55.4510  -47.1870 C.3   393  ARG393      0.0492
    152  CD        47.9640  -54.5110  -48.2630 C.3   393  ARG393      0.2205
    153  NE        48.9420  -53.5600  -47.7330 N.pl3 393  ARG393     -0.0865
    154  CZ        49.8410  -52.9010  -48.4700 C.cat 393  ARG393      0.5346
    155  NH1       49.9120  -53.0500  -49.7910 N.pl3 393  ARG393      0.1354
    156  NH2       50.6930  -52.0790  -47.8820 N.pl3 393  ARG393      0.1354
    157  N         42.4320  -59.9190  -46.8760 N.3   396  TYR396     -0.1227
    158  CA        41.5180  -58.8200  -47.1760 C.3   396  TYR396      0.1736
    159  C         41.5610  -58.4660  -48.6750 C.2   396  TYR396      0.2595
    160  O         40.8280  -59.0050  -49.4810 O.2   396  TYR396     -0.2718
    161  CB        41.8640  -57.5760  -46.3290 C.3   396  TYR396      0.0548
    162  CG        41.3930  -57.6580  -44.9060 C.ar  396  TYR396     -0.0200
    163  CD1       42.1690  -58.2470  -43.9210 C.ar  396  TYR396     -0.0009
    164  CD2       40.1760  -57.1550  -44.5270 C.ar  396  TYR396     -0.0009
    165  CE1       41.7390  -58.3250  -42.6050 C.ar  396  TYR396      0.0417
    166  CE2       39.7450  -57.2280  -43.2030 C.ar  396  TYR396      0.0417
    167  CZ        40.5360  -57.8270  -42.2610 C.ar  396  TYR396      0.1957
    168  OH        40.1620  -57.9160  -40.9540 O.3   396  TYR396     -0.2866
    169  N         42.4730  -57.5990  -49.0540 N.am  397  ASP397     -0.1974
    170  CA        42.4450  -57.0120  -50.3790 C.3   397  ASP397      0.1709
    171  C         42.7060  -57.9590  -51.5580 C.2   397  ASP397      0.2293
    172  O         42.0240  -57.8610  -52.5910 O.2   397  ASP397     -0.2864
    173  CB        43.4210  -55.8340  -50.3970 C.3   397  ASP397      0.1436
    174  CG        43.2020  -54.8750  -49.2250 C.2   397  ASP397      0.3671
    175  OD1       42.2810  -54.0680  -49.3030 O.co2 397  ASP397     -0.2456
    176  OD2       43.8950  -54.9740  -48.1990 O.co2 397  ASP397     -0.2456
@<TRIPOS>BOND
     1   115   116    1
     2   116   117    1
     3   116   119    1
     4   117   118    2
     5   172   171    2
     6   119   120    1
     7   171   170    1
     8   120   121   ar
     9   120   122   ar
    10   173   170    1
    11   173   174    1
    12   170   169    1
    13   121   123   ar
    14   155   154    1
    15   122   124   ar
    16   160   159    2
    17   108   109    2
    18   108   107    1
    19   175   174   ar
    20   174   176   ar
    21   169   159   am
    22   106   107    1
    23   123   125   ar
    24   149   148    2
    25   159   158    1
    26   154   156    1
    27   154   153    2
    28   107   110    1
    29   124   125   ar
    30   152   153    1
    31   152   151    1
    32   110   111    2
    33   125   126    1
    34   148   147    1
    35   150   151    1
    36   150   147    1
    37   111   112    1
    38   158   157    1
    39   158   161    1
    40   147   146    1
    41   100    99    2
    42   112   113   ar
    43   112   114   ar
    44    99    98    1
    45   161   162    1
    46   146   140   am
    47   141   140    2
    48   144   143   ar
    49    98    97    1
    50    98   101    1
    51   162   164   ar
    52   162   163   ar
    53   140   139    1
    54    68    69    1
    55    74    76   ar
    56    74    73   ar
    57    69    72    1
    58    69    70    1
    59   164   166   ar
    60   143   145   ar
    61   143   142    1
    62   101   102    1
    63    76    77   ar
    64    72    73    1
    65   163   165   ar
    66    73    75   ar
    67    61    62    1
    68    71    70    2
    69   142   139    1
    70   139   138    1
    71    70    78   am
    72    87    88    1
    73   166   167   ar
    74    77    75   ar
    75   102   103    1
    76   138   129   am
    77    62    63    1
    78    62    65    1
    79   104   103   ar
    80   165   167   ar
    81    95    93   ar
    82    95    96   ar
    83    88    89    1
    84    88    91    1
    85    78    79    1
    86    63    64    2
    87   167   168    1
    88    93    92   ar
    89    96    94   ar
    90   103   105   ar
    91    89    90    2
    92    66    65    1
    93    92    94   ar
    94    92    91    1
    95   129   130    2
    96   129   128    1
    97    80    79    1
    98    80    81    2
    99    65    67    1
   100    79    82    1
   101   128   127    1
   102   128   131    1
   103    85    84   ar
   104    82    83    1
   105   131   132    1
   106    83    84    1
   107    84    86   ar
   108   134   132   ar
   109   134   136   ar
   110   132   133   ar
   111   136   137   ar
   112    49    47   ar
   113   133   135   ar
   114    47    46    1
   115    47    48   ar
   116    45    46    1
   117    45    42    1
   118   137   135   ar
   119    18    16   ar
   120    32    29    1
   121    25    24    1
   122    25    26    1
   123    42    41    1
   124    42    43    1
   125    17    16   ar
   126    16    15    1
   127    28    26   am
   128    28    29    1
   129    44    43    2
   130    31    30    2
   131    24    21   am
   132    26    27    2
   133    41    35   am
   134    29    30    1
   135    30    33   am
   136    35    34    1
   137    35    36    2
   138    33    34    1
   139    15    14    1
   140    23    20    1
   141    34    37    1
   142    21    20    1
   143    21    22    2
   144    56    55    1
   145    56    57    1
   146    40    39    1
   147    20    19    1
   148    39    38    1
   149    55    54    1
   150    53    52    2
   151    57    58    2
   152    60    58    1
   153    14    11    1
   154    58    59    1
   155    37    38    1
   156    50    51    1
   157    52    51    1
   158    54    51    1
   159    11    12    1
   160    11    10    1
   161    12    13    2
   162     9     7   am
   163     8     7    2
   164     7     6    1
   165     6     5    1
   166     5     2    1
   167     2     3    1
   168     2     1    1
   169     3     4    2
