@<TRIPOS>MOLECULE
tmp/4wz9A00.pdb
 167 159 0 0 0
SMALL
GASTEIGER

@<TRIPOS>ATOM
      1  N         18.0370  -19.9230  -18.9970 N.3   143  GLU143     -0.1245
      2  CA        18.6320  -18.5800  -19.0050 C.3   143  GLU143      0.1567
      3  C         20.0880  -18.6940  -19.4320 C.2   143  GLU143      0.2260
      4  O         20.7500  -19.6720  -19.1180 O.2   143  GLU143     -0.2867
      5  CB        18.5150  -17.7660  -17.6960 C.3   143  GLU143      0.0388
      6  CG        18.9850  -16.3000  -17.8270 C.3   143  GLU143      0.1160
      7  CD        18.6460  -15.3590  -16.6620 C.2   143  GLU143      0.3649
      8  OE1       18.8320  -15.8000  -15.5050 O.co2 143  GLU143     -0.2457
      9  OE2       18.2450  -14.1650  -16.8780 O.co2 143  GLU143     -0.2457
     10  N         22.7070  -25.8470  -11.0580 N.3   272  ALA272     -0.1231
     11  CA        23.9390  -25.0590  -11.2550 C.3   272  ALA272      0.1694
     12  C         23.9920  -23.6950  -10.5660 C.2   272  ALA272      0.2592
     13  O         24.9240  -23.4210   -9.8370 O.2   272  ALA272     -0.2718
     14  CB        24.1890  -24.8680  -12.7440 C.3   272  ALA272      0.0304
     15  N         23.0290  -22.8190  -10.8130 N.am  273  ALA273     -0.1966
     16  CA        22.9410  -21.5600  -10.0690 C.3   273  ALA273      0.1728
     17  C         22.3620  -21.7670   -8.6850 C.2   273  ALA273      0.2617
     18  O         22.2210  -22.8830   -8.2070 O.2   273  ALA273     -0.2715
     19  CB        22.0810  -20.5550  -10.8180 C.3   273  ALA273      0.0334
     20  N         22.0460  -20.6610   -8.0300 N.am  274  GLY274     -0.1940
     21  CA        21.2770  -20.6680   -6.7740 C.3   274  GLY274      0.2014
     22  C         19.7970  -20.8620   -7.0460 C.2   274  GLY274      0.2639
     23  O         19.1630  -21.6730   -6.3790 O.2   274  GLY274     -0.2714
     24  N         19.2830  -20.1680   -8.0660 N.am  275  ALA275     -0.1963
     25  CA        17.8630  -20.2290   -8.4230 C.3   275  ALA275      0.1728
     26  C         17.6010  -19.5940   -9.7730 C.2   275  ALA275      0.2616
     27  O         18.4660  -18.9170  -10.3040 O.2   275  ALA275     -0.2715
     28  CB        17.0340  -19.5560   -7.3690 C.3   275  ALA275      0.0334
     29  N         16.4430  -19.8710  -10.3580 N.am  276  MET276     -0.1963
     30  CA        16.0600  -19.3050  -11.6760 C.3   276  MET276      0.1736
     31  C         14.5770  -18.8550  -11.7040 C.2   276  MET276      0.2616
     32  O         13.6540  -19.6290  -11.4310 O.2   276  MET276     -0.2715
     33  CB        16.3940  -20.2810  -12.8320 C.3   276  MET276      0.0427
     34  CG        15.9130  -19.8500  -14.2160 C.3   276  MET276      0.0599
     35  SD        16.5060  -18.2840  -14.8680 S.3   276  MET276     -0.1393
     36  CE        18.1190  -18.1730  -14.1190 C.3   276  MET276      0.0692
     37  N         14.3760  -17.6070  -12.1000 N.am  277  GLU277     -0.1977
     38  CA        13.0840  -16.8960  -11.9680 C.3   277  GLU277      0.1602
     39  C         11.9940  -17.2190  -12.9990 C.2   277  GLU277      0.2287
     40  O         11.1230  -16.3840  -13.2560 O.2   277  GLU277     -0.2864
     41  CB        13.3410  -15.3860  -12.0650 C.3   277  GLU277      0.0415
     42  CG        13.7480  -14.9340  -13.4780 C.3   277  GLU277      0.1163
     43  CD        15.2510  -14.8160  -13.7120 C.2   277  GLU277      0.3649
     44  OE1       16.0350  -15.5240  -13.0360 O.co2 277  GLU277     -0.2457
     45  OE2       15.6320  -13.9860  -14.5660 O.co2 277  GLU277     -0.2457
     46  N         18.1330  -24.3930   -6.1130 N.3   285  ARG285     -0.1245
     47  CA        18.8940  -25.4860   -5.5530 C.3   285  ARG285      0.1563
     48  C         18.3560  -25.6190   -4.1150 C.2   285  ARG285      0.2260
     49  O         17.8610  -24.6470   -3.5200 O.2   285  ARG285     -0.2867
     50  CB        20.4010  -25.2260   -5.6280 C.3   285  ARG285      0.0307
     51  CG        20.9700  -24.3920   -4.4950 C.3   285  ARG285      0.0489
     52  CD        22.3490  -23.8930   -4.8440 C.3   285  ARG285      0.2205
     53  NE        23.2100  -25.0520   -5.0160 N.pl3 285  ARG285     -0.0865
     54  CZ        24.1190  -25.2150   -5.9810 C.cat 285  ARG285      0.5346
     55  NH1       24.8020  -26.3460   -6.0250 N.pl3 285  ARG285      0.1354
     56  NH2       24.3380  -24.2980   -6.9080 N.pl3 285  ARG285      0.1354
     57  N         19.6530  -25.8000   -1.1570 N.3   287  GLN287     -0.1231
     58  CA        20.1930  -24.9040   -0.1030 C.3   287  GLN287      0.1698
     59  C         19.6230  -23.5100   -0.1920 C.2   287  GLN287      0.2592
     60  O         19.8080  -22.7240    0.7220 O.2   287  GLN287     -0.2718
     61  CB        21.7130  -24.7880   -0.1640 C.3   287  GLN287      0.0381
     62  CG        22.4420  -26.1180   -0.0360 C.3   287  GLN287      0.0905
     63  CD        22.7270  -26.7920   -1.3960 C.2   287  GLN287      0.2608
     64  OE1       21.8940  -26.8210   -2.3180 O.2   287  GLN287     -0.2717
     65  NE2       23.9030  -27.3230   -1.5070 N.am  287  GLN287     -0.0878
     66  N         18.9560  -23.1890   -1.2990 N.am  288  ALA288     -0.1980
     67  CA        18.3990  -21.8490   -1.4500 C.3   288  ALA288      0.1597
     68  C         16.9160  -21.7880   -1.1220 C.2   288  ALA288      0.2287
     69  O         16.2960  -20.7440   -1.2530 O.2   288  ALA288     -0.2864
     70  CB        18.6530  -21.3260   -2.8540 C.3   288  ALA288      0.0319
     71  N         19.7850  -17.0440    3.5100 N.3   303  ASN303     -0.1240
     72  CA        19.9910  -17.3620    2.1010 C.3   303  ASN303      0.1653
     73  C         18.7070  -17.7240    1.4110 C.2   303  ASN303      0.2266
     74  O         18.5040  -17.2940    0.2610 O.2   303  ASN303     -0.2867
     75  CB        21.0380  -18.4720    1.8950 C.3   303  ASN303      0.1155
     76  CG        22.4140  -18.0650    2.4070 C.2   303  ASN303      0.2627
     77  OD1       22.7890  -16.8640    2.3990 O.2   303  ASN303     -0.2716
     78  ND2       23.1790  -19.0560    2.8870 N.am  303  ASN303     -0.0877
     79  N         16.9650  -15.1890   -1.4500 N.3   307  THR307     -0.1218
     80  CA        16.8980  -15.7750   -2.7720 C.3   307  THR307      0.1862
     81  C         15.4910  -15.7100   -3.2900 C.2   307  THR307      0.2287
     82  O         15.2790  -15.4220   -4.4550 O.2   307  THR307     -0.2866
     83  CB        17.3540  -17.2420   -2.7670 C.3   307  THR307      0.1770
     84  OG1       18.6640  -17.3400   -2.2240 O.3   307  THR307     -0.2211
     85  CG2       17.3780  -17.7670   -4.1500 C.3   307  THR307      0.0375
     86  N         14.8310  -12.2950   -4.2300 N.3   310  HIS310     -0.1226
     87  CA        15.5300  -12.0060   -5.4700 C.3   310  HIS310      0.1752
     88  C         14.6690  -12.4570   -6.6380 C.2   310  HIS310      0.2595
     89  O         14.3720  -11.6900   -7.5390 O.2   310  HIS310     -0.2718
     90  CB        16.8730  -12.7480   -5.4600 C.3   310  HIS310      0.0759
     91  CG        17.7060  -12.5510   -6.6880 C.ar  310  HIS310      0.0818
     92  ND1       18.7810  -11.6910   -6.6950 N.ar  310  HIS310     -0.2268
     93  CD2       17.6330  -13.0800   -7.9380 C.ar  310  HIS310      0.1154
     94  CE1       19.3310  -11.6830   -7.9050 C.ar  310  HIS310      0.1986
     95  NE2       18.6530  -12.5100   -8.6820 N.ar  310  HIS310     -0.2212
     96  N         14.2770  -13.7230   -6.6320 N.am  311  GLU311     -0.1979
     97  CA        13.6090  -14.3190   -7.8040 C.3   311  GLU311      0.1602
     98  C         12.1630  -13.8020   -7.9890 C.2   311  GLU311      0.2287
     99  O         11.6750  -13.7030   -9.1100 O.2   311  GLU311     -0.2864
    100  CB        13.6320  -15.8410   -7.7160 C.3   311  GLU311      0.0415
    101  CG        14.9990  -16.4740   -7.4410 C.3   311  GLU311      0.1163
    102  CD        16.0720  -16.1550   -8.4780 C.2   311  GLU311      0.3649
    103  OE1       17.2610  -16.0330   -8.1140 O.co2 311  GLU311     -0.2457
    104  OE2       15.7450  -16.0330   -9.6620 O.co2 311  GLU311     -0.2457
    105  N         12.1980  -10.6090   -9.8940 N.3   314  HIS314     -0.1241
    106  CA        12.2860  -10.8900  -11.3450 C.3   314  HIS314      0.1621
    107  C         10.9340  -11.0590  -12.0600 C.2   314  HIS314      0.2264
    108  O         10.8570  -10.8530  -13.2690 O.2   314  HIS314     -0.2867
    109  CB        13.1230  -12.1700  -11.6200 C.3   314  HIS314      0.0745
    110  CG        14.6000  -11.9460  -11.6210 C.ar  314  HIS314      0.0817
    111  ND1       15.1980  -10.9730  -12.3830 N.ar  314  HIS314     -0.2268
    112  CD2       15.5920  -12.5220  -10.9030 C.ar  314  HIS314      0.1154
    113  CE1       16.4980  -10.9700  -12.1490 C.ar  314  HIS314      0.1986
    114  NE2       16.7640  -11.9080  -11.2660 N.ar  314  HIS314     -0.2212
    115  N         19.1250   -8.0430  -13.2510 N.3   333  GLU333     -0.1245
    116  CA        19.8870   -8.4820  -12.0900 C.3   333  GLU333      0.1567
    117  C         20.2340   -7.3600  -11.0980 C.2   333  GLU333      0.2260
    118  O         20.4980   -7.6280   -9.9220 O.2   333  GLU333     -0.2867
    119  CB        21.1390   -9.2690  -12.5170 C.3   333  GLU333      0.0388
    120  CG        20.9110  -10.4200  -13.5120 C.3   333  GLU333      0.1160
    121  CD        20.0100  -11.4940  -12.9890 C.2   333  GLU333      0.3649
    122  OE1       19.6900  -11.4450  -11.7810 O.co2 333  GLU333     -0.2457
    123  OE2       19.5840  -12.3680  -13.7940 O.co2 333  GLU333     -0.2457
    124  N         16.3130   -8.0330   -3.4690 N.3   340  GLU340     -0.1245
    125  CA        16.8000   -9.1630   -2.6820 C.3   340  GLU340      0.1567
    126  C         16.7900   -8.8030   -1.2010 C.2   340  GLU340      0.2260
    127  O         16.4280   -9.6230   -0.3630 O.2   340  GLU340     -0.2867
    128  CB        18.2210   -9.5210   -3.1510 C.3   340  GLU340      0.0388
    129  CG        18.8760  -10.7270   -2.4840 C.3   340  GLU340      0.1160
    130  CD        20.1220  -11.1910   -3.2180 C.2   340  GLU340      0.3649
    131  OE1       20.1590  -11.0440   -4.4570 O.co2 340  GLU340     -0.2457
    132  OE2       21.0520  -11.7230   -2.5700 O.co2 340  GLU340     -0.2457
    133  N         30.9750   -5.2970   -0.9460 N.3   364  TYR364     -0.1241
    134  CA        31.2490   -6.3810   -1.8540 C.3   364  TYR364      0.1605
    135  C         31.3880   -5.9410   -3.3020 C.2   364  TYR364      0.2264
    136  O         32.3090   -6.3660   -3.9740 O.2   364  TYR364     -0.2867
    137  CB        30.1670   -7.4130   -1.7410 C.3   364  TYR364      0.0534
    138  CG        30.3870   -8.6840   -2.5100 C.ar  364  TYR364     -0.0201
    139  CD1       31.4630   -9.5000   -2.2580 C.ar  364  TYR364     -0.0009
    140  CD2       29.4410   -9.1110   -3.4330 C.ar  364  TYR364     -0.0009
    141  CE1       31.6410  -10.6830   -2.9540 C.ar  364  TYR364      0.0417
    142  CE2       29.5840  -10.3120   -4.1130 C.ar  364  TYR364      0.0417
    143  CZ        30.6940  -11.0920   -3.8710 C.ar  364  TYR364      0.1957
    144  OH        30.8450  -12.2650   -4.5410 O.3   364  TYR364     -0.2866
    145  N         26.9950  -12.3370  -16.4110 N.3   391  PHE391     -0.1241
    146  CA        26.3140  -12.5730  -15.1650 C.3   391  PHE391      0.1605
    147  C         27.3120  -12.5700  -14.0450 C.2   391  PHE391      0.2264
    148  O         27.5790  -13.5830  -13.4440 O.2   391  PHE391     -0.2867
    149  CB        25.5570  -13.8970  -15.1860 C.3   391  PHE391      0.0534
    150  CG        24.2840  -13.8660  -15.9980 C.ar  391  PHE391     -0.0203
    151  CD1       24.3270  -13.9340  -17.3770 C.ar  391  PHE391     -0.0042
    152  CD2       23.0210  -13.7800  -15.3620 C.ar  391  PHE391     -0.0042
    153  CE1       23.1490  -13.9260  -18.1160 C.ar  391  PHE391     -0.0003
    154  CE2       21.8410  -13.7700  -16.0940 C.ar  391  PHE391     -0.0003
    155  CZ        21.9100  -13.8530  -17.4710 C.ar  391  PHE391     -0.0000
    156  N         25.1190   -7.6990  -11.0810 N.3   396  TYR396     -0.1241
    157  CA        24.4120   -7.9360   -9.8290 C.3   396  TYR396      0.1605
    158  C         24.6890   -6.7950   -8.8390 C.2   396  TYR396      0.2264
    159  O         23.9970   -5.8050   -8.8100 O.2   396  TYR396     -0.2867
    160  CB        24.8340   -9.2940   -9.2180 C.3   396  TYR396      0.0534
    161  CG        24.2600  -10.4960   -9.9270 C.ar  396  TYR396     -0.0201
    162  CD1       23.0130  -10.9730   -9.5850 C.ar  396  TYR396     -0.0009
    163  CD2       24.9520  -11.1770  -10.9160 C.ar  396  TYR396     -0.0009
    164  CE1       22.4590  -12.0580  -10.2140 C.ar  396  TYR396      0.0417
    165  CE2       24.3880  -12.2670  -11.5570 C.ar  396  TYR396      0.0417
    166  CZ        23.1350  -12.6810  -11.1930 C.ar  396  TYR396      0.1957
    167  OH        22.5220  -13.7410  -11.7890 O.3   396  TYR396     -0.2866
@<TRIPOS>BOND
     1     3     4    2
     2     3     2    1
     3     2     1    1
     4     2     5    1
     5   153   155   ar
     6   153   151   ar
     7     6     5    1
     8     6     7    1
     9   155   154   ar
    10   151   150   ar
    11     9     7   ar
    12     7     8   ar
    13   145   146    1
    14   154   152   ar
    15   150   152   ar
    16   150   149    1
    17   149   146    1
    18   146   147    1
    19    35    34    1
    20    35    36    1
    21    45    43   ar
    22    34    33    1
    23   147   148    2
    24   123   121   ar
    25    43    42    1
    26    43    44   ar
    27   120   121    1
    28   120   119    1
    29    42    41    1
    30   108   107    2
    31    40    39    2
    32   115   116    1
    33    39    38    1
    34   121   122   ar
    35    33    30    1
    36    14    11    1
    37   119   116    1
    38   111   113   ar
    39   111   110   ar
    40   113   114   ar
    41    37    38    1
    42    37    31   am
    43   116   117    1
    44    41    38    1
    45   107   106    1
    46   167   166    1
    47    31    30    1
    48    31    32    2
    49    30    29    1
    50   110   109    1
    51   110   112   ar
    52   109   106    1
    53   165   166   ar
    54   165   163   ar
    55   106   105    1
    56   114   112   ar
    57    11    10    1
    58    11    12    1
    59   166   164   ar
    60   117   118    2
    61   156   157    1
    62   163   161   ar
    63    19    16    1
    64    15    12   am
    65    15    16    1
    66    12    13    2
    67    29    26   am
    68    27    26    2
    69   164   162   ar
    70    16    17    1
    71   161   162   ar
    72   161   160    1
    73   157   160    1
    74   157   158    1
    75    26    25    1
    76   104   102   ar
    77    99    98    2
    78   158   159    2
    79    17    18    2
    80    17    20   am
    81    95    93   ar
    82    95    94   ar
    83   102   103   ar
    84   102   101    1
    85    25    24    1
    86    25    28    1
    87    24    22   am
    88    20    21    1
    89    98    97    1
    90    93    91   ar
    91    94    92   ar
    92    97   100    1
    93    97    96    1
    94   100   101    1
    95    89    88    2
    96    22    21    1
    97    22    23    2
    98    56    54    1
    99    92    91   ar
   100    91    90    1
   101    88    96   am
   102    88    87    1
   103    46    47    1
   104    55    54    1
   105    54    53    2
   106    50    47    1
   107    50    51    1
   108    47    48    1
   109    87    90    1
   110    87    86    1
   111    53    52    1
   112    52    51    1
   113   144   143    1
   114   131   130   ar
   115    82    81    2
   116    85    83    1
   117    48    49    2
   118   142   143   ar
   119   142   140   ar
   120   136   135    2
   121   143   141   ar
   122   124   125    1
   123   140   138   ar
   124   135   134    1
   125    81    80    1
   126   130   132   ar
   127   130   129    1
   128   128   125    1
   129   128   129    1
   130   141   139   ar
   131    70    67    1
   132    80    83    1
   133    80    79    1
   134    83    84    1
   135   125   126    1
   136   138   139   ar
   137   138   137    1
   138    64    63    2
   139   134   137    1
   140   134   133    1
   141    65    63   am
   142    67    66    1
   143    67    68    1
   144    63    62    1
   145    66    59   am
   146    69    68    2
   147   126   127    2
   148    57    58    1
   149    59    58    1
   150    59    60    2
   151    61    58    1
   152    61    62    1
   153    74    73    2
   154    73    72    1
   155    75    72    1
   156    75    76    1
   157    72    71    1
   158    77    76    2
   159    76    78   am
