@<TRIPOS>MOLECULE
tmp/4wz9A01.pdb
 87 84 0 0 0
SMALL
GASTEIGER

@<TRIPOS>ATOM
      1  N         17.3790  -38.1450   -7.0150 N.3   127  TYR127     -0.1241
      2  CA        17.5430  -38.1690   -5.5520 C.3   127  TYR127      0.1605
      3  C         17.3620  -39.5710   -5.0890 C.2   127  TYR127      0.2264
      4  O         16.8920  -40.4440   -5.8440 O.2   127  TYR127     -0.2867
      5  CB        16.5400  -37.2380   -4.8600 C.3   127  TYR127      0.0534
      6  CG        15.0880  -37.6690   -4.9540 C.ar  127  TYR127     -0.0201
      7  CD1       14.2990  -37.3170   -6.0440 C.ar  127  TYR127     -0.0009
      8  CD2       14.4990  -38.4340   -3.9570 C.ar  127  TYR127     -0.0009
      9  CE1       12.9850  -37.7480   -6.1630 C.ar  127  TYR127      0.0417
     10  CE2       13.1820  -38.8400   -4.0690 C.ar  127  TYR127      0.0417
     11  CZ        12.4330  -38.4810   -5.1690 C.ar  127  TYR127      0.1957
     12  OH        11.1250  -38.8770   -5.2750 O.3   127  TYR127     -0.2866
     13  N         15.4870  -41.9400   -2.4000 N.3   129  ALA129     -0.1231
     14  CA        14.3500  -42.0540   -1.5060 C.3   129  ALA129      0.1694
     15  C         14.7860  -42.5700   -0.1350 C.2   129  ALA129      0.2592
     16  O         15.9480  -42.9740    0.0380 O.2   129  ALA129     -0.2718
     17  CB        13.3120  -42.9840   -2.1140 C.3   129  ALA129      0.0304
     18  N         13.8550  -42.5780    0.8300 N.am  130  ASP130     -0.1960
     19  CA        14.1670  -43.0980    2.1710 C.3   130  ASP130      0.1840
     20  C         14.5350  -44.6000    2.1450 C.2   130  ASP130      0.2622
     21  O         15.3170  -45.0420    2.9660 O.2   130  ASP130     -0.2715
     22  CB        13.0680  -42.8290    3.1910 C.3   130  ASP130      0.1450
     23  CG        13.0230  -41.3470    3.6700 C.2   130  ASP130      0.3671
     24  OD1       13.9530  -40.5440    3.4240 O.co2 130  ASP130     -0.2456
     25  OD2       12.0240  -40.9910    4.3410 O.co2 130  ASP130     -0.2456
     26  N         14.0710  -45.3530    1.1540 N.am  131  ASN131     -0.1972
     27  CA        14.3580  -46.8000    1.0750 C.3   131  ASN131      0.1688
     28  C         15.6230  -47.1250    0.3330 C.2   131  ASN131      0.2292
     29  O         15.7980  -48.2620   -0.0780 O.2   131  ASN131     -0.2864
     30  CB        13.2190  -47.5640    0.3460 C.3   131  ASN131      0.1181
     31  CG        13.0910  -47.1950   -1.1420 C.2   131  ASN131      0.2629
     32  OD1       13.8730  -46.4170   -1.6750 O.2   131  ASN131     -0.2716
     33  ND2       12.0710  -47.7300   -1.8050 N.am  131  ASN131     -0.0877
     34  N         15.6620  -42.0630   -7.6750 N.3   135  ARG135     -0.1245
     35  CA        14.5150  -41.6740   -8.4780 C.3   135  ARG135      0.1563
     36  C         14.9320  -40.5190   -9.3620 C.2   135  ARG135      0.2260
     37  O         15.6700  -39.6270   -8.9190 O.2   135  ARG135     -0.2867
     38  CB        13.3680  -41.2620   -7.5600 C.3   135  ARG135      0.0307
     39  CG        13.0010  -42.3020   -6.5000 C.3   135  ARG135      0.0489
     40  CD        11.5210  -42.5220   -6.4700 C.3   135  ARG135      0.2205
     41  NE        11.0080  -43.2120   -5.2820 N.pl3 135  ARG135     -0.0865
     42  CZ        10.3370  -42.6390   -4.2580 C.cat 135  ARG135      0.5346
     43  NH1       10.0770  -41.3300   -4.2090 N.pl3 135  ARG135      0.1354
     44  NH2        9.8960  -43.4060   -3.2600 N.pl3 135  ARG135      0.1354
     45  N          6.3300  -33.6040   -4.2500 N.3   215  GLN215     -0.1245
     46  CA         5.1290  -33.1600   -3.5130 C.3   215  GLN215      0.1566
     47  C          5.0940  -31.6920   -3.3040 C.2   215  GLN215      0.2260
     48  O          6.0670  -31.0240   -3.5590 O.2   215  GLN215     -0.2867
     49  CB         5.0930  -33.8200   -2.1680 C.3   215  GLN215      0.0367
     50  CG         5.1380  -35.2970   -2.3760 C.3   215  GLN215      0.0905
     51  CD         4.7560  -36.0110   -1.1630 C.2   215  GLN215      0.2608
     52  OE1        5.5230  -36.0980   -0.1890 O.2   215  GLN215     -0.2717
     53  NE2        3.5490  -36.5260   -1.1750 N.am  215  GLN215     -0.0878
     54  N          9.7920  -36.0040   -1.9520 N.3   228  PRO228     -0.2102
     55  CA         8.9550  -36.4010   -0.8580 C.3   228  PRO228      0.1504
     56  C          9.6650  -36.4270    0.4970 C.2   228  PRO228      0.2575
     57  O          9.0440  -36.0470    1.5040 O.2   228  PRO228     -0.2718
     58  CB         8.4980  -37.8060   -1.2550 C.3   228  PRO228      0.0282
     59  CG         8.4720  -37.7430   -2.7330 C.3   228  PRO228      0.0208
     60  CD         9.6660  -36.9040   -3.0940 C.3   228  PRO228      0.0893
     61  N         10.9200  -36.8660    0.5490 N.am  229  ASN229     -0.1975
     62  CA        11.6200  -36.8560    1.8180 C.3   229  ASN229      0.1688
     63  C         12.2190  -35.5170    2.2350 C.2   229  ASN229      0.2292
     64  O         13.0070  -35.4960    3.1600 O.2   229  ASN229     -0.2864
     65  CB        12.6470  -38.0130    1.9670 C.3   229  ASN229      0.1181
     66  CG        13.7030  -38.0900    0.8590 C.2   229  ASN229      0.2629
     67  OD1       13.7670  -37.2500   -0.0240 O.2   229  ASN229     -0.2716
     68  ND2       14.4920  -39.1770    0.8760 N.am  229  ASN229     -0.0877
     69  N          9.8000  -32.8940    2.5120 N.3   231  PHE231     -0.1227
     70  CA         8.5160  -32.2640    2.7500 C.3   231  PHE231      0.1736
     71  C          8.4900  -31.3570    3.9920 C.2   231  PHE231      0.2595
     72  O          7.8850  -30.2910    3.9480 O.2   231  PHE231     -0.2718
     73  CB         7.4570  -33.3610    2.8540 C.3   231  PHE231      0.0547
     74  CG         6.0630  -32.8340    2.9870 C.ar  231  PHE231     -0.0202
     75  CD1        5.4140  -32.3070    1.9080 C.ar  231  PHE231     -0.0042
     76  CD2        5.4100  -32.8750    4.2320 C.ar  231  PHE231     -0.0042
     77  CE1        4.1360  -31.8440    2.0190 C.ar  231  PHE231     -0.0003
     78  CE2        4.1450  -32.3920    4.3580 C.ar  231  PHE231     -0.0003
     79  CZ         3.5080  -31.8740    3.2430 C.ar  231  PHE231     -0.0000
     80  N          9.1170  -31.7990    5.0800 N.am  232  ASN232     -0.1974
     81  CA         9.1340  -31.0240    6.3250 C.3   232  ASN232      0.1688
     82  C         10.0060  -29.8110    6.3050 C.2   232  ASN232      0.2292
     83  O          9.9940  -29.0660    7.2540 O.2   232  ASN232     -0.2864
     84  CB         9.5820  -31.8630    7.4860 C.3   232  ASN232      0.1181
     85  CG         8.6410  -33.0220    7.7520 C.2   232  ASN232      0.2629
     86  OD1        7.4070  -32.8940    7.6360 O.2   232  ASN232     -0.2716
     87  ND2        9.2150  -34.1660    8.1260 N.am  232  ASN232     -0.0877
@<TRIPOS>BOND
     1    36    37    2
     2    36    35    1
     3    35    34    1
     4    35    38    1
     5    38    39    1
     6     1     2    1
     7    39    40    1
     8    40    41    1
     9     9     7   ar
    10     9    11   ar
    11     7     6   ar
    12     4     3    2
    13     2     3    1
    14     2     5    1
    15    41    42    2
    16    12    11    1
    17    11    10   ar
    18     6     5    1
    19     6     8   ar
    20    42    43    1
    21    42    44    1
    22    45    46    1
    23    10     8   ar
    24    48    47    2
    25    46    47    1
    26    46    49    1
    27    60    59    1
    28    60    54    1
    29    59    58    1
    30    13    14    1
    31    50    49    1
    32    50    51    1
    33    17    14    1
    34    54    55    1
    35    33    31   am
    36    32    31    2
    37    14    15    1
    38    58    55    1
    39    53    51   am
    40    51    52    2
    41    31    30    1
    42    55    56    1
    43    15    16    2
    44    15    18   am
    45    29    28    2
    46    67    66    2
    47    28    27    1
    48    30    27    1
    49    56    61   am
    50    56    57    2
    51    61    62    1
    52    18    19    1
    53    66    68   am
    54    66    65    1
    55    27    26    1
    56    26    20   am
    57    62    65    1
    58    62    63    1
    59    75    77   ar
    60    75    74   ar
    61    77    79   ar
    62    20    19    1
    63    20    21    2
    64    19    22    1
    65    63    64    2
    66    69    70    1
    67    70    73    1
    68    70    71    1
    69    73    74    1
    70    74    76   ar
    71    22    23    1
    72    79    78   ar
    73    24    23   ar
    74    23    25   ar
    75    72    71    2
    76    71    80   am
    77    76    78   ar
    78    80    81    1
    79    82    81    1
    80    82    83    2
    81    81    84    1
    82    84    85    1
    83    86    85    2
    84    85    87   am
