@<TRIPOS>MOLECULE
tmp/4wzaF00.pdb
 194 185 0 0 0
SMALL
GASTEIGER

@<TRIPOS>ATOM
      1  N        -58.7610  -38.5070   38.7510 N.3    11  GLY11      -0.1210
      2  CA       -59.2640  -37.6200   37.7210 C.3    11  GLY11       0.1956
      3  C        -60.7800  -37.6810   37.6030 C.2    11  GLY11       0.2612
      4  O        -61.3620  -38.7610   37.5340 O.2    11  GLY11      -0.2717
      5  N        -61.4240  -36.5210   37.6190 N.am   12  GLY12      -0.1942
      6  CA       -62.8710  -36.4560   37.5000 C.3    12  GLY12       0.2014
      7  C        -63.6810  -36.7200   38.7610 C.2    12  GLY12       0.2639
      8  O        -64.9080  -36.7300   38.7160 O.2    12  GLY12      -0.2714
      9  N        -63.0140  -36.8940   39.8960 N.am   13  ILE13      -0.1963
     10  CA       -63.7090  -37.3130   41.1160 C.3    13  ILE13       0.1727
     11  C        -64.4660  -36.1540   41.8060 C.2    13  ILE13       0.2617
     12  O        -65.3010  -36.3870   42.6800 O.2    13  ILE13      -0.2715
     13  CB       -62.7000  -37.9560   42.1170 C.3    13  ILE13       0.0290
     14  CG1      -63.4160  -38.8370   43.1510 C.3    13  ILE13       0.0022
     15  CG2      -61.8260  -36.8880   42.7740 C.3    13  ILE13       0.0023
     16  CD1      -64.1070  -40.0490   42.5600 C.3    13  ILE13       0.0001
     17  N        -64.1840  -34.9120   41.4120 N.am   14  GLY14      -0.1940
     18  CA       -64.8300  -33.7590   42.0250 C.3    14  GLY14       0.2014
     19  C        -63.9060  -32.8960   42.8880 C.2    14  GLY14       0.2639
     20  O        -64.3780  -32.1680   43.7660 O.2    14  GLY14      -0.2714
     21  N        -62.5970  -32.9650   42.6500 N.am   15  LYS15      -0.1963
     22  CA       -61.6390  -32.1940   43.4520 C.3    15  LYS15       0.1728
     23  C        -61.9480  -30.6940   43.4290 C.2    15  LYS15       0.2617
     24  O        -62.0320  -30.0560   44.4760 O.2    15  LYS15      -0.2715
     25  CB       -60.1860  -32.4010   42.9660 C.3    15  LYS15       0.0311
     26  CG       -59.5720  -33.7600   43.2890 C.3    15  LYS15       0.0038
     27  CD       -58.2050  -33.9100   42.6150 C.3    15  LYS15       0.0206
     28  CE       -58.3040  -33.7760   41.1060 C.3    15  LYS15       0.1093
     29  NZ       -59.1030  -34.8770   40.4940 N.3    15  LYS15      -0.1314
     30  N        -62.0870  -30.1270   42.2340 N.am   16  SER16      -0.1936
     31  CA       -62.1440  -28.6670   42.1030 C.3    16  SER16       0.2055
     32  C        -63.4290  -28.0790   42.6400 C.2    16  SER16       0.2644
     33  O        -63.4170  -27.0460   43.3170 O.2    16  SER16      -0.2714
     34  CB       -61.9900  -28.2490   40.6550 C.3    16  SER16       0.2130
     35  OG       -60.6310  -28.3030   40.3220 O.3    16  SER16      -0.2179
     36  N        -64.5330  -28.7270   42.2840 N.am   17  THR17      -0.1936
     37  CA       -65.8360  -28.3700   42.8100 C.3    17  THR17       0.2028
     38  C        -65.8990  -28.4900   44.3370 C.2    17  THR17       0.2642
     39  O        -66.4250  -27.6070   45.0390 O.2    17  THR17      -0.2714
     40  CB       -66.9010  -29.2480   42.1770 C.3    17  THR17       0.1808
     41  OG1      -67.0700  -28.8430   40.8100 O.3    17  THR17      -0.2208
     42  CG2      -68.1950  -29.0590   42.8940 C.3    17  THR17       0.0379
     43  N        -65.3720  -29.5900   44.8610 N.am   18  THR18      -0.1950
     44  CA       -65.4450  -29.7960   46.3000 C.3    18  THR18       0.1897
     45  C        -64.6190  -28.7200   46.9950 C.2    18  THR18       0.2313
     46  O        -65.0770  -28.0890   47.9480 O.2    18  THR18      -0.2863
     47  CB       -64.9510  -31.1890   46.7130 C.3    18  THR18       0.1794
     48  OG1      -65.7450  -32.1820   46.0470 O.3    18  THR18      -0.2208
     49  CG2      -65.0790  -31.3610   48.2350 C.3    18  THR18       0.0378
     50  N        -53.2000  -26.7420   37.9660 N.3    39  ASP39      -0.1239
     51  CA       -53.6980  -27.5440   36.8440 C.3    39  ASP39       0.1674
     52  C        -53.6640  -26.6600   35.5970 C.2    39  ASP39       0.2266
     53  O        -54.2030  -25.5500   35.6130 O.2    39  ASP39      -0.2867
     54  CB       -55.1220  -28.0500   37.1480 C.3    39  ASP39       0.1410
     55  CG       -55.7330  -28.8980   36.0210 C.2    39  ASP39       0.3668
     56  OD1      -55.3450  -28.7630   34.8350 O.co2  39  ASP39      -0.2456
     57  OD2      -56.6360  -29.7110   36.3340 O.co2  39  ASP39      -0.2456
     58  N        -55.3540  -26.4930   33.0030 N.3    41  LYS41      -0.1245
     59  CA       -56.6050  -26.0310   32.4230 C.3    41  LYS41       0.1561
     60  C        -57.1960  -24.9000   33.2640 C.2    41  LYS41       0.2260
     61  O        -58.1800  -24.2830   32.8670 O.2    41  LYS41      -0.2867
     62  CB       -57.6160  -27.1730   32.2520 C.3    41  LYS41       0.0271
     63  CG       -58.0770  -27.8850   33.5160 C.3    41  LYS41       0.0035
     64  CD       -59.2130  -28.8440   33.1740 C.3    41  LYS41       0.0206
     65  CE       -59.5180  -29.8190   34.3050 C.3    41  LYS41       0.1093
     66  NZ       -58.3380  -30.6940   34.5840 N.3    41  LYS41      -0.1314
     67  N        -58.9340  -24.2600   36.1000 N.3    43  ASP43      -0.1239
     68  CA       -60.3620  -24.2200   36.3770 C.3    43  ASP43       0.1674
     69  C        -60.6460  -24.3140   37.8690 C.2    43  ASP43       0.2266
     70  O        -61.7530  -24.6370   38.2660 O.2    43  ASP43      -0.2867
     71  CB       -61.0680  -25.3570   35.6390 C.3    43  ASP43       0.1410
     72  CG       -60.6960  -26.7250   36.1910 C.2    43  ASP43       0.3668
     73  OD1      -59.5770  -26.8800   36.7330 O.co2  43  ASP43      -0.2456
     74  OD2      -61.5220  -27.6550   36.0790 O.co2  43  ASP43      -0.2456
     75  N        -55.1060  -29.5470   42.7910 N.3   126  VAL126     -0.1231
     76  CA       -54.1620  -30.1950   41.8650 C.3   126  VAL126      0.1692
     77  C        -54.9350  -31.0590   40.8630 C.2   126  VAL126      0.2592
     78  O        -56.0780  -31.4220   41.1150 O.2   126  VAL126     -0.2718
     79  CB       -53.1120  -31.0530   42.6390 C.3   126  VAL126      0.0266
     80  CG1      -51.9530  -31.4350   41.7360 C.3   126  VAL126      0.0020
     81  CG2      -52.5840  -30.2860   43.8580 C.3   126  VAL126      0.0020
     82  N        -54.3410  -31.3760   39.7190 N.am  127  LEU127     -0.1966
     83  CA       -55.0330  -32.2520   38.7790 C.3   127  LEU127      0.1728
     84  C        -54.9390  -33.7170   39.2010 C.2   127  LEU127      0.2616
     85  O        -54.1710  -34.0740   40.1040 O.2   127  LEU127     -0.2715
     86  CB       -54.4950  -32.0800   37.3500 C.3   127  LEU127      0.0311
     87  CG       -53.0100  -32.0180   36.9970 C.3   127  LEU127      0.0022
     88  CD1      -52.1860  -33.0900   37.6760 C.3   127  LEU127      0.0001
     89  CD2      -52.8790  -32.1290   35.4830 C.3   127  LEU127      0.0001
     90  N        -55.6990  -34.5640   38.5100 N.am  128  GLY128     -0.1955
     91  CA       -55.8170  -35.9710   38.8700 C.3   128  GLY128      0.1869
     92  C        -54.6120  -36.8040   38.4650 C.2   128  GLY128      0.2309
     93  O        -54.2000  -37.7270   39.1770 O.2   128  GLY128     -0.2863
     94  N        -66.9160  -38.1540   47.9070 N.3   185  ASN185     -0.1225
     95  CA       -67.8100  -37.5480   46.9400 C.3   185  ASN185      0.1785
     96  C        -68.6300  -38.6530   46.2860 C.2   185  ASN185      0.2597
     97  O        -68.1750  -39.3040   45.3460 O.2   185  ASN185     -0.2718
     98  CB       -67.0170  -36.7630   45.8970 C.3   185  ASN185      0.1169
     99  CG       -67.8110  -35.6160   45.3100 C.2   185  ASN185      0.2627
    100  OD1      -68.8130  -35.1890   45.8830 O.2   185  ASN185     -0.2716
    101  ND2      -67.3680  -35.1070   44.1680 N.am  185  ASN185     -0.0877
    102  N        -69.8340  -38.8600   46.8080 N.am  186  SER186     -0.1952
    103  CA       -70.6550  -40.0340   46.5140 C.3   186  SER186      0.1924
    104  C        -70.9980  -40.2950   45.0440 C.2   186  SER186      0.2314
    105  O        -71.3100  -39.3840   44.2890 O.2   186  SER186     -0.2863
    106  CB       -71.9670  -39.9350   47.2930 C.3   186  SER186      0.2116
    107  OG       -72.7780  -41.0540   47.0160 O.3   186  SER186     -0.2180
    108  N        -70.0010  -36.4860   51.1930 N.3   211  VAL211     -0.1231
    109  CA       -70.6770  -35.4960   50.3580 C.3   211  VAL211      0.1678
    110  C        -71.6570  -36.1870   49.4100 C.2   211  VAL211      0.2434
    111  O        -71.2370  -36.9180   48.5230 O.2   211  VAL211     -0.2733
    112  CB       -69.6520  -34.6750   49.5240 C.3   211  VAL211      0.0265
    113  CG1      -70.3560  -33.7050   48.5810 C.3   211  VAL211      0.0020
    114  CG2      -68.6570  -33.9470   50.4420 C.3   211  VAL211      0.0020
    115  N        -72.9680  -35.9610   49.5840 N.am  212  PRO212     -0.2718
    116  CA       -73.9360  -36.6250   48.7070 C.3   212  PRO212      0.1535
    117  C        -73.8160  -36.2190   47.2440 C.2   212  PRO212      0.2598
    118  O        -73.3800  -35.1080   46.9400 O.2   212  PRO212     -0.2715
    119  CB       -75.2910  -36.1640   49.2660 C.3   212  PRO212      0.0310
    120  CG       -74.9950  -35.6940   50.6520 C.3   212  PRO212      0.0237
    121  CD       -73.6300  -35.1120   50.5870 C.3   212  PRO212      0.0939
    122  N        -74.2040  -37.1100   46.3390 N.am  213  ARG213     -0.1964
    123  CA       -74.3470  -36.7120   44.9460 C.3   213  ARG213      0.1729
    124  C        -75.6290  -35.8980   44.8110 C.2   213  ARG213      0.2616
    125  O        -76.7170  -36.3850   45.1280 O.2   213  ARG213     -0.2715
    126  CB       -74.3640  -37.9240   44.0150 C.3   213  ARG213      0.0348
    127  CG       -74.6280  -37.5530   42.5670 C.3   213  ARG213      0.0492
    128  CD       -73.7980  -38.3630   41.5870 C.3   213  ARG213      0.2205
    129  NE       -72.4200  -37.8820   41.4890 N.pl3 213  ARG213     -0.0865
    130  CZ       -71.9370  -37.1500   40.4840 C.cat 213  ARG213      0.5346
    131  NH1      -72.7170  -36.7970   39.4670 N.pl3 213  ARG213      0.1354
    132  NH2      -70.6610  -36.7780   40.4960 N.pl3 213  ARG213      0.1354
    133  N        -75.4940  -34.6490   44.3770 N.am  214  ASP214     -0.1957
    134  CA       -76.6420  -33.7520   44.2350 C.3   214  ASP214      0.1840
    135  C        -76.4380  -32.8660   43.0100 C.2   214  ASP214      0.2622
    136  O        -75.4980  -32.0780   42.9550 O.2   214  ASP214     -0.2715
    137  CB       -76.8300  -32.8930   45.4910 C.3   214  ASP214      0.1450
    138  CG       -78.1990  -32.1790   45.5300 C.2   214  ASP214      0.3671
    139  OD1      -78.6870  -31.7180   44.4680 O.co2 214  ASP214     -0.2456
    140  OD2      -78.7840  -32.0780   46.6390 O.co2 214  ASP214     -0.2456
    141  N        -77.3240  -32.9860   42.0300 N.am  215  ASN215     -0.1972
    142  CA       -77.1280  -32.2760   40.7600 C.3   215  ASN215      0.1688
    143  C        -77.2260  -30.7520   40.8430 C.2   215  ASN215      0.2292
    144  O        -76.9990  -30.0660   39.8510 O.2   215  ASN215     -0.2864
    145  CB       -78.1140  -32.8010   39.7170 C.3   215  ASN215      0.1181
    146  CG       -77.6660  -34.1250   39.1320 C.2   215  ASN215      0.2629
    147  OD1      -76.4690  -34.3740   38.9940 O.2   215  ASN215     -0.2716
    148  ND2      -78.6160  -34.9880   38.8110 N.am  215  ASN215     -0.0877
    149  N        -75.0800  -29.1800   42.4410 N.3   217  VAL217     -0.1231
    150  CA       -73.6630  -28.8810   42.3130 C.3   217  VAL217      0.1692
    151  C        -73.3150  -28.5240   40.8620 C.2   217  VAL217      0.2591
    152  O        -72.5320  -27.5970   40.5920 O.2   217  VAL217     -0.2718
    153  CB       -72.8080  -30.0850   42.7720 C.3   217  VAL217      0.0266
    154  CG1      -71.3880  -29.9420   42.2960 C.3   217  VAL217      0.0020
    155  CG2      -72.8680  -30.2460   44.2900 C.3   217  VAL217      0.0020
    156  N        -73.9100  -29.2760   39.9410 N.am  218  GLN218     -0.1979
    157  CA       -73.7050  -29.0830   38.5140 C.3   218  GLN218      0.1601
    158  C        -74.4720  -27.8760   37.9920 C.2   218  GLN218      0.2287
    159  O        -74.0200  -27.2090   37.0670 O.2   218  GLN218     -0.2864
    160  CB       -74.1200  -30.3360   37.7430 C.3   218  GLN218      0.0394
    161  CG       -73.1940  -31.5230   37.9720 C.3   218  GLN218      0.0908
    162  CD       -73.6140  -32.7460   37.1890 C.2   218  GLN218      0.2608
    163  OE1      -74.2660  -32.6360   36.1530 O.2   218  GLN218     -0.2717
    164  NE2      -73.2430  -33.9220   37.6800 N.am  218  GLN218     -0.0878
    165  N        -72.4570  -24.9410   39.0230 N.3   221  GLU221     -0.1245
    166  CA       -71.2610  -24.8920   38.1870 C.3   221  GLU221      0.1567
    167  C        -71.5520  -24.2800   36.8110 C.2   221  GLU221      0.2260
    168  O        -70.7960  -23.4380   36.3390 O.2   221  GLU221     -0.2867
    169  CB       -70.6480  -26.2880   38.0150 C.3   221  GLU221      0.0388
    170  CG       -69.4280  -26.2840   37.0860 C.3   221  GLU221      0.1160
    171  CD       -68.8320  -27.6790   36.8320 C.2   221  GLU221      0.3649
    172  OE1      -69.5490  -28.6930   36.9850 O.co2 221  GLU221     -0.2457
    173  OE2      -67.6370  -27.7580   36.4650 O.co2 221  GLU221     -0.2457
    174  N        -77.5360  -29.4080   49.9600 N.3   236  GLN236     -0.1245
    175  CA       -76.1310  -29.5980   49.6070 C.3   236  GLN236      0.1566
    176  C        -75.2380  -28.4760   50.1460 C.2   236  GLN236      0.2260
    177  O        -74.0860  -28.7140   50.4960 O.2   236  GLN236     -0.2867
    178  CB       -75.9820  -29.7190   48.0880 C.3   236  GLN236      0.0367
    179  CG       -74.5690  -30.0990   47.6270 C.3   236  GLN236      0.0905
    180  CD       -74.2250  -31.5500   47.9020 C.2   236  GLN236      0.2608
    181  OE1      -74.9140  -32.2350   48.6680 O.2   236  GLN236     -0.2717
    182  NE2      -73.1580  -32.0320   47.2780 N.am  236  GLN236     -0.0878
    183  N        -71.8040  -28.7380   52.6210 N.3   240  TYR240     -0.1241
    184  CA       -70.4830  -28.1390   52.4860 C.3   240  TYR240      0.1605
    185  C        -70.0980  -27.3470   53.7250 C.2   240  TYR240      0.2264
    186  O        -68.9200  -27.3110   54.0960 O.2   240  TYR240     -0.2867
    187  CB       -70.3860  -27.2650   51.2340 C.3   240  TYR240      0.0534
    188  CG       -70.4000  -28.0770   49.9640 C.ar  240  TYR240     -0.0201
    189  CD1      -69.4370  -29.0470   49.7330 C.ar  240  TYR240     -0.0009
    190  CD2      -71.3660  -27.8620   48.9900 C.ar  240  TYR240     -0.0009
    191  CE1      -69.4380  -29.8000   48.5800 C.ar  240  TYR240      0.0417
    192  CE2      -71.3770  -28.6040   47.8250 C.ar  240  TYR240      0.0417
    193  CZ       -70.4200  -29.5770   47.6270 C.ar  240  TYR240      0.1957
    194  OH       -70.4370  -30.3210   46.4710 O.3   240  TYR240     -0.2866
@<TRIPOS>BOND
     1    62    59    1
     2    62    63    1
     3    59    58    1
     4    59    60    1
     5    61    60    2
     6    64    63    1
     7    64    65    1
     8    65    66    1
     9    56    55   ar
    10    89    87    1
    11    52    53    2
    12    52    51    1
    13    71    72    1
    14    71    68    1
    15    55    57   ar
    16    55    54    1
    17    74    72   ar
    18    67    68    1
    19   163   162    2
    20    72    73   ar
    21   168   167    2
    22    68    69    1
    23   173   171   ar
    24   167   166    1
    25   171   172   ar
    26   171   170    1
    27    51    54    1
    28    51    50    1
    29    87    86    1
    30    87    88    1
    31   159   158    2
    32   170   169    1
    33   162   164   am
    34   162   161    1
    35    86    83    1
    36     6     5    1
    37     6     7    1
    38     4     3    2
    39     3     5   am
    40     3     2    1
    41     2     1    1
    42   160   161    1
    43   160   157    1
    44    69    70    2
    45   158   157    1
    46   169   166    1
    47   166   165    1
    48    92    91    1
    49    92    93    2
    50    90    91    1
    51    90    84   am
    52   157   156    1
    53     8     7    2
    54     7     9   am
    55    83    84    1
    56    83    82    1
    57   148   146   am
    58   147   146    2
    59   146   145    1
    60    84    85    2
    61   131   130    1
    62   145   142    1
    63    82    77   am
    64   144   143    2
    65     9    10    1
    66   156   151   am
    67    35    34    1
    68   130   132    1
    69   130   129    2
    70    29    28    1
    71   152   151    2
    72    34    31    1
    73   142   143    1
    74   142   141    1
    75    41    40    1
    76   151   150    1
    77    77    78    2
    78    77    76    1
    79    28    27    1
    80    10    11    1
    81    10    13    1
    82    17    11   am
    83    17    18    1
    84   129   128    1
    85   128   127    1
    86    80    79    1
    87    11    12    2
    88    76    79    1
    89    76    75    1
    90    18    19    1
    91   141   135   am
    92    31    30    1
    93    31    32    1
    94    13    15    1
    95    13    14    1
    96    40    37    1
    97    40    42    1
    98    30    23   am
    99    36    32   am
   100    36    37    1
   101   154   153    1
   102   150   149    1
   103   150   153    1
   104    16    14    1
   105   127   126    1
   106    27    26    1
   107    79    81    1
   108    32    33    2
   109    21    19   am
   110    21    22    1
   111   153   155    1
   112    37    38    1
   113    19    20    2
   114   136   135    2
   115    25    26    1
   116    25    22    1
   117   135   134    1
   118    23    22    1
   119    23    24    2
   120   126   123    1
   121   101    99   am
   122   134   133    1
   123   134   137    1
   124   105   104    2
   125    38    43   am
   126    38    39    2
   127   133   124   am
   128   139   138   ar
   129   124   123    1
   130   124   125    2
   131    43    44    1
   132   123   122    1
   133   104   103    1
   134    99   100    2
   135    99    98    1
   136    97    96    2
   137   137   138    1
   138   138   140   ar
   139    98    95    1
   140    48    47    1
   141    96   102   am
   142    96    95    1
   143    44    47    1
   144    44    45    1
   145   122   117   am
   146   194   193    1
   147   103   102    1
   148   103   106    1
   149    47    49    1
   150    95    94    1
   151   118   117    2
   152    45    46    2
   153   107   106    1
   154   117   116    1
   155   182   180   am
   156   193   192   ar
   157   193   191   ar
   158   179   180    1
   159   179   178    1
   160   192   190   ar
   161   180   181    2
   162   178   175    1
   163   111   110    2
   164   191   189   ar
   165   113   112    1
   166   116   119    1
   167   116   115    1
   168   190   188   ar
   169   119   120    1
   170   110   115   am
   171   110   109    1
   172   112   109    1
   173   112   114    1
   174   115   121    1
   175   175   174    1
   176   175   176    1
   177   189   188   ar
   178   188   187    1
   179   176   177    2
   180   109   108    1
   181   121   120    1
   182   187   184    1
   183   184   183    1
   184   184   185    1
   185   185   186    2
