@<TRIPOS>MOLECULE
tmp/4wzcA00.pdb
 137 127 0 0 0
SMALL
GASTEIGER

@<TRIPOS>ATOM
      1  N        -10.9540  -31.6460   11.7770 N.3    39  THR39      -0.1218
      2  CA       -10.4340  -32.1000   10.4720 C.3    39  THR39       0.1862
      3  C         -8.9330  -32.3300   10.5580 C.2    39  THR39       0.2287
      4  O         -8.2410  -31.6250   11.2830 O.2    39  THR39      -0.2866
      5  CB       -10.7410  -31.0640    9.3890 C.3    39  THR39       0.1770
      6  OG1      -12.1540  -30.8570    9.3440 O.3    39  THR39      -0.2211
      7  CG2      -10.2970  -31.5580    8.0240 C.3    39  THR39       0.0375
      8  N         -5.8430  -32.2340    7.9000 N.3    41  VAL41      -0.1245
      9  CA        -5.5250  -31.7850    6.5490 C.3    41  VAL41       0.1561
     10  C         -4.1110  -32.2030    6.2120 C.2    41  VAL41       0.2260
     11  O         -3.1690  -31.8840    6.9540 O.2    41  VAL41      -0.2867
     12  CB        -5.5770  -30.2620    6.4370 C.3    41  VAL41       0.0252
     13  CG1       -5.3540  -29.8490    4.9950 C.3    41  VAL41       0.0019
     14  CG2       -6.8970  -29.7230    6.9250 C.3    41  VAL41       0.0019
     15  N         -3.1900  -23.2860   -2.8990 N.3    47  ARG47      -0.1245
     16  CA        -4.4500  -22.7080   -3.3340 C.3    47  ARG47       0.1563
     17  C         -4.3530  -21.1970   -3.3780 C.2    47  ARG47       0.2260
     18  O         -3.4070  -20.6060   -2.8310 O.2    47  ARG47      -0.2867
     19  CB        -5.6140  -23.1750   -2.4570 C.3    47  ARG47       0.0307
     20  CG        -5.4850  -22.8050   -1.0010 C.3    47  ARG47       0.0489
     21  CD        -6.3370  -23.7060   -0.1080 C.3    47  ARG47       0.2205
     22  NE        -7.7590  -23.4050   -0.1790 N.pl3  47  ARG47      -0.0865
     23  CZ        -8.6780  -23.9320    0.6220 C.cat  47  ARG47       0.5346
     24  NH1       -8.3290  -24.8010    1.5620 N.pl3  47  ARG47       0.1354
     25  NH2       -9.9510  -23.5970    0.4850 N.pl3  47  ARG47       0.1354
     26  N         -9.9750  -17.4450    2.6870 N.3    51  HIS51      -0.1241
     27  CA       -11.1800  -17.6910    3.4800 C.3    51  HIS51       0.1621
     28  C        -11.4300  -16.5640    4.4950 C.2    51  HIS51       0.2264
     29  O        -10.5090  -16.1300    5.2200 O.2    51  HIS51      -0.2867
     30  CB       -11.0220  -19.0320    4.2540 C.3    51  HIS51       0.0745
     31  CG       -12.2740  -19.4800    4.9330 C.ar   51  HIS51       0.0817
     32  ND1      -12.2920  -20.3660    5.9990 N.ar   51  HIS51      -0.2268
     33  CD2      -13.5620  -19.1350    4.7070 C.ar   51  HIS51       0.1154
     34  CE1      -13.5400  -20.5580    6.3760 C.ar   51  HIS51       0.1986
     35  NE2      -14.3290  -19.8340    5.6020 N.ar   51  HIS51      -0.2212
     36  N        -10.5970  -20.1900   14.0360 N.3    57  GLU57      -0.1245
     37  CA       -10.0250  -21.4480   13.5850 C.3    57  GLU57       0.1567
     38  C         -8.8010  -21.7700   14.4030 C.2    57  GLU57       0.2260
     39  O         -7.9120  -20.9370   14.5550 O.2    57  GLU57      -0.2867
     40  CB        -9.6110  -21.3870   12.1170 C.3    57  GLU57       0.0388
     41  CG       -10.7830  -21.2050   11.1940 C.3    57  GLU57       0.1160
     42  CD       -10.4600  -21.3460    9.6980 C.2    57  GLU57       0.3649
     43  OE1       -9.3930  -21.8240    9.2680 O.co2  57  GLU57      -0.2457
     44  OE2      -11.3190  -20.9160    8.9370 O.co2  57  GLU57      -0.2457
     45  N         -5.4480  -24.2910   14.8170 N.3    59  PHE59      -0.1241
     46  CA        -4.5070  -25.1110   14.0870 C.3    59  PHE59       0.1605
     47  C         -3.4790  -25.7490   15.0040 C.2    59  PHE59       0.2264
     48  O         -2.9350  -25.0830   15.8740 O.2    59  PHE59      -0.2867
     49  CB        -3.7430  -24.2500   13.0560 C.3    59  PHE59       0.0534
     50  CG        -4.6120  -23.6320   11.9960 C.ar   59  PHE59      -0.0203
     51  CD1       -4.6850  -24.1820   10.7210 C.ar   59  PHE59      -0.0042
     52  CD2       -5.3360  -22.4890   12.2600 C.ar   59  PHE59      -0.0042
     53  CE1       -5.4780  -23.6100    9.7440 C.ar   59  PHE59      -0.0003
     54  CE2       -6.1390  -21.9030   11.2540 C.ar   59  PHE59      -0.0003
     55  CZ        -6.2120  -22.4710   10.0350 C.ar   59  PHE59      -0.0000
     56  N         -7.3070  -15.7300    5.1020 N.3    95  HIS95      -0.1241
     57  CA        -6.2130  -16.6870    5.0870 C.3    95  HIS95       0.1621
     58  C         -6.3320  -17.7080    3.9460 C.2    95  HIS95       0.2264
     59  O         -7.4230  -18.1920    3.6030 O.2    95  HIS95      -0.2867
     60  CB        -6.1850  -17.4290    6.4170 C.3    95  HIS95       0.0745
     61  CG        -7.4560  -18.1600    6.7040 C.ar   95  HIS95       0.0817
     62  ND1       -8.5940  -17.5170    7.1320 N.ar   95  HIS95      -0.2268
     63  CD2       -7.7610  -19.4820    6.6610 C.ar   95  HIS95       0.1154
     64  CE1       -9.5580  -18.4110    7.3210 C.ar   95  HIS95       0.1986
     65  NE2       -9.0830  -19.6080    7.0270 N.ar   95  HIS95      -0.2212
     66  N         -4.3790  -21.2480    3.1440 N.3    97  PRO97      -0.2116
     67  CA        -3.3770  -22.2350    3.5730 C.3    97  PRO97       0.1372
     68  C         -2.6580  -22.9240    2.4350 C.2    97  PRO97       0.2244
     69  O         -3.2870  -23.3570    1.4630 O.2    97  PRO97      -0.2868
     70  CB        -4.1980  -23.2750    4.3640 C.3    97  PRO97       0.0268
     71  CG        -5.5510  -22.6500    4.5710 C.3    97  PRO97       0.0207
     72  CD        -5.7420  -21.7630    3.3650 C.3    97  PRO97       0.0892
     73  N          0.0400  -26.0610    1.7810 N.3    99  ARG99      -0.1245
     74  CA         0.5570  -27.2770    2.4010 C.3    99  ARG99       0.1563
     75  C          1.4020  -28.0500    1.4040 C.2    99  ARG99       0.2260
     76  O          0.9460  -29.0210    0.8110 O.2    99  ARG99      -0.2867
     77  CB        -0.6020  -28.1170    2.9250 C.3    99  ARG99       0.0307
     78  CG        -1.4770  -27.2850    3.8840 C.3    99  ARG99       0.0489
     79  CD        -2.5630  -28.0800    4.5540 C.3    99  ARG99       0.2205
     80  NE        -3.1920  -27.3050    5.6290 N.pl3  99  ARG99      -0.0865
     81  CZ        -2.6800  -27.1600    6.8460 C.cat  99  ARG99       0.5346
     82  NH1       -1.5220  -27.7270    7.1520 N.pl3  99  ARG99       0.1354
     83  NH2       -3.3180  -26.4290    7.7590 N.pl3  99  ARG99       0.1354
     84  N         -7.1720  -29.2490   12.3830 N.3   108  VAL108     -0.1245
     85  CA        -7.8780  -27.9670   12.2650 C.3   108  VAL108      0.1561
     86  C         -9.2370  -28.1020   12.9310 C.2   108  VAL108      0.2260
     87  O         -9.9920  -29.0440   12.6220 O.2   108  VAL108     -0.2867
     88  CB        -8.0440  -27.5270   10.7730 C.3   108  VAL108      0.0252
     89  CG1       -8.7980  -26.2110   10.6630 C.3   108  VAL108      0.0019
     90  CG2       -6.6910  -27.3740   10.1360 C.3   108  VAL108      0.0019
     91  N        -12.8150  -26.0620   13.8570 N.3   110  GLU110     -0.1245
     92  CA       -13.7530  -24.9790   13.5810 C.3   110  GLU110      0.1567
     93  C        -15.0630  -25.3430   14.2790 C.2   110  GLU110      0.2260
     94  O        -15.2000  -26.4430   14.8320 O.2   110  GLU110     -0.2867
     95  CB       -14.0050  -24.8610   12.0720 C.3   110  GLU110      0.0388
     96  CG       -12.8030  -24.5550   11.2550 C.3   110  GLU110      0.1160
     97  CD       -13.1360  -24.4500    9.7670 C.2   110  GLU110      0.3649
     98  OE1      -12.2130  -24.6430    8.9650 O.co2 110  GLU110     -0.2457
     99  OE2      -14.3140  -24.1840    9.4080 O.co2 110  GLU110     -0.2457
    100  N        -21.4350  -23.1630   11.8020 N.3   113  ARG113     -0.1245
    101  CA       -21.9310  -21.8040   11.6920 C.3   113  ARG113      0.1563
    102  C        -23.4460  -21.8320   11.8830 C.2   113  ARG113      0.2260
    103  O        -24.1260  -22.6440   11.2540 O.2   113  ARG113     -0.2867
    104  CB       -21.6050  -21.2270   10.2890 C.3   113  ARG113      0.0307
    105  CG       -20.2510  -20.5320   10.1970 C.3   113  ARG113      0.0489
    106  CD       -19.1270  -21.5160   10.4150 C.3   113  ARG113      0.2205
    107  NE       -18.1280  -21.4950    9.3720 N.pl3 113  ARG113     -0.0865
    108  CZ       -17.0360  -22.2470    9.3650 C.cat 113  ARG113      0.5346
    109  NH1      -16.7770  -23.0870   10.3650 N.pl3 113  ARG113      0.1354
    110  NH2      -16.1800  -22.1420    8.3700 N.pl3 113  ARG113      0.1354
    111  N        -15.3060  -16.4610    0.4850 N.3   121  PHE121     -0.1241
    112  CA       -14.1150  -16.9230   -0.1910 C.3   121  PHE121      0.1605
    113  C        -13.8060  -15.8690   -1.2240 C.2   121  PHE121      0.2264
    114  O        -14.7110  -15.4450   -1.9340 O.2   121  PHE121     -0.2867
    115  CB       -14.3150  -18.2890   -0.8200 C.3   121  PHE121      0.0534
    116  CG       -14.5180  -19.3460    0.1880 C.ar  121  PHE121     -0.0203
    117  CD1      -13.4360  -20.0500    0.6900 C.ar  121  PHE121     -0.0042
    118  CD2      -15.7780  -19.5900    0.6940 C.ar  121  PHE121     -0.0042
    119  CE1      -13.6120  -21.0040    1.6880 C.ar  121  PHE121     -0.0003
    120  CE2      -15.9640  -20.5490    1.6950 C.ar  121  PHE121     -0.0003
    121  CZ       -14.8820  -21.2560    2.1730 C.ar  121  PHE121     -0.0000
    122  N        -22.2790  -22.0880    5.0950 N.3   139  LEU139     -0.1245
    123  CA       -21.4600  -23.2860    4.9930 C.3   139  LEU139      0.1561
    124  C        -21.9690  -24.4030    5.9090 C.2   139  LEU139      0.2260
    125  O        -21.8310  -24.3490    7.1280 O.2   139  LEU139     -0.2867
    126  CB       -19.9950  -22.9350    5.2660 C.3   139  LEU139      0.0270
    127  CG       -18.9460  -23.9320    4.7790 C.3   139  LEU139      0.0019
    128  CD1      -18.9810  -24.0740    3.2620 C.3   139  LEU139      0.0001
    129  CD2      -17.5510  -23.4880    5.2720 C.3   139  LEU139      0.0001
    130  N        -18.3400  -26.3360   -1.5440 N.3   146  LEU146     -0.1245
    131  CA       -17.1100  -25.6010   -1.8890 C.3   146  LEU146      0.1561
    132  C        -16.4500  -25.8780   -3.2450 C.2   146  LEU146      0.2260
    133  O        -15.9620  -24.9420   -3.8790 O.2   146  LEU146     -0.2867
    134  CB       -16.0630  -25.7980   -0.7910 C.3   146  LEU146      0.0270
    135  CG       -15.8420  -24.6750    0.2330 C.3   146  LEU146      0.0019
    136  CD1      -17.0930  -23.8450    0.5330 C.3   146  LEU146      0.0001
    137  CD2      -15.2930  -25.2800    1.5210 C.3   146  LEU146      0.0001
@<TRIPOS>BOND
     1   133   132    2
     2    17    16    1
     3    17    18    2
     4    16    15    1
     5    16    19    1
     6   132   131    1
     7    19    20    1
     8   114   113    2
     9   131   130    1
    10   131   134    1
    11   113   112    1
    12    20    21    1
    13   115   112    1
    14   115   116    1
    15   134   135    1
    16   112   111    1
    17    22    21    1
    18    22    23    2
    19   116   117   ar
    20   116   118   ar
    21   135   136    1
    22   135   137    1
    23    25    23    1
    24    23    24    1
    25   117   119   ar
    26   118   120   ar
    27    76    75    2
    28    75    74    1
    29    69    68    2
    30   119   121   ar
    31   120   121   ar
    32    73    74    1
    33    74    77    1
    34    68    67    1
    35    26    27    1
    36    77    78    1
    37    66    72    1
    38    66    67    1
    39   128   127    1
    40    72    71    1
    41    27    30    1
    42    27    28    1
    43    67    70    1
    44    59    58    2
    45    78    79    1
    46    58    57    1
    47    30    31    1
    48    70    71    1
    49    28    29    2
    50    79    80    1
    51    33    31   ar
    52    33    35   ar
    53   127   126    1
    54   127   129    1
    55    31    32   ar
    56   123   122    1
    57   123   126    1
    58   123   124    1
    59    13    12    1
    60    57    56    1
    61    57    60    1
    62    35    34   ar
    63    80    81    2
    64   124   125    2
    65    32    34   ar
    66    10     9    1
    67    10    11    2
    68    60    61    1
    69    12     9    1
    70    12    14    1
    71     9     8    1
    72    63    61   ar
    73    63    65   ar
    74    61    62   ar
    75    81    82    1
    76    81    83    1
    77    65    64   ar
    78    62    64   ar
    79     7     5    1
    80   110   108    1
    81    44    42   ar
    82    98    97   ar
    83    43    42   ar
    84     6     5    1
    85   108   107    2
    86   108   109    1
    87   107   106    1
    88     5     2    1
    89    99    97   ar
    90    42    41    1
    91    53    55   ar
    92    53    51   ar
    93    97    96    1
    94    55    54   ar
    95    90    88    1
    96   105   104    1
    97   105   106    1
    98   104   101    1
    99     2     3    1
   100     2     1    1
   101     3     4    2
   102    89    88    1
   103    51    50   ar
   104    88    85    1
   105    41    40    1
   106   103   102    2
   107    54    52   ar
   108    96    95    1
   109   101   100    1
   110   101   102    1
   111    50    52   ar
   112    50    49    1
   113    95    92    1
   114    40    37    1
   115    85    84    1
   116    85    86    1
   117    87    86    2
   118    49    46    1
   119    92    91    1
   120    92    93    1
   121    37    36    1
   122    37    38    1
   123    46    45    1
   124    46    47    1
   125    93    94    2
   126    38    39    2
   127    47    48    2
