@<TRIPOS>MOLECULE
tmp/4wzeB00.pdb
 84 80 0 0 0
SMALL
GASTEIGER

@<TRIPOS>ATOM
      1  N       -177.6500    3.0930   18.6250 N.3   109  GLN109     -0.1245
      2  CA      -177.9570    2.2240   19.7190 C.3   109  GLN109      0.1566
      3  C       -178.1950    3.0250   20.9960 C.2   109  GLN109      0.2260
      4  O       -177.6000    3.9980   21.2230 O.2   109  GLN109     -0.2867
      5  CB      -176.8420    1.2080   19.9330 C.3   109  GLN109      0.0367
      6  CG      -177.1460    0.1400   20.9710 C.3   109  GLN109      0.0905
      7  CD      -176.2510   -1.0730   20.8760 C.2   109  GLN109      0.2608
      8  OE1     -175.4080   -1.2620   21.6660 O.2   109  GLN109     -0.2717
      9  NE2     -176.4670   -1.8620   19.8930 N.am  109  GLN109     -0.0878
     10  N       -181.8820   -2.8460   25.5270 N.3   126  LYS126     -0.1245
     11  CA      -181.0030   -2.3350   24.4960 C.3   126  LYS126      0.1561
     12  C       -181.6750   -2.4360   23.1520 C.2   126  LYS126      0.2260
     13  O       -182.3320   -3.3550   22.9020 O.2   126  LYS126     -0.2867
     14  CB      -179.6630   -3.0720   24.4950 C.3   126  LYS126      0.0271
     15  CG      -178.5490   -2.3260   23.7720 C.3   126  LYS126      0.0035
     16  CD      -177.1660   -2.8530   24.0730 C.3   126  LYS126      0.0206
     17  CE      -176.9310   -4.1940   23.4980 C.3   126  LYS126      0.1093
     18  NZ      -175.5020   -4.5500   23.6330 N.3   126  LYS126     -0.1314
     19  N       -171.1750   -0.2600   14.0540 N.3   168  GLN168     -0.1231
     20  CA      -170.7710   -0.7160   12.7410 C.3   168  GLN168      0.1698
     21  C       -170.8220   -2.2530   12.7810 C.2   168  GLN168      0.2592
     22  O       -170.3010   -2.8590   13.6330 O.2   168  GLN168     -0.2718
     23  CB      -169.3870   -0.2230   12.4470 C.3   168  GLN168      0.0381
     24  CG      -168.8890   -0.6060   11.0570 C.3   168  GLN168      0.0905
     25  CD      -167.7380   -1.5470   11.0730 C.2   168  GLN168      0.2608
     26  OE1     -167.5050   -2.2980   11.9710 O.2   168  GLN168     -0.2717
     27  NE2     -167.0040   -1.4960    9.9630 N.am  168  GLN168     -0.0878
     28  N       -171.5260   -2.8110   11.8390 N.am  169  ASP169     -0.1960
     29  CA      -171.9110   -4.2060   11.8670 C.3   169  ASP169      0.1840
     30  C       -172.1260   -4.7430   10.4930 C.2   169  ASP169      0.2622
     31  O       -171.9110   -4.0680    9.5260 O.2   169  ASP169     -0.2715
     32  CB      -173.1190   -4.5080   12.7990 C.3   169  ASP169      0.1450
     33  CG      -174.4830   -4.3320   12.1290 C.2   169  ASP169      0.3671
     34  OD1     -175.4630   -4.7350   12.7320 O.co2 169  ASP169     -0.2456
     35  OD2     -174.6090   -3.8680   11.0220 O.co2 169  ASP169     -0.2456
     36  N       -172.5890   -5.9790   10.4540 N.am  170  GLY170     -0.1954
     37  CA      -172.9310   -6.6160    9.2080 C.3   170  GLY170      0.1869
     38  C       -171.7960   -6.6240    8.2260 C.2   170  GLY170      0.2309
     39  O       -170.6880   -7.0390    8.5270 O.2   170  GLY170     -0.2863
     40  N       -170.2670   -4.0800    6.4850 N.3   172  THR172     -0.1218
     41  CA      -169.4680   -2.8840    6.3200 C.3   172  THR172      0.1862
     42  C       -168.0180   -3.0670    6.7580 C.2   172  THR172      0.2287
     43  O       -167.7480   -3.9650    7.5260 O.2   172  THR172     -0.2866
     44  CB      -170.1960   -1.7260    7.1000 C.3   172  THR172      0.1770
     45  OG1     -170.3720   -2.1110    8.4550 O.3   172  THR172     -0.2211
     46  CG2     -171.5900   -1.4620    6.5640 C.3   172  THR172      0.0375
     47  N       -164.0560   -0.9390    7.9960 N.3   174  HIS174     -0.1241
     48  CA      -163.8360   -0.0630    9.1390 C.3   174  HIS174      0.1621
     49  C       -164.1240    1.3700    8.8050 C.2   174  HIS174      0.2264
     50  O       -163.6380    1.9400    7.9190 O.2   174  HIS174     -0.2867
     51  CB      -162.4460   -0.1980    9.8010 C.3   174  HIS174      0.0745
     52  CG      -162.1640   -1.5480   10.3340 C.ar  174  HIS174      0.0817
     53  ND1     -160.9920   -1.8760   10.9680 N.ar  174  HIS174     -0.2268
     54  CD2     -162.9010   -2.6680   10.2900 C.ar  174  HIS174      0.1154
     55  CE1     -161.0380   -3.1430   11.3060 C.ar  174  HIS174      0.1986
     56  NE2     -162.1780   -3.6490   10.8930 N.ar  174  HIS174     -0.2212
     57  N       -170.6070    1.4290   20.2480 N.3   219  CYS219     -0.1221
     58  CA      -171.1670    0.3420   21.0100 C.3   219  CYS219      0.1808
     59  C       -170.9020   -1.0630   20.4660 C.2   219  CYS219      0.2602
     60  O       -171.2650   -2.0220   21.0490 O.2   219  CYS219     -0.2717
     61  CB      -172.6690    0.5240   21.1310 C.3   219  CYS219      0.0970
     62  SG      -173.2380    2.1470   21.7310 S.3   219  CYS219     -0.0800
     63  N       -170.3450   -1.1020   19.2650 N.am  220  SER220     -0.1938
     64  CA      -169.9870   -2.3400   18.5790 C.3   220  SER220      0.2055
     65  C       -169.2600   -2.0590   17.2890 C.2   220  SER220      0.2644
     66  O       -169.5900   -1.1740   16.6150 O.2   220  SER220     -0.2714
     67  CB      -171.2240   -3.1790   18.3120 C.3   220  SER220      0.2130
     68  OG      -170.8570   -4.4750   17.9550 O.3   220  SER220     -0.2179
     69  N       -168.3100   -2.8920   16.9640 N.am  221  GLY221     -0.1939
     70  CA      -167.6350   -2.7370   15.7080 C.3   221  GLY221      0.2014
     71  C       -166.6360   -1.6060   15.6500 C.2   221  GLY221      0.2638
     72  O       -166.1040   -1.2130   16.6070 O.2   221  GLY221     -0.2714
     73  N       -166.4280   -1.1160   14.4360 N.am  222  TYR222     -0.1973
     74  CA      -165.4510   -0.1010   14.0970 C.3   222  TYR222      0.1639
     75  C       -166.1220    1.0700   13.3550 C.2   222  TYR222      0.2290
     76  O       -165.9130    1.3740   12.2530 O.2   222  TYR222     -0.2864
     77  CB      -164.3500   -0.6770   13.1860 C.3   222  TYR222      0.0560
     78  CG      -163.6440   -1.9100   13.7200 C.ar  222  TYR222     -0.0198
     79  CD1     -164.1980   -3.1490   13.5730 C.ar  222  TYR222     -0.0009
     80  CD2     -162.4610   -1.8200   14.3350 C.ar  222  TYR222     -0.0009
     81  CE1     -163.5640   -4.2620   14.0280 C.ar  222  TYR222      0.0417
     82  CE2     -161.8290   -2.9330   14.8010 C.ar  222  TYR222      0.0417
     83  CZ      -162.3930   -4.1420   14.6500 C.ar  222  TYR222      0.1957
     84  OH      -161.7350   -5.2740   15.1420 O.3   222  TYR222     -0.2866
@<TRIPOS>BOND
     1    41    40    1
     2    41    42    1
     3    41    44    1
     4    46    44    1
     5    42    43    2
     6    44    45    1
     7    50    49    2
     8    47    48    1
     9    38    39    2
    10    38    37    1
    11    49    48    1
    12    48    51    1
    13    37    36    1
    14    31    30    2
    15    51    52    1
    16    27    25   am
    17    54    52   ar
    18    54    56   ar
    19    52    53   ar
    20    36    30   am
    21    30    29    1
    22    56    55   ar
    23    53    55   ar
    24    35    33   ar
    25    24    25    1
    26    24    23    1
    27    25    26    2
    28    28    29    1
    29    28    21   am
    30    29    32    1
    31    33    34   ar
    32    33    32    1
    33    76    75    2
    34    23    20    1
    35    20    21    1
    36    20    19    1
    37    21    22    2
    38    77    78    1
    39    77    74    1
    40    75    74    1
    41    79    78   ar
    42    79    81   ar
    43    78    80   ar
    44    81    83   ar
    45    74    73    1
    46    80    82   ar
    47    73    71   am
    48    83    82   ar
    49    83    84    1
    50    71    70    1
    51    71    72    2
    52    70    69    1
    53    66    65    2
    54    69    65   am
    55    65    64    1
    56    68    67    1
    57    67    64    1
    58    64    63    1
    59     1     2    1
    60    63    59   am
    61     2     5    1
    62     2     3    1
    63     9     7   am
    64     5     6    1
    65    57    58    1
    66    59    58    1
    67    59    60    2
    68     7     6    1
    69     7     8    2
    70     3     4    2
    71    58    61    1
    72    61    62    1
    73    13    12    2
    74    12    11    1
    75    17    18    1
    76    17    16    1
    77    15    16    1
    78    15    14    1
    79    14    11    1
    80    11    10    1
