@<TRIPOS>MOLECULE
tmp/4wzhA01.pdb
 73 71 0 0 0
SMALL
GASTEIGER

@<TRIPOS>ATOM
      1  N         16.2970   -6.8890   23.6090 N.3     6  GLY6       -0.1210
      2  CA        16.3070   -7.5300   22.3100 C.3     6  GLY6        0.1956
      3  C         15.1550   -7.0730   21.4430 C.2     6  GLY6        0.2612
      4  O         14.0770   -7.6670   21.4570 O.2     6  GLY6       -0.2717
      5  N         15.3830   -6.0160   20.6740 N.am    7  ILE7       -0.1965
      6  CA        14.3280   -5.4450   19.8560 C.3     7  ILE7        0.1727
      7  C         14.8600   -5.0450   18.4940 C.2     7  ILE7        0.2616
      8  O         16.0670   -4.8560   18.3260 O.2     7  ILE7       -0.2715
      9  CB        13.6970   -4.2080   20.5340 C.3     7  ILE7        0.0290
     10  CG1       14.7250   -3.0960   20.6910 C.3     7  ILE7        0.0022
     11  CG2       13.1080   -4.5670   21.8730 C.3     7  ILE7        0.0023
     12  CD1       14.1650   -1.8490   21.4140 C.3     7  ILE7        0.0001
     13  N         13.9580   -4.9170   17.5280 N.am    8  LEU8       -0.1963
     14  CA        14.3040   -4.4630   16.1750 C.3     8  LEU8        0.1728
     15  C         15.3980   -5.3220   15.5450 C.2     8  LEU8        0.2616
     16  O         16.1380   -4.8600   14.6800 O.2     8  LEU8       -0.2715
     17  CB        14.7340   -2.9860   16.1960 C.3     8  LEU8        0.0311
     18  CG        13.6680   -1.9880   16.6880 C.3     8  LEU8        0.0022
     19  CD1       14.2860   -0.7410   17.3100 C.3     8  LEU8        0.0001
     20  CD2       12.6860   -1.6050   15.5620 C.3     8  LEU8        0.0001
     21  N         15.4870   -6.5750   15.9840 N.am    9  GLY9       -0.1955
     22  CA        16.4100   -7.5310   15.4010 C.3     9  GLY9        0.1869
     23  C         17.8250   -7.3040   15.8780 C.2     9  GLY9        0.2309
     24  O         18.7670   -7.8060   15.2900 O.2     9  GLY9       -0.2863
     25  N          7.4730    1.1550   14.0100 N.3   181  GLN181     -0.1245
     26  CA         7.7760    0.0650   14.9290 C.3   181  GLN181      0.1566
     27  C          8.0590    0.5700   16.3490 C.2   181  GLN181      0.2260
     28  O          7.9600   -0.1840   17.3120 O.2   181  GLN181     -0.2867
     29  CB         8.9590   -0.7680   14.3970 C.3   181  GLN181      0.0367
     30  CG         9.0590   -2.1520   15.0360 C.3   181  GLN181      0.0905
     31  CD         9.8200   -3.1880   14.2060 C.2   181  GLN181      0.2608
     32  OE1        9.9610   -3.0640   12.9960 O.2   181  GLN181     -0.2717
     33  NE2       10.3190   -4.2130   14.8760 N.am  181  GLN181     -0.0878
     34  N          2.0040    2.8380   25.5200 N.3   230  TYR230     -0.1241
     35  CA         2.2280    1.4250   25.7960 C.3   230  TYR230      0.1605
     36  C          0.8970    0.6760   25.8160 C.2   230  TYR230      0.2264
     37  O          0.7630   -0.4020   25.2390 O.2   230  TYR230     -0.2867
     38  CB         2.9420    1.2390   27.1340 C.3   230  TYR230      0.0534
     39  CG         3.2710   -0.2120   27.4400 C.ar  230  TYR230     -0.0201
     40  CD1        4.3520   -0.8400   26.8380 C.ar  230  TYR230     -0.0009
     41  CD2        2.5000   -0.9500   28.3330 C.ar  230  TYR230     -0.0009
     42  CE1        4.6640   -2.1820   27.1190 C.ar  230  TYR230      0.0417
     43  CE2        2.7990   -2.2800   28.6180 C.ar  230  TYR230      0.0417
     44  CZ         3.8730   -2.8900   28.0040 C.ar  230  TYR230      0.1957
     45  OH         4.1690   -4.1970   28.2930 O.3   230  TYR230     -0.2866
     46  N         -0.1860   -1.8570   21.5840 N.3   234  PRO234     -0.2102
     47  CA         0.4290   -3.1230   21.9880 C.3   234  PRO234      0.1504
     48  C          1.3440   -3.7050   20.9050 C.2   234  PRO234      0.2576
     49  O          2.2570   -4.4500   21.2300 O.2   234  PRO234     -0.2718
     50  CB        -0.7770   -4.0380   22.2390 C.3   234  PRO234      0.0282
     51  CG        -1.8730   -3.4570   21.3840 C.3   234  PRO234      0.0208
     52  CD        -1.6520   -1.9700   21.4480 C.3   234  PRO234      0.0893
     53  N          1.1290   -3.3430   19.6460 N.am  235  GLY235     -0.1943
     54  CA         1.9780   -3.8360   18.5760 C.3   235  GLY235      0.2014
     55  C          3.2800   -3.0880   18.3290 C.2   235  GLY235      0.2639
     56  O          4.0460   -3.4690   17.4500 O.2   235  GLY235     -0.2714
     57  N          3.5300   -2.0240   19.0890 N.am  236  LYS236     -0.1963
     58  CA         4.7300   -1.2100   18.8940 C.3   236  LYS236      0.1728
     59  C          5.6140   -1.1880   20.1300 C.2   236  LYS236      0.2616
     60  O          5.1620   -1.4920   21.2230 O.2   236  LYS236     -0.2715
     61  CB         4.3460    0.2210   18.5190 C.3   236  LYS236      0.0311
     62  CG         3.3280    0.2740   17.3850 C.3   236  LYS236      0.0038
     63  CD         3.1150    1.6980   16.8950 C.3   236  LYS236      0.0206
     64  CE         2.0390    1.7500   15.8120 C.3   236  LYS236      0.1093
     65  NZ         2.3590    0.8250   14.6710 N.3   236  LYS236     -0.1314
     66  N          6.8810   -0.8480   19.9260 N.am  237  LEU237     -0.1977
     67  CA         7.7850   -0.5080   21.0130 C.3   237  LEU237      0.1596
     68  C          7.5600    0.9460   21.4370 C.2   237  LEU237      0.2287
     69  O          7.2600    1.8020   20.6030 O.2   237  LEU237     -0.2864
     70  CB         9.2290   -0.7090   20.5930 C.3   237  LEU237      0.0297
     71  CG         9.5450   -2.1560   20.2360 C.3   237  LEU237      0.0022
     72  CD1       10.7950   -2.2410   19.3900 C.3   237  LEU237      0.0001
     73  CD2        9.6890   -2.9410   21.5280 C.3   237  LEU237      0.0001
@<TRIPOS>BOND
     1    32    31    2
     2    25    26    1
     3    31    33   am
     4    31    30    1
     5    29    26    1
     6    29    30    1
     7    65    64    1
     8    16    15    2
     9    26    27    1
    10    24    23    2
    11    22    23    1
    12    22    21    1
    13    15    21   am
    14    15    14    1
    15    20    18    1
    16    64    63    1
    17    14    17    1
    18    14    13    1
    19    17    18    1
    20    27    28    2
    21    18    19    1
    22    63    62    1
    23    62    61    1
    24    56    55    2
    25    13     7   am
    26     8     7    2
    27    55    54    1
    28    55    57   am
    29     7     6    1
    30    61    58    1
    31    54    53    1
    32    58    57    1
    33    58    59    1
    34    72    71    1
    35    53    48   am
    36     6     9    1
    37     6     5    1
    38    66    59   am
    39    66    67    1
    40    59    60    2
    41    71    70    1
    42    71    73    1
    43     9    10    1
    44     9    11    1
    45    70    67    1
    46    69    68    2
    47     5     3   am
    48    10    12    1
    49    48    49    2
    50    48    47    1
    51    67    68    1
    52    51    52    1
    53    51    50    1
    54     3     4    2
    55     3     2    1
    56    52    46    1
    57    46    47    1
    58    47    50    1
    59     2     1    1
    60    37    36    2
    61    34    35    1
    62    35    36    1
    63    35    38    1
    64    40    42   ar
    65    40    39   ar
    66    42    44   ar
    67    38    39    1
    68    39    41   ar
    69    44    45    1
    70    44    43   ar
    71    41    43   ar
