@<TRIPOS>MOLECULE
tmp/4wzvB00.pdb
 194 193 0 0 0
SMALL
GASTEIGER

@<TRIPOS>ATOM
      1  N         11.0710   -2.1390   27.0930 N.3    75  GLY75      -0.1210
      2  CA         9.9610   -2.4790   26.2200 C.3    75  GLY75       0.1956
      3  C          8.7300   -2.8830   27.0150 C.2    75  GLY75       0.2612
      4  O          8.3150   -2.1780   27.9400 O.2    75  GLY75      -0.2717
      5  N          8.1370   -4.0150   26.6410 N.am   76  LEU76      -0.1965
      6  CA         6.9640   -4.5400   27.3350 C.3    76  LEU76       0.1728
      7  C          7.2640   -4.8470   28.8030 C.2    76  LEU76       0.2616
      8  O          8.3210   -5.3900   29.1220 O.2    76  LEU76      -0.2715
      9  CB         6.4610   -5.8030   26.6420 C.3    76  LEU76       0.0311
     10  CG         5.7620   -5.7430   25.2830 C.3    76  LEU76       0.0022
     11  CD1        5.7150   -7.1320   24.7010 C.3    76  LEU76       0.0001
     12  CD2        4.3580   -5.1540   25.3730 C.3    76  LEU76       0.0001
     13  N          6.3200   -4.5220   29.6850 N.am   77  LEU77      -0.1963
     14  CA         6.4380   -4.8180   31.1230 C.3    77  LEU77       0.1728
     15  C          5.5820   -6.0230   31.5250 C.2    77  LEU77       0.2616
     16  O          5.9960   -6.8890   32.3100 O.2    77  LEU77      -0.2715
     17  CB         6.0080   -3.6040   31.9500 C.3    77  LEU77       0.0311
     18  CG         6.5110   -2.2250   31.5340 C.3    77  LEU77       0.0022
     19  CD1        5.9900   -1.1490   32.4840 C.3    77  LEU77       0.0001
     20  CD2        8.0290   -2.2330   31.5140 C.3    77  LEU77       0.0001
     21  N          4.3900   -6.0690   30.9440 N.am   78  ALA78      -0.1963
     22  CA         3.3510   -6.9980   31.3320 C.3    78  ALA78       0.1728
     23  C          2.2200   -6.8650   30.3330 C.2    78  ALA78       0.2616
     24  O          2.0840   -5.8210   29.6780 O.2    78  ALA78      -0.2715
     25  CB         2.8480   -6.7000   32.7380 C.3    78  ALA78       0.0334
     26  N          1.4030   -7.9060   30.2040 N.am   79  HIS79      -0.1959
     27  CA         0.1980   -7.7450   29.3950 C.3    79  HIS79       0.1787
     28  C         -0.9200   -8.6320   29.9080 C.2    79  HIS79       0.2620
     29  O         -0.6930   -9.5580   30.6950 O.2    79  HIS79      -0.2715
     30  CB         0.4770   -8.0010   27.8940 C.3    79  HIS79       0.0785
     31  CG         0.9840   -9.3710   27.5710 C.ar   79  HIS79       0.0821
     32  ND1        1.8260   -9.6100   26.5050 N.ar   79  HIS79      -0.2267
     33  CD2        0.7580  -10.5780   28.1490 C.ar   79  HIS79       0.1154
     34  CE1        2.1060  -10.8980   26.4480 C.ar   79  HIS79       0.1986
     35  NE2        1.4850  -11.5070   27.4410 N.ar   79  HIS79      -0.2212
     36  N         -2.1360   -8.3300   29.4820 N.am   80  ALA80      -0.1977
     37  CA        -3.3030   -9.0430   29.9770 C.3    80  ALA80       0.1597
     38  C         -4.3990   -9.1190   28.9210 C.2    80  ALA80       0.2287
     39  O         -4.4830   -8.2750   28.0350 O.2    80  ALA80      -0.2864
     40  CB        -3.8260   -8.3750   31.2470 C.3    80  ALA80       0.0319
     41  N         -8.5600   -9.5740   27.8310 N.3    82  PRO82      -0.2116
     42  CA        -9.8700   -9.2000   28.3560 C.3    82  PRO82       0.1372
     43  C        -10.6630  -10.4490   28.7150 C.2    82  PRO82       0.2244
     44  O        -10.3010  -11.5190   28.2520 O.2    82  PRO82      -0.2868
     45  CB       -10.5170   -8.4420   27.1940 C.3    82  PRO82       0.0268
     46  CG        -9.7770   -8.8490   25.9970 C.3    82  PRO82       0.0207
     47  CD        -8.3740   -9.1160   26.4430 C.3    82  PRO82       0.0892
     48  N          1.4350   -1.7470   41.3730 N.3   111  LEU111     -0.1231
     49  CA         0.8130   -0.7870   40.4520 C.3   111  LEU111      0.1693
     50  C          0.6290   -1.3910   39.0640 C.2   111  LEU111      0.2591
     51  O         -0.4150   -1.2080   38.4040 O.2   111  LEU111     -0.2718
     52  CB         1.6440    0.4830   40.3720 C.3   111  LEU111      0.0284
     53  CG         1.6350    1.3140   41.6470 C.3   111  LEU111      0.0019
     54  CD1        2.6650    2.4220   41.5370 C.3   111  LEU111      0.0001
     55  CD2        0.2460    1.8960   41.8330 C.3   111  LEU111      0.0001
     56  N          1.6360   -2.1260   38.6180 N.am  112  VAL112     -0.1980
     57  CA         1.5250   -2.7900   37.3250 C.3   112  VAL112      0.1595
     58  C          0.4310   -3.8440   37.3470 C.2   112  VAL112      0.2287
     59  O         -0.3830   -3.8960   36.4230 O.2   112  VAL112     -0.2864
     60  CB         2.8520   -3.4390   36.8770 C.3   112  VAL112      0.0276
     61  CG1        2.6540   -4.1990   35.5540 C.3   112  VAL112      0.0022
     62  CG2        3.9030   -2.3770   36.6930 C.3   112  VAL112      0.0022
     63  N         -2.9660   -2.1860   37.0460 N.3   115  HIS115     -0.1226
     64  CA        -3.2300   -1.8610   35.6410 C.3   115  HIS115      0.1752
     65  C         -3.5910   -3.1050   34.8320 C.2   115  HIS115      0.2595
     66  O         -4.5590   -3.0860   34.0690 O.2   115  HIS115     -0.2718
     67  CB        -2.0020   -1.1540   35.0270 C.3   115  HIS115      0.0759
     68  CG        -2.1130   -0.8580   33.5520 C.ar  115  HIS115      0.0818
     69  ND1       -2.4100    0.3950   33.0700 N.ar  115  HIS115     -0.2268
     70  CD2       -1.8610   -1.6300   32.4700 C.ar  115  HIS115      0.1154
     71  CE1       -2.3680    0.3810   31.7490 C.ar  115  HIS115      0.1986
     72  NE2       -2.0360   -0.8410   31.3560 N.ar  115  HIS115     -0.2212
     73  N         -2.8220   -4.1780   34.9910 N.am  116  GLU116     -0.1979
     74  CA        -3.0930   -5.4040   34.2450 C.3   116  GLU116      0.1602
     75  C         -4.4480   -6.0070   34.5950 C.2   116  GLU116      0.2287
     76  O         -5.1370   -6.5570   33.7380 O.2   116  GLU116     -0.2864
     77  CB        -2.0020   -6.4530   34.5010 C.3   116  GLU116      0.0415
     78  CG        -0.6210   -5.9980   34.0590 C.3   116  GLU116      0.1163
     79  CD        -0.6000   -5.5260   32.6190 C.2   116  GLU116      0.3649
     80  OE1       -1.2370   -6.1830   31.7720 O.co2 116  GLU116     -0.2457
     81  OE2        0.0080   -4.4580   32.3570 O.co2 116  GLU116     -0.2457
     82  N         -7.1780   -4.4760   32.7260 N.3   119  HIS119     -0.1241
     83  CA        -7.3430   -5.0960   31.4190 C.3   119  HIS119      0.1621
     84  C         -8.0860   -6.4250   31.5150 C.2   119  HIS119      0.2264
     85  O         -8.9600   -6.7150   30.7070 O.2   119  HIS119     -0.2867
     86  CB        -5.9960   -5.3520   30.7500 C.3   119  HIS119      0.0745
     87  CG        -5.3000   -4.1250   30.2520 C.ar  119  HIS119      0.0817
     88  ND1       -5.9560   -3.0820   29.6330 N.ar  119  HIS119     -0.2268
     89  CD2       -3.9880   -3.7980   30.2440 C.ar  119  HIS119      0.1154
     90  CE1       -5.0770   -2.1630   29.2750 C.ar  119  HIS119      0.1986
     91  NE2       -3.8730   -2.5740   29.6390 N.ar  119  HIS119     -0.2212
     92  N        -11.1440   -3.4450   30.7020 N.3   123  LEU123     -0.1231
     93  CA       -10.7950   -2.0550   30.4220 C.3   123  LEU123      0.1693
     94  C         -9.7030   -1.9320   29.3820 C.2   123  LEU123      0.2592
     95  O         -8.7570   -2.7250   29.3610 O.2   123  LEU123     -0.2718
     96  CB       -10.3350   -1.3370   31.6900 C.3   123  LEU123      0.0284
     97  CG       -11.3950   -1.2460   32.7690 C.3   123  LEU123      0.0019
     98  CD1      -10.8190   -0.4490   33.9130 C.3   123  LEU123      0.0001
     99  CD2      -12.6600   -0.5850   32.2450 C.3   123  LEU123      0.0001
    100  N         -9.8500   -0.9420   28.5070 N.am  124  ASP124     -0.1960
    101  CA        -8.7670   -0.5750   27.6080 C.3   124  ASP124      0.1840
    102  C         -7.9960    0.5660   28.2190 C.2   124  ASP124      0.2622
    103  O         -8.2650    0.9830   29.3430 O.2   124  ASP124     -0.2715
    104  CB        -9.2870   -0.1820   26.2320 C.3   124  ASP124      0.1450
    105  CG        -9.9070   -1.3460   25.4930 C.2   124  ASP124      0.3671
    106  OD1       -9.3270   -2.4530   25.5220 O.co2 124  ASP124     -0.2456
    107  OD2      -10.9830   -1.1590   24.8840 O.co2 124  ASP124     -0.2456
    108  N         -7.0300    1.0730   27.4670 N.am  125  HIS125     -0.1973
    109  CA        -6.2340    2.1840   27.9420 C.3   125  HIS125      0.1656
    110  C         -7.0690    3.4540   27.9670 C.2   125  HIS125      0.2291
    111  O         -7.9580    3.6610   27.1370 O.2   125  HIS125     -0.2864
    112  CB        -4.9890    2.3540   27.0750 C.3   125  HIS125      0.0771
    113  CG        -3.9400    1.3260   27.3420 C.ar  125  HIS125      0.0820
    114  ND1       -3.0950    0.8500   26.3610 N.ar  125  HIS125     -0.2267
    115  CD2       -3.6010    0.6710   28.4810 C.ar  125  HIS125      0.1154
    116  CE1       -2.2800   -0.0500   26.8870 C.ar  125  HIS125      0.1986
    117  NE2       -2.5750   -0.1820   28.1690 N.ar  125  HIS125     -0.2212
    118  N         -5.0070    8.5930   35.0300 N.3   131  ALA131     -0.1231
    119  CA        -5.7010    7.3290   35.2730 C.3   131  ALA131      0.1694
    120  C         -4.7850    6.1160   35.3200 C.2   131  ALA131      0.2591
    121  O         -3.7600    6.0610   34.6290 O.2   131  ALA131     -0.2718
    122  CB        -6.7860    7.1190   34.2080 C.3   131  ALA131      0.0304
    123  N         -5.1650    5.1460   36.1560 N.am  132  LEU132     -0.1980
    124  CA        -4.4610    3.8650   36.2590 C.3   132  LEU132      0.1596
    125  C         -4.3290    3.1870   34.8920 C.2   132  LEU132      0.2287
    126  O         -3.3010    2.5800   34.5790 O.2   132  LEU132     -0.2864
    127  CB        -5.1880    2.9420   37.2330 C.3   132  LEU132      0.0297
    128  CG        -4.5810    1.5550   37.5150 C.3   132  LEU132      0.0022
    129  CD1       -3.1600    1.6420   38.0190 C.3   132  LEU132      0.0001
    130  CD2       -5.4460    0.7660   38.5280 C.3   132  LEU132      0.0001
    131  N         -4.1310    4.6790   32.0270 N.3   134  TYR134     -0.1228
    132  CA        -3.1830    5.3800   31.1480 C.3   134  TYR134      0.1721
    133  C         -1.9670    4.5020   30.8530 C.2   134  TYR134      0.2437
    134  O         -1.4080    3.9230   31.7570 O.2   134  TYR134     -0.2733
    135  CB        -2.7090    6.6930   31.7750 C.3   134  TYR134      0.0547
    136  CG        -2.1500    7.6430   30.7380 C.ar  134  TYR134     -0.0200
    137  CD1       -2.9930    8.2630   29.8270 C.ar  134  TYR134     -0.0009
    138  CD2       -0.7830    7.9040   30.6600 C.ar  134  TYR134     -0.0009
    139  CE1       -2.5030    9.1420   28.8660 C.ar  134  TYR134      0.0417
    140  CE2       -0.2790    8.7830   29.6830 C.ar  134  TYR134      0.0417
    141  CZ        -1.1580    9.3880   28.7980 C.ar  134  TYR134      0.1957
    142  OH        -0.7030   10.2580   27.8300 O.3   134  TYR134     -0.2866
    143  N         -1.5570    4.4200   29.5800 N.am  135  PRO135     -0.2718
    144  CA        -0.5030    3.4930   29.1820 C.3   135  PRO135      0.1535
    145  C          0.9140    4.0220   29.4160 C.2   135  PRO135      0.2598
    146  O          1.7860    3.8390   28.5730 O.2   135  PRO135     -0.2715
    147  CB        -0.7720    3.2970   27.6910 C.3   135  PRO135      0.0310
    148  CG        -1.3170    4.6540   27.2620 C.3   135  PRO135      0.0237
    149  CD        -2.1930    5.0700   28.4160 C.3   135  PRO135      0.0939
    150  N          1.1090    4.6550   30.5700 N.am  136  MET136     -0.1964
    151  CA         2.4160    5.0960   31.0400 C.3   136  MET136      0.1736
    152  C          2.6560    4.6420   32.4720 C.2   136  MET136      0.2616
    153  O          1.9160    5.0420   33.3750 O.2   136  MET136     -0.2715
    154  CB         2.5240    6.6190   30.9750 C.3   136  MET136      0.0427
    155  CG         3.7550    7.1650   31.6660 C.3   136  MET136      0.0599
    156  SD         5.2410    6.6860   30.7770 S.3   136  MET136     -0.1393
    157  CE         4.9930    7.6040   29.2620 C.3   136  MET136      0.0692
    158  N          3.6830    3.8220   32.6970 N.am  137  TYR137     -0.1960
    159  CA         4.0440    3.4840   34.0640 C.3   137  TYR137      0.1771
    160  C          4.6830    4.6840   34.7450 C.2   137  TYR137      0.2619
    161  O          5.5960    5.3180   34.2000 O.2   137  TYR137     -0.2715
    162  CB         5.0150    2.2950   34.1320 C.3   137  TYR137      0.0574
    163  CG         5.4760    2.0740   35.5610 C.ar  137  TYR137     -0.0198
    164  CD1        4.7020    1.3450   36.4460 C.ar  137  TYR137     -0.0009
    165  CD2        6.6480    2.6490   36.0330 C.ar  137  TYR137     -0.0009
    166  CE1        5.0940    1.1690   37.7660 C.ar  137  TYR137      0.0417
    167  CE2        7.0490    2.4810   37.3510 C.ar  137  TYR137      0.0417
    168  CZ         6.2690    1.7340   38.2100 C.ar  137  TYR137      0.1957
    169  OH         6.6520    1.5580   39.5220 O.3   137  TYR137     -0.2866
    170  N          4.1980    4.9950   35.9380 N.am  138  ARG138     -0.1977
    171  CA         4.8270    5.9970   36.7930 C.3   138  ARG138      0.1597
    172  C          4.6060    5.6090   38.2450 C.2   138  ARG138      0.2287
    173  O          3.4880    5.2830   38.6370 O.2   138  ARG138     -0.2864
    174  CB         4.2710    7.3980   36.5150 C.3   138  ARG138      0.0334
    175  CG         4.6130    8.4260   37.5890 C.3   138  ARG138      0.0492
    176  CD         4.6290    9.8480   37.0380 C.3   138  ARG138      0.2205
    177  NE         5.9070   10.1790   36.4120 N.pl3 138  ARG138     -0.0865
    178  CZ         6.0660   10.4270   35.1150 C.cat 138  ARG138      0.5346
    179  NH1        5.0240   10.3880   34.2960 N.pl3 138  ARG138      0.1354
    180  NH2        7.2680   10.7160   34.6380 N.pl3 138  ARG138      0.1354
    181  N          3.8710    5.8730   42.0390 N.3   140  THR140     -0.1218
    182  CA         3.1270    6.7860   42.8890 C.3   140  THR140      0.1862
    183  C          2.8760    6.1350   44.2450 C.2   140  THR140      0.2287
    184  O          2.7630    4.9150   44.3550 O.2   140  THR140     -0.2866
    185  CB         1.7840    7.2000   42.2460 C.3   140  THR140      0.1770
    186  OG1        1.1030    8.1300   43.0990 O.3   140  THR140     -0.2211
    187  CG2        0.8930    5.9870   42.0340 C.3   140  THR140      0.0375
    188  N         -4.3340    4.7170   43.5140 N.3   144  PRO144     -0.2116
    189  CA        -4.2010    4.4640   42.0740 C.3   144  PRO144      0.1372
    190  C         -5.4400    4.7750   41.2290 C.2   144  PRO144      0.2244
    191  O         -5.2790    5.2250   40.0930 O.2   144  PRO144     -0.2868
    192  CB        -3.8630    2.9700   42.0250 C.3   144  PRO144      0.0268
    193  CG        -3.1590    2.7160   43.3300 C.3   144  PRO144      0.0207
    194  CD        -3.9480    3.5510   44.3220 C.3   144  PRO144      0.0892
@<TRIPOS>BOND
     1    11    10    1
     2   107   105   ar
     3    10    12    1
     4    10     9    1
     5   105   106   ar
     6   105   104    1
     7    46    47    1
     8    46    45    1
     9     2     3    1
    10     2     1    1
    11   104   101    1
    12   114   116   ar
    13   114   113   ar
    14    47    41    1
    15    34    32   ar
    16    34    35   ar
    17    32    31   ar
    18     5     3   am
    19     5     6    1
    20     9     6    1
    21   116   117   ar
    22     3     4    2
    23   112   113    1
    24   112   109    1
    25   111   110    2
    26    45    42    1
    27   148   147    1
    28   148   149    1
    29     6     7    1
    30   113   115   ar
    31    35    33   ar
    32   108   109    1
    33   108   102   am
    34    31    30    1
    35    31    33   ar
    36   101   102    1
    37   101   100    1
    38   147   144    1
    39   142   141    1
    40    41    42    1
    41    30    27    1
    42   109   110    1
    43    39    38    2
    44   117   115   ar
    45   102   103    2
    46    44    43    2
    47    42    43    1
    48   149   143    1
    49   100    94   am
    50   146   145    2
    51   141   139   ar
    52   141   140   ar
    53     7     8    2
    54     7    13   am
    55   139   137   ar
    56    38    37    1
    57   144   145    1
    58   144   143    1
    59   157   156    1
    60    90    88   ar
    61    90    91   ar
    62    95    94    2
    63    94    93    1
    64    27    28    1
    65    27    26    1
    66   145   150   am
    67    36    28   am
    68    36    37    1
    69   143   133   am
    70    88    87   ar
    71    91    89   ar
    72    24    23    2
    73   140   138   ar
    74    13    14    1
    75   137   136   ar
    76    28    29    2
    77    37    40    1
    78    26    23   am
    79    89    87   ar
    80    87    86    1
    81    23    22    1
    82    93    92    1
    83    93    96    1
    84   150   151    1
    85   138   136   ar
    86    85    84    2
    87   136   135    1
    88    86    83    1
    89   156   155    1
    90   133   132    1
    91   133   134    2
    92    21    22    1
    93    21    15   am
    94   154   151    1
    95   154   155    1
    96   151   152    1
    97    14    15    1
    98    14    17    1
    99   132   135    1
   100   132   131    1
   101    22    25    1
   102    72    71   ar
   103    72    70   ar
   104    83    84    1
   105    83    82    1
   106    20    18    1
   107    15    16    2
   108    18    17    1
   109    18    19    1
   110    96    97    1
   111    71    69   ar
   112    80    79   ar
   113    99    97    1
   114    81    79   ar
   115    70    68   ar
   116   152   158   am
   117   152   153    2
   118    79    78    1
   119   158   159    1
   120    97    98    1
   121    69    68   ar
   122    68    67    1
   123    76    75    2
   124    78    77    1
   125   159   162    1
   126   159   160    1
   127    66    65    2
   128   162   163    1
   129   161   160    2
   130   122   119    1
   131    74    77    1
   132    74    75    1
   133    74    73    1
   134   179   178    1
   135   126   125    2
   136   121   120    2
   137   180   178    1
   138   160   170   am
   139    65    73   am
   140    65    64    1
   141   125   124    1
   142    67    64    1
   143   118   119    1
   144   178   177    2
   145   119   120    1
   146   120   123   am
   147    61    60    1
   148   163   165   ar
   149   163   164   ar
   150    64    63    1
   151   170   171    1
   152   165   167   ar
   153   123   124    1
   154   124   127    1
   155   177   176    1
   156    59    58    2
   157   164   166   ar
   158   174   171    1
   159   174   175    1
   160    62    60    1
   161   171   172    1
   162    60    57    1
   163   176   175    1
   164   127   128    1
   165    57    58    1
   166    57    56    1
   167   167   168   ar
   168   128   129    1
   169   128   130    1
   170   166   168   ar
   171   168   169    1
   172   172   173    2
   173    51    50    2
   174    56    50   am
   175    50    49    1
   176   191   190    2
   177    52    49    1
   178    52    53    1
   179    49    48    1
   180   190   189    1
   181    54    53    1
   182    53    55    1
   183   192   189    1
   184   192   193    1
   185   187   185    1
   186   181   182    1
   187   189   188    1
   188   185   182    1
   189   185   186    1
   190   182   183    1
   191   193   194    1
   192   188   194    1
   193   183   184    2
