@<TRIPOS>MOLECULE
tmp/4wzyA00.pdb
 122 112 0 0 0
SMALL
GASTEIGER

@<TRIPOS>ATOM
      1  N        -62.7680   28.8380  113.2130 N.3   132  ALA132     -0.1231
      2  CA       -61.4260   28.4440  113.6260 C.3   132  ALA132      0.1694
      3  C        -60.6300   27.7690  112.5070 C.2   132  ALA132      0.2592
      4  O        -59.4140   27.9420  112.4220 O.2   132  ALA132     -0.2718
      5  CB       -61.5040   27.5280  114.8410 C.3   132  ALA132      0.0304
      6  N        -61.3050   26.9940  111.6610 N.am  133  GLU133     -0.1966
      7  CA       -60.6300   26.3500  110.5350 C.3   133  GLU133      0.1733
      8  C        -60.1870   27.4110  109.5290 C.2   133  GLU133      0.2616
      9  O        -60.9800   28.2630  109.1190 O.2   133  GLU133     -0.2715
     10  CB       -61.5380   25.3240  109.8550 C.3   133  GLU133      0.0429
     11  CG       -60.8410   24.0720  109.3030 C.3   133  GLU133      0.1163
     12  CD       -59.3740   24.2660  108.9500 C.2   133  GLU133      0.3649
     13  OE1      -58.5280   23.5790  109.5580 O.co2 133  GLU133     -0.2457
     14  OE2      -59.0610   25.0760  108.0530 O.co2 133  GLU133     -0.2457
     15  N        -58.9200   27.3430  109.1310 N.am  134  GLN134     -0.1977
     16  CA       -58.3150   28.3710  108.2910 C.3   134  GLN134      0.1601
     17  C        -58.0530   27.8860  106.8640 C.2   134  GLN134      0.2287
     18  O        -58.5540   28.4760  105.9090 O.2   134  GLN134     -0.2864
     19  CB       -57.0090   28.8540  108.9250 C.3   134  GLN134      0.0394
     20  CG       -57.0140   28.8460  110.4520 C.3   134  GLN134      0.0908
     21  CD       -57.3730   30.1930  111.0550 C.2   134  GLN134      0.2608
     22  OE1      -57.5470   31.1820  110.3420 O.2   134  GLN134     -0.2717
     23  NE2      -57.4800   30.2380  112.3800 N.am  134  GLN134     -0.0878
     24  N        -64.3380   23.5310  108.1690 N.3   138  SER138     -0.1217
     25  CA       -64.8990   22.5680  109.1140 C.3   138  SER138      0.1889
     26  C        -66.3070   22.9410  109.5300 C.2   138  SER138      0.2288
     27  O        -66.5750   24.0890  109.8770 O.2   138  SER138     -0.2866
     28  CB       -64.0070   22.4500  110.3490 C.3   138  SER138      0.2089
     29  OG       -62.7750   21.8350  109.9880 O.3   138  SER138     -0.2183
     30  N        -67.3790   16.5470  113.7020 N.3   146  MET146     -0.1245
     31  CA       -66.8420   17.5970  112.8720 C.3   146  MET146      0.1570
     32  C        -66.6110   17.0590  111.4760 C.2   146  MET146      0.2261
     33  O        -65.9130   16.0530  111.2990 O.2   146  MET146     -0.2867
     34  CB       -65.5230   18.1220  113.4400 C.3   146  MET146      0.0387
     35  CG       -65.0050   19.3300  112.7040 C.3   146  MET146      0.0595
     36  SD       -63.4520   19.8800  113.4310 S.3   146  MET146     -0.1393
     37  CE       -62.3790   18.6090  112.8220 C.3   146  MET146      0.0692
     38  N        -64.7670   17.8670  108.1500 N.3   148  LYS148     -0.1245
     39  CA       -63.7320   18.7080  107.5690 C.3   148  LYS148      0.1561
     40  C        -63.6690   18.4670  106.0740 C.2   148  LYS148      0.2260
     41  O        -63.4830   17.3320  105.6350 O.2   148  LYS148     -0.2867
     42  CB       -62.3680   18.4330  108.2110 C.3   148  LYS148      0.0271
     43  CG       -61.2390   19.1620  107.5160 C.3   148  LYS148      0.0035
     44  CD       -59.9150   18.9490  108.2260 C.3   148  LYS148      0.0206
     45  CE       -59.8940   19.6630  109.5650 C.3   148  LYS148      0.1093
     46  NZ       -58.4990   19.7670  110.1010 N.3   148  LYS148     -0.1314
     47  N        -59.3470   11.7950  118.4800 N.3   176  ALA176     -0.1245
     48  CA       -60.7320   12.1490  118.1820 C.3   176  ALA176      0.1562
     49  C        -61.1530   11.2400  117.0380 C.2   176  ALA176      0.2260
     50  O        -60.7020   11.4100  115.9030 O.2   176  ALA176     -0.2867
     51  CB       -60.8490   13.6170  117.8170 C.3   176  ALA176      0.0290
     52  N        -64.8940   13.3820  112.0980 N.3   200  THR200     -0.1203
     53  CA       -64.3340   12.9160  113.3660 C.3   200  THR200      0.1994
     54  C        -65.2470   13.2270  114.5490 C.2   200  THR200      0.2618
     55  O        -66.0130   14.1950  114.5250 O.2   200  THR200     -0.2717
     56  CB       -62.9510   13.5460  113.6170 C.3   200  THR200      0.1784
     57  OG1      -63.0630   14.9730  113.5930 O.3   200  THR200     -0.2211
     58  CG2      -61.9880   13.1240  112.5420 C.3   200  THR200      0.0376
     59  N        -65.1720   12.4080  115.5920 N.am  201  ALA201     -0.1965
     60  CA       -65.9480   12.6900  116.8050 C.3   201  ALA201      0.1728
     61  C        -65.4860   14.0010  117.4180 C.2   201  ALA201      0.2616
     62  O        -64.2940   14.2830  117.4880 O.2   201  ALA201     -0.2715
     63  CB       -65.8230   11.5550  117.8120 C.3   201  ALA201      0.0334
     64  N        -66.4360   14.8220  117.8280 N.am  202  PHE202     -0.1960
     65  CA       -66.1210   16.0950  118.4490 C.3   202  PHE202      0.1771
     66  C        -65.9670   15.9370  119.9570 C.2   202  PHE202      0.2619
     67  O        -66.8640   15.4290  120.6430 O.2   202  PHE202     -0.2715
     68  CB       -67.2110   17.1200  118.1320 C.3   202  PHE202      0.0574
     69  CG       -66.8930   18.5100  118.6090 C.ar  202  PHE202     -0.0200
     70  CD1      -66.0330   19.3230  117.8850 C.ar  202  PHE202     -0.0042
     71  CD2      -67.4590   19.0010  119.7720 C.ar  202  PHE202     -0.0042
     72  CE1      -65.7440   20.6100  118.3270 C.ar  202  PHE202     -0.0003
     73  CE2      -67.1730   20.2800  120.2200 C.ar  202  PHE202     -0.0003
     74  CZ       -66.3140   21.0840  119.4950 C.ar  202  PHE202     -0.0000
     75  N        -64.8160   16.3790  120.4590 N.am  203  ALA203     -0.1977
     76  CA       -64.5030   16.3160  121.8770 C.3   203  ALA203      0.1597
     77  C        -65.0930   17.5170  122.5860 C.2   203  ALA203      0.2287
     78  O        -64.4830   18.5810  122.6450 O.2   203  ALA203     -0.2864
     79  CB       -62.9940   16.2560  122.0830 C.3   203  ALA203      0.0319
     80  N        -63.5750   20.2440  125.8860 N.3   206  SER206     -0.1217
     81  CA       -62.1390   19.9790  125.8930 C.3   206  SER206      0.1889
     82  C        -61.3130   21.2540  126.0610 C.2   206  SER206      0.2288
     83  O        -61.8180   22.3730  125.9090 O.2   206  SER206     -0.2866
     84  CB       -61.7290   19.2440  124.6160 C.3   206  SER206      0.2089
     85  OG       -61.8800   20.0670  123.4680 O.3   206  SER206     -0.2183
     86  N        -57.3370   22.9210  125.0650 N.3   208  GLU208     -0.1245
     87  CA       -56.1250   22.7500  124.2660 C.3   208  GLU208      0.1567
     88  C        -54.9100   22.6710  125.1860 C.2   208  GLU208      0.2260
     89  O        -54.8320   23.4030  126.1690 O.2   208  GLU208     -0.2867
     90  CB       -55.9830   23.9020  123.2770 C.3   208  GLU208      0.0388
     91  CG       -55.0430   23.6450  122.1200 C.3   208  GLU208      0.1160
     92  CD       -55.0120   24.8110  121.1520 C.2   208  GLU208      0.3649
     93  OE1      -56.0260   25.0340  120.4580 O.co2 208  GLU208     -0.2457
     94  OE2      -53.9840   25.5200  121.1080 O.co2 208  GLU208     -0.2457
     95  N        -50.2750   22.5380  120.8760 N.3   308  GLY308     -0.1225
     96  CA       -51.4560   22.9590  120.1280 C.3   308  GLY308      0.1811
     97  C        -52.1630   21.8060  119.4330 C.2   308  GLY308      0.2280
     98  O        -53.2790   21.9810  118.8960 O.2   308  GLY308     -0.2866
     99  N        -55.5540   17.6520  122.9260 N.3   311  LEU311     -0.1245
    100  CA       -56.7660   18.1390  123.5850 C.3   311  LEU311      0.1561
    101  C        -56.9950   17.3460  124.8480 C.2   311  LEU311      0.2260
    102  O        -56.8450   16.1250  124.8350 O.2   311  LEU311     -0.2867
    103  CB       -57.9960   17.9950  122.6720 C.3   311  LEU311      0.0270
    104  CG       -57.9560   18.7140  121.3270 C.3   311  LEU311      0.0019
    105  CD1      -59.2180   18.3970  120.5440 C.3   311  LEU311      0.0001
    106  CD2      -57.8170   20.2050  121.5300 C.3   311  LEU311      0.0001
    107  N        -54.4540   15.2170  117.8580 N.3   320  ILE320     -0.1231
    108  CA       -55.1390   15.5330  116.6050 C.3   320  ILE320      0.1692
    109  C        -54.1680   16.0640  115.5370 C.2   320  ILE320      0.2592
    110  O        -53.0100   16.3860  115.8470 O.2   320  ILE320     -0.2718
    111  CB       -56.2550   16.5770  116.8140 C.3   320  ILE320      0.0266
    112  CG1      -55.6750   17.8460  117.4410 C.3   320  ILE320      0.0019
    113  CG2      -57.3720   16.0040  117.7010 C.3   320  ILE320      0.0020
    114  CD1      -56.5840   19.0620  117.3110 C.3   320  ILE320      0.0001
    115  N        -54.6760   16.1220  114.3030 N.am  321  ASP321     -0.1974
    116  CA       -53.9900   16.6910  113.1460 C.3   321  ASP321      0.1709
    117  C        -52.7060   15.9390  112.7900 C.2   321  ASP321      0.2293
    118  O        -51.5970   16.4110  113.0610 O.2   321  ASP321     -0.2864
    119  CB       -53.7030   18.1760  113.3850 C.3   321  ASP321      0.1436
    120  CG       -54.9670   18.9680  113.7040 C.2   321  ASP321      0.3671
    121  OD1      -56.0820   18.4970  113.3770 O.co2 321  ASP321     -0.2456
    122  OD2      -54.8450   20.0630  114.2890 O.co2 321  ASP321     -0.2456
@<TRIPOS>BOND
     1    41    40    2
     2    18    17    2
     3    40    39    1
     4    17    16    1
     5    43    42    1
     6    43    44    1
     7    39    38    1
     8    39    42    1
     9    14    12   ar
    10    24    25    1
    11    44    45    1
    12    16    19    1
    13    16    15    1
    14    19    20    1
    15    12    11    1
    16    12    13   ar
    17    25    26    1
    18    25    28    1
    19     9     8    2
    20    15     8   am
    21    11    10    1
    22     8     7    1
    23    26    27    2
    24    45    46    1
    25    10     7    1
    26    29    28    1
    27    22    21    2
    28    20    21    1
    29     7     6    1
    30    21    23   am
    31    33    32    2
    32    32    31    1
    33     6     3   am
    34    52    53    1
    35     4     3    2
    36     3     2    1
    37    58    56    1
    38    35    36    1
    39    35    34    1
    40   117   118    2
    41   117   116    1
    42    37    36    1
    43    31    34    1
    44    31    30    1
    45   116   119    1
    46   116   115    1
    47     1     2    1
    48    53    56    1
    49    53    54    1
    50   121   120   ar
    51   119   120    1
    52    57    56    1
    53     2     5    1
    54   120   122   ar
    55   115   109   am
    56    55    54    2
    57    54    59   am
    58   109   110    2
    59   109   108    1
    60    59    60    1
    61    50    49    2
    62   108   111    1
    63   108   107    1
    64    60    61    1
    65    60    63    1
    66   111   112    1
    67   111   113    1
    68    49    48    1
    69   114   112    1
    70    61    62    2
    71    61    64   am
    72    51    48    1
    73    64    65    1
    74    70    72   ar
    75    70    69   ar
    76    68    65    1
    77    68    69    1
    78    48    47    1
    79    72    74   ar
    80    65    66    1
    81    69    71   ar
    82    98    97    2
    83    97    96    1
    84    74    73   ar
    85    71    73   ar
    86    66    75   am
    87    66    67    2
    88    96    95    1
    89    93    92   ar
    90    75    76    1
    91   105   104    1
    92    94    92   ar
    93    92    91    1
    94   104   106    1
    95   104   103    1
    96    76    79    1
    97    76    77    1
    98    91    90    1
    99    77    78    2
   100   103   100    1
   101    99   100    1
   102    90    87    1
   103    85    84    1
   104   100   101    1
   105    87    86    1
   106    87    88    1
   107    84    81    1
   108   102   101    2
   109    88    89    2
   110    80    81    1
   111    81    82    1
   112    83    82    2
