@<TRIPOS>MOLECULE
tmp/4wzzA00.pdb
 136 131 0 0 0
SMALL
GASTEIGER

@<TRIPOS>ATOM
      1  N         59.0580   39.7600   27.5060 N.3    12  LYS12      -0.1245
      2  CA        58.2750   40.9680   27.2770 C.3    12  LYS12       0.1561
      3  C         56.8840   40.6380   26.7340 C.2    12  LYS12       0.2260
      4  O         55.8900   41.2200   27.1370 O.2    12  LYS12      -0.2867
      5  CB        58.9560   41.8680   26.2500 C.3    12  LYS12       0.0271
      6  CG        60.0940   42.7290   26.7090 C.3    12  LYS12       0.0035
      7  CD        60.3690   43.7860   25.6020 C.3    12  LYS12       0.0206
      8  CE        61.4460   44.7380   25.9890 C.3    12  LYS12       0.1093
      9  NZ        61.7290   45.6780   24.8720 N.3    12  LYS12      -0.1314
     10  N         56.8790   37.0480   19.4630 N.3    16  ASN16      -0.1240
     11  CA        58.2010   37.6180   19.1490 C.3    16  ASN16       0.1653
     12  C         59.2700   36.5340   19.2130 C.2    16  ASN16       0.2266
     13  O         59.6100   36.0370   20.2840 O.2    16  ASN16      -0.2867
     14  CB        58.5430   38.7360   20.1480 C.3    16  ASN16       0.1155
     15  CG        59.8810   39.3710   19.8660 C.2    16  ASN16       0.2627
     16  OD1       60.6500   38.8720   19.0460 O.2    16  ASN16      -0.2716
     17  ND2       60.1740   40.4690   20.5520 N.am   16  ASN16      -0.0877
     18  N         62.4060   36.5340   19.0590 N.3    18  TYR18      -0.1227
     19  CA        63.5480   36.8550   19.9030 C.3    18  TYR18       0.1736
     20  C         63.2600   36.3920   21.3320 C.2    18  TYR18       0.2595
     21  O         64.1050   35.7810   21.9880 O.2    18  TYR18      -0.2718
     22  CB        63.8290   38.3530   19.8580 C.3    18  TYR18       0.0548
     23  CG        64.8110   38.8230   20.8890 C.ar   18  TYR18      -0.0200
     24  CD1       64.4080   39.0610   22.1950 C.ar   18  TYR18      -0.0009
     25  CD2       66.1490   39.0340   20.5700 C.ar   18  TYR18      -0.0009
     26  CE1       65.3080   39.4970   23.1610 C.ar   18  TYR18       0.0417
     27  CE2       67.0560   39.4530   21.5410 C.ar   18  TYR18       0.0417
     28  CZ        66.6260   39.6840   22.8270 C.ar   18  TYR18       0.1957
     29  OH        67.5280   40.1070   23.7860 O.3    18  TYR18      -0.2866
     30  N         62.0490   36.6490   21.7990 N.am   19  ASN19      -0.1974
     31  CA        61.6860   36.2750   23.1660 C.3    19  ASN19       0.1688
     32  C         61.6240   34.7610   23.3430 C.2    19  ASN19       0.2292
     33  O         61.9310   34.2300   24.4120 O.2    19  ASN19      -0.2864
     34  CB        60.3350   36.8730   23.5580 C.3    19  ASN19       0.1181
     35  CG        60.3700   38.3900   23.6850 C.2    19  ASN19       0.2629
     36  OD1       61.4300   38.9850   23.8400 O.2    19  ASN19      -0.2716
     37  ND2       59.2130   39.0180   23.6160 N.am   19  ASN19      -0.0877
     38  N         67.4330   41.3440   29.6440 N.3    93  ASP93      -0.1239
     39  CA        67.0000   41.9040   28.3440 C.3    93  ASP93       0.1674
     40  C         66.5490   43.3510   28.4770 C.2    93  ASP93       0.2266
     41  O         67.0440   44.2400   27.7690 O.2    93  ASP93      -0.2867
     42  CB        65.8920   41.0400   27.7300 C.3    93  ASP93       0.1410
     43  CG        65.4350   41.5330   26.3750 C.2    93  ASP93       0.3668
     44  OD1       66.2910   41.8390   25.5210 O.co2  93  ASP93      -0.2456
     45  OD2       64.2100   41.5850   26.1810 O.co2  93  ASP93      -0.2456
     46  N         72.4240   42.1640   27.6850 N.3   107  GLN107     -0.1245
     47  CA        72.9600   41.5500   26.4710 C.3   107  GLN107      0.1566
     48  C         74.2700   42.1680   26.0120 C.2   107  GLN107      0.2260
     49  O         75.1200   41.5010   25.4400 O.2   107  GLN107     -0.2867
     50  CB        71.9310   41.6620   25.3420 C.3   107  GLN107      0.0367
     51  CG        71.2220   43.0200   25.2540 C.3   107  GLN107      0.0905
     52  CD        69.8930   43.0290   25.9460 C.2   107  GLN107      0.2608
     53  OE1       69.8240   42.8580   27.1610 O.2   107  GLN107     -0.2717
     54  NE2       68.8240   43.2010   25.1890 N.am  107  GLN107     -0.0878
     55  N         64.8220   48.8300   27.8660 N.3   141  ASN141     -0.1225
     56  CA        65.9950   48.6730   27.0140 C.3   141  ASN141      0.1785
     57  C         66.0070   49.6280   25.8310 C.2   141  ASN141      0.2597
     58  O         67.0060   50.3310   25.6180 O.2   141  ASN141     -0.2718
     59  CB        66.2550   47.2080   26.5770 C.3   141  ASN141      0.1169
     60  CG        65.0780   46.5390   25.9120 C.2   141  ASN141      0.2627
     61  OD1       63.9720   47.0750   25.8350 O.2   141  ASN141     -0.2716
     62  ND2       65.3120   45.3080   25.4410 N.am  141  ASN141     -0.0877
     63  N         64.9380   49.6930   25.0550 N.am  142  GLN142     -0.1979
     64  CA        64.9540   50.6500   23.9430 C.3   142  GLN142      0.1601
     65  C         65.1470   52.0500   24.4600 C.2   142  GLN142      0.2287
     66  O         65.8700   52.8360   23.8810 O.2   142  GLN142     -0.2864
     67  CB        63.6950   50.5840   23.0850 C.3   142  GLN142      0.0394
     68  CG        63.7360   49.4750   22.0420 C.3   142  GLN142      0.0908
     69  CD        63.2150   48.1420   22.5370 C.2   142  GLN142      0.2608
     70  OE1       62.4840   48.0620   23.5230 O.2   142  GLN142     -0.2717
     71  NE2       63.5240   47.0830   21.7920 N.am  142  GLN142     -0.0878
     72  N         68.8290   52.5370   25.1160 N.3   145  TRP145     -0.1241
     73  CA        69.5850   52.6380   23.8710 C.3   145  TRP145      0.1605
     74  C         69.3460   53.9720   23.1910 C.2   145  TRP145      0.2264
     75  O         70.2710   54.5670   22.6360 O.2   145  TRP145     -0.2867
     76  CB        69.2430   51.4920   22.9260 C.3   145  TRP145      0.0550
     77  CG        69.6010   50.1510   23.5080 C.ar  145  TRP145      0.0003
     78  CD1       70.6610   49.8640   24.3150 C.ar  145  TRP145      0.0946
     79  CD2       68.8810   48.9330   23.3410 C.ar  145  TRP145      0.0152
     80  NE1       70.6530   48.5290   24.6550 N.ar  145  TRP145     -0.2442
     81  CE2       69.5570   47.9380   24.0680 C.ar  145  TRP145      0.0810
     82  CE3       67.7160   48.5890   22.6550 C.ar  145  TRP145      0.0012
     83  CZ2       69.1100   46.6040   24.1140 C.ar  145  TRP145      0.0191
     84  CZ3       67.2920   47.2910   22.6970 C.ar  145  TRP145      0.0001
     85  CH2       67.9760   46.3160   23.4220 C.ar  145  TRP145      0.0015
     86  N         56.6780   46.4920   19.5860 N.3   169  ASP169     -0.1239
     87  CA        57.0800   45.1070   19.3890 C.3   169  ASP169      0.1674
     88  C         55.9800   44.2580   18.7270 C.2   169  ASP169      0.2266
     89  O         55.8860   43.0280   18.9040 O.2   169  ASP169     -0.2867
     90  CB        57.5760   44.4840   20.7100 C.3   169  ASP169      0.1410
     91  CG        59.0710   44.5960   20.8750 C.2   169  ASP169      0.3668
     92  OD1       59.8080   44.7530   19.8450 O.co2 169  ASP169     -0.2456
     93  OD2       59.5290   44.4750   22.0450 O.co2 169  ASP169     -0.2456
     94  N         65.7900   49.7290   16.7690 N.3   194  PRO194     -0.2102
     95  CA        66.4560   48.9050   17.8000 C.3   194  PRO194      0.1504
     96  C         65.4830   47.9340   18.4710 C.2   194  PRO194      0.2576
     97  O         65.3010   47.9230   19.6980 O.2   194  PRO194     -0.2718
     98  CB        66.9610   49.9490   18.7940 C.3   194  PRO194      0.0282
     99  CG        65.8920   51.0210   18.7110 C.3   194  PRO194      0.0208
    100  CD        65.6040   51.1130   17.2300 C.3   194  PRO194      0.0893
    101  N         64.8690   47.0980   17.6370 N.am  195  THR195     -0.1939
    102  CA        63.8910   46.1050   18.0620 C.3   195  THR195      0.2028
    103  C         63.8090   45.0690   16.9450 C.2   195  THR195      0.2642
    104  O         63.7340   45.4230   15.7660 O.2   195  THR195     -0.2714
    105  CB        62.4730   46.6910   18.2860 C.3   195  THR195      0.1808
    106  OG1       61.5000   45.6890   17.9600 O.3   195  THR195     -0.2208
    107  CG2       62.2390   47.9380   17.4300 C.3   195  THR195      0.0379
    108  N         63.9070   43.8010   17.3050 N.am  196  THR196     -0.1950
    109  CA        63.9170   42.7680   16.2830 C.3   196  THR196      0.1897
    110  C         62.6170   42.7530   15.4860 C.2   196  THR196      0.2313
    111  O         62.6160   42.5200   14.2760 O.2   196  THR196     -0.2863
    112  CB        64.2110   41.3760   16.8530 C.3   196  THR196      0.1794
    113  OG1       63.1510   40.9860   17.7290 O.3   196  THR196     -0.2208
    114  CG2       65.5560   41.3470   17.5550 C.3   196  THR196      0.0378
    115  N         68.5990   46.5530   15.4650 N.3   219  LEU219     -0.1245
    116  CA        68.8490   45.3480   16.2650 C.3   219  LEU219      0.1561
    117  C         67.8970   44.2690   15.7730 C.2   219  LEU219      0.2260
    118  O         66.7120   44.3280   16.0320 O.2   219  LEU219     -0.2867
    119  CB        68.6240   45.6640   17.7560 C.3   219  LEU219      0.0270
    120  CG        69.5170   46.8010   18.2810 C.3   219  LEU219      0.0019
    121  CD1       69.1830   47.1050   19.7350 C.3   219  LEU219      0.0001
    122  CD2       71.0290   46.4960   18.0840 C.3   219  LEU219      0.0001
    123  N         73.1970   40.0260   19.2980 N.3   241  TRP241     -0.1241
    124  CA        73.8890   39.2690   20.3450 C.3   241  TRP241      0.1605
    125  C         73.1130   37.9670   20.3540 C.2   241  TRP241      0.2264
    126  O         72.0800   37.8690   19.6990 O.2   241  TRP241     -0.2867
    127  CB        73.8140   39.9690   21.7290 C.3   241  TRP241      0.0550
    128  CG        72.4190   40.2720   22.0770 C.ar  241  TRP241      0.0003
    129  CD1       71.4920   39.4270   22.5880 C.ar  241  TRP241      0.0946
    130  CD2       71.7610   41.5160   21.8510 C.ar  241  TRP241      0.0152
    131  NE1       70.2860   40.0700   22.7160 N.ar  241  TRP241     -0.2442
    132  CE2       70.4220   41.3570   22.2550 C.ar  241  TRP241      0.0810
    133  CE3       72.1790   42.7470   21.3550 C.ar  241  TRP241      0.0012
    134  CZ2       69.4900   42.3970   22.1730 C.ar  241  TRP241      0.0191
    135  CZ3       71.2630   43.7770   21.2930 C.ar  241  TRP241      0.0001
    136  CH2       69.9290   43.5920   21.6830 C.ar  241  TRP241      0.0015
@<TRIPOS>BOND
     1   111   110    2
     2   115   116    1
     3   110   109    1
     4   104   103    2
     5   117   118    2
     6   117   116    1
     7   116   119    1
     8   109   112    1
     9   109   108    1
    10    94   100    1
    11    94    95    1
    12   112   114    1
    13   112   113    1
    14   103   108   am
    15   103   102    1
    16   100    99    1
    17   107   105    1
    18   101   102    1
    19   101    96   am
    20   119   120    1
    21    95    96    1
    22    95    98    1
    23   106   105    1
    24   102   105    1
    25   122   120    1
    26   120   121    1
    27    96    97    2
    28    99    98    1
    29    88    89    2
    30    88    87    1
    31    16    15    2
    32    18    19    1
    33    11    12    1
    34    11    10    1
    35    11    14    1
    36    12    13    2
    37   123   124    1
    38    87    86    1
    39    87    90    1
    40   126   125    2
    41    92    91   ar
    42    22    19    1
    43    22    23    1
    44    15    14    1
    45    15    17   am
    46    19    20    1
    47   124   125    1
    48   124   127    1
    49    25    23   ar
    50    25    27   ar
    51    90    91    1
    52    91    93   ar
    53    23    24   ar
    54   135   133   ar
    55   135   136   ar
    56    20    30   am
    57    20    21    2
    58   133   130   ar
    59    27    28   ar
    60   136   134   ar
    61   127   128    1
    62    71    69   am
    63    30    31    1
    64   130   128   ar
    65   130   132   ar
    66    68    69    1
    67    68    67    1
    68   128   129   ar
    69   134   132   ar
    70    24    26   ar
    71   132   131   ar
    72    69    70    2
    73   129   131   ar
    74    75    74    2
    75    82    84   ar
    76    82    79   ar
    77    84    85   ar
    78    28    26   ar
    79    28    29    1
    80    76    77    1
    81    76    73    1
    82    67    64    1
    83    31    32    1
    84    31    34    1
    85    74    73    1
    86    79    77   ar
    87    79    81   ar
    88    32    33    2
    89    85    83   ar
    90    77    78   ar
    91    34    35    1
    92    37    35   am
    93    35    36    2
    94    73    72    1
    95    66    65    2
    96    64    65    1
    97    64    63    1
    98    81    83   ar
    99    81    80   ar
   100    78    80   ar
   101     9     8    1
   102    63    57   am
   103    54    52   am
   104    51    50    1
   105    51    52    1
   106    50    47    1
   107    49    48    2
   108    62    60   am
   109    44    43   ar
   110     7     8    1
   111     7     6    1
   112    58    57    2
   113    57    56    1
   114    61    60    2
   115    60    59    1
   116    52    53    2
   117    48    47    1
   118    45    43   ar
   119     5     6    1
   120     5     2    1
   121    43    42    1
   122    47    46    1
   123    59    56    1
   124     3     4    2
   125     3     2    1
   126    56    55    1
   127     2     1    1
   128    42    39    1
   129    41    40    2
   130    39    40    1
   131    39    38    1
