@<TRIPOS>MOLECULE
tmp/4x0fB00.pdb
 155 152 0 0 0
SMALL
GASTEIGER

@<TRIPOS>ATOM
      1  N        -44.3550   11.6560  -19.5020 N.3   162  TYR162     -0.1227
      2  CA       -43.1960   11.6590  -18.6080 C.3   162  TYR162      0.1736
      3  C        -43.5710   11.9540  -17.1470 C.2   162  TYR162      0.2595
      4  O        -43.1580   11.1930  -16.2690 O.2   162  TYR162     -0.2718
      5  CB       -42.1100   12.6180  -19.1460 C.3   162  TYR162      0.0548
      6  CG       -40.9090   12.7730  -18.2380 C.ar  162  TYR162     -0.0200
      7  CD1      -40.9310   13.6570  -17.1700 C.ar  162  TYR162     -0.0009
      8  CD2      -39.7360   12.0630  -18.4710 C.ar  162  TYR162     -0.0009
      9  CE1      -39.8370   13.7970  -16.3220 C.ar  162  TYR162      0.0417
     10  CE2      -38.6180   12.2220  -17.6480 C.ar  162  TYR162      0.0417
     11  CZ       -38.6760   13.0870  -16.5690 C.ar  162  TYR162      0.1957
     12  OH       -37.5890   13.2710  -15.7460 O.3   162  TYR162     -0.2866
     13  N        -44.3510   13.0470  -16.8990 N.am  163  HIS163     -0.1975
     14  CA       -44.7930   13.5180  -15.5780 C.3   163  HIS163      0.1656
     15  C        -46.0090   12.7480  -15.0640 C.2   163  HIS163      0.2291
     16  O        -47.1090   13.2950  -14.8360 O.2   163  HIS163     -0.2864
     17  CB       -45.0210   15.0380  -15.5780 C.3   163  HIS163      0.0771
     18  CG       -43.7540   15.8020  -15.8020 C.ar  163  HIS163      0.0820
     19  ND1      -43.4210   16.2980  -17.0530 N.ar  163  HIS163     -0.2267
     20  CD2      -42.7300   16.0490  -14.9500 C.ar  163  HIS163      0.1154
     21  CE1      -42.2220   16.8450  -16.9190 C.ar  163  HIS163      0.1986
     22  NE2      -41.7650   16.7210  -15.6710 N.ar  163  HIS163     -0.2212
     23  N        -37.6220   24.5620  -12.4740 N.3   276  MET276     -0.1245
     24  CA       -36.3920   24.5500  -13.2610 C.3   276  MET276      0.1570
     25  C        -35.7920   25.9550  -13.3970 C.2   276  MET276      0.2261
     26  O        -34.5890   26.0540  -13.5320 O.2   276  MET276     -0.2867
     27  CB       -36.5640   23.8400  -14.6220 C.3   276  MET276      0.0387
     28  CG       -37.0810   22.4170  -14.5210 C.3   276  MET276      0.0595
     29  SD       -35.8810   21.1560  -14.0070 S.3   276  MET276     -0.1393
     30  CE       -36.2980   20.9330  -12.2380 C.3   276  MET276      0.0692
     31  N        -34.5550   14.8940   -9.3060 N.3   321  ASP321     -0.1225
     32  CA       -35.4920   15.2280  -10.3810 C.3   321  ASP321      0.1805
     33  C        -34.7270   15.2340  -11.7290 C.2   321  ASP321      0.2597
     34  O        -35.2870   14.8280  -12.7550 O.2   321  ASP321     -0.2718
     35  CB       -36.1850   16.5790  -10.0800 C.3   321  ASP321      0.1424
     36  CG       -37.4310   16.9370  -10.8850 C.2   321  ASP321      0.3668
     37  OD1      -38.0350   16.0210  -11.5010 O.co2 321  ASP321     -0.2456
     38  OD2      -37.8250   18.1320  -10.8680 O.co2 321  ASP321     -0.2456
     39  N        -33.4340   15.6400  -11.7070 N.am  322  LEU322     -0.1979
     40  CA       -32.5790   15.6480  -12.8970 C.3   322  LEU322      0.1596
     41  C        -31.5960   14.4440  -12.8790 C.2   322  LEU322      0.2287
     42  O        -30.4310   14.5750  -13.2750 O.2   322  LEU322     -0.2864
     43  CB       -31.8150   16.9910  -13.0210 C.3   322  LEU322      0.0297
     44  CG       -32.6130   18.3000  -13.2070 C.3   322  LEU322      0.0022
     45  CD1      -31.6810   19.5070  -13.1790 C.3   322  LEU322      0.0001
     46  CD2      -33.4120   18.3090  -14.5210 C.3   322  LEU322      0.0001
     47  N        -32.1380   11.2050  -14.4250 N.3   324  ASN324     -0.1226
     48  CA       -32.2330   10.3830  -15.6440 C.3   324  ASN324      0.1770
     49  C        -30.9210   10.1890  -16.4190 C.2   324  ASN324      0.2439
     50  O        -30.5480    9.0350  -16.6290 O.2   324  ASN324     -0.2733
     51  CB       -33.3130   10.9100  -16.5830 C.3   324  ASN324      0.1168
     52  CG       -34.6980   10.9140  -16.0110 C.2   324  ASN324      0.2627
     53  OD1      -34.9900   10.2810  -14.9880 O.2   324  ASN324     -0.2716
     54  ND2      -35.5890   11.6060  -16.6930 N.am  324  ASN324     -0.0877
     55  N        -30.1730   11.2570  -16.8250 N.am  325  PRO325     -0.2729
     56  CA       -28.9290   11.0190  -17.5820 C.3   325  PRO325      0.1401
     57  C        -27.8290   10.2820  -16.8180 C.2   325  PRO325      0.2269
     58  O        -26.9320    9.7410  -17.4630 O.2   325  PRO325     -0.2865
     59  CB       -28.5080   12.4300  -18.0210 C.3   325  PRO325      0.0296
     60  CG       -29.7460   13.2620  -17.9210 C.3   325  PRO325      0.0237
     61  CD       -30.4280   12.7110  -16.7080 C.3   325  PRO325      0.0939
     62  N        -32.1150    5.4070  -18.8860 N.3   332  TYR332     -0.1241
     63  CA       -31.9620    6.7590  -19.4350 C.3   332  TYR332      0.1605
     64  C        -32.6200    6.9160  -20.8050 C.2   332  TYR332      0.2264
     65  O        -33.4280    7.8300  -20.9820 O.2   332  TYR332     -0.2867
     66  CB       -30.4840    7.1880  -19.4430 C.3   332  TYR332      0.0534
     67  CG       -30.1820    8.5480  -20.0580 C.ar  332  TYR332     -0.0201
     68  CD1      -31.1210    9.5780  -20.0330 C.ar  332  TYR332     -0.0009
     69  CD2      -28.9240    8.8290  -20.5920 C.ar  332  TYR332     -0.0009
     70  CE1      -30.8530   10.8150  -20.6170 C.ar  332  TYR332      0.0417
     71  CE2      -28.6290   10.0800  -21.1340 C.ar  332  TYR332      0.0417
     72  CZ       -29.5990   11.0660  -21.1540 C.ar  332  TYR332      0.1957
     73  OH       -29.3090   12.2890  -21.7010 O.3   332  TYR332     -0.2866
     74  N        -36.2850    7.2430  -20.6000 N.3   335  TRP335     -0.1227
     75  CA       -36.7020    8.5340  -20.0740 C.3   335  TRP335      0.1737
     76  C        -36.7010    9.5810  -21.1840 C.2   335  TRP335      0.2596
     77  O        -37.5950   10.4320  -21.2230 O.2   335  TRP335     -0.2718
     78  CB       -35.8330    8.9580  -18.8760 C.3   335  TRP335      0.0564
     79  CG       -36.0830    8.1760  -17.6180 C.ar  335  TRP335      0.0003
     80  CD1      -35.1700    7.4410  -16.9160 C.ar  335  TRP335      0.0946
     81  CD2      -37.3310    8.0500  -16.9120 C.ar  335  TRP335      0.0152
     82  NE1      -35.7750    6.8530  -15.8200 N.ar  335  TRP335     -0.2442
     83  CE2      -37.0970    7.2240  -15.7880 C.ar  335  TRP335      0.0810
     84  CE3      -38.6250    8.5490  -17.1230 C.ar  335  TRP335      0.0012
     85  CZ2      -38.1100    6.8850  -14.8840 C.ar  335  TRP335      0.0191
     86  CZ3      -39.6260    8.2200  -16.2220 C.ar  335  TRP335      0.0001
     87  CH2      -39.3670    7.3940  -15.1200 C.ar  335  TRP335      0.0015
     88  N        -35.7210    9.4770  -22.1090 N.am  336  THR336     -0.1953
     89  CA       -35.5380   10.3770  -23.2500 C.3   336  THR336      0.1897
     90  C        -36.7300   10.2860  -24.1880 C.2   336  THR336      0.2313
     91  O        -37.2240   11.3150  -24.6410 O.2   336  THR336     -0.2863
     92  CB       -34.1910   10.1300  -23.9280 C.3   336  THR336      0.1794
     93  OG1      -33.1530   10.1710  -22.9450 O.3   336  THR336     -0.2208
     94  CG2      -33.8870   11.1500  -25.0090 C.3   336  THR336      0.0378
     95  N        -39.7890   11.8200  -22.2810 N.3   339  ILE339     -0.1231
     96  CA       -39.7270   13.2930  -22.2430 C.3   339  ILE339      0.1692
     97  C        -40.0920   13.8990  -23.5880 C.2   339  ILE339      0.2591
     98  O        -40.8430   14.8800  -23.6220 O.2   339  ILE339     -0.2718
     99  CB       -38.4000   13.8900  -21.6640 C.3   339  ILE339      0.0266
    100  CG1      -38.5640   15.3670  -21.2560 C.3   339  ILE339      0.0019
    101  CG2      -37.1880   13.7010  -22.5760 C.3   339  ILE339      0.0020
    102  CD1      -39.6840   15.6480  -20.2730 C.3   339  ILE339      0.0001
    103  N        -39.6030   13.2870  -24.6780 N.am  340  MET340     -0.1979
    104  CA       -39.8740   13.7510  -26.0260 C.3   340  MET340      0.1605
    105  C        -41.3240   13.5910  -26.3700 C.2   340  MET340      0.2287
    106  O        -41.9280   14.5240  -26.8870 O.2   340  MET340     -0.2864
    107  CB       -38.9850   13.0410  -27.0490 C.3   340  MET340      0.0413
    108  CG       -37.5250   13.3920  -26.9300 C.3   340  MET340      0.0598
    109  SD       -37.1980   15.1260  -26.5610 S.3   340  MET340     -0.1393
    110  CE       -35.3780   15.0920  -26.4380 C.3   340  MET340      0.0692
    111  N        -43.1380   16.3020  -24.7830 N.3   343  PHE343     -0.1241
    112  CA       -42.7790   17.5360  -25.4590 C.3   343  PHE343      0.1605
    113  C        -43.5760   17.6890  -26.7380 C.2   343  PHE343      0.2264
    114  O        -44.1240   18.7630  -26.9830 O.2   343  PHE343     -0.2867
    115  CB       -41.2700   17.5660  -25.7170 C.3   343  PHE343      0.0534
    116  CG       -40.4890   18.2980  -24.6560 C.ar  343  PHE343     -0.0203
    117  CD1      -40.7360   18.0740  -23.3040 C.ar  343  PHE343     -0.0042
    118  CD2      -39.5010   19.2080  -25.0040 C.ar  343  PHE343     -0.0042
    119  CE1      -40.0290   18.7780  -22.3150 C.ar  343  PHE343     -0.0003
    120  CE2      -38.7840   19.9030  -24.0190 C.ar  343  PHE343     -0.0003
    121  CZ       -39.0550   19.6890  -22.6800 C.ar  343  PHE343     -0.0000
    122  N        -38.3090   22.4590  -29.3400 N.3   360  MET360     -0.1245
    123  CA       -38.2760   21.0030  -29.1190 C.3   360  MET360      0.1570
    124  C        -39.6180   20.3160  -29.3190 C.2   360  MET360      0.2261
    125  O        -39.6250   19.1400  -29.6460 O.2   360  MET360     -0.2867
    126  CB       -37.6770   20.5950  -27.7500 C.3   360  MET360      0.0387
    127  CG       -36.2860   21.1420  -27.4860 C.3   360  MET360      0.0595
    128  SD       -34.9660   19.9590  -27.7670 S.3   360  MET360     -0.1393
    129  CE       -34.8550   19.9440  -29.5790 C.3   360  MET360      0.0692
    130  N        -29.5770   17.3310  -28.3520 N.3   371  SER371     -0.1202
    131  CA       -30.2750   17.9580  -27.2360 C.3   371  SER371      0.2020
    132  C        -29.8630   17.4270  -25.8760 C.2   371  SER371      0.2618
    133  O        -29.6270   18.2170  -24.9570 O.2   371  SER371     -0.2717
    134  CB       -31.7800   17.8420  -27.4130 C.3   371  SER371      0.2103
    135  OG       -32.3460   18.9890  -26.8140 O.3   371  SER371     -0.2182
    136  N        -29.7730   16.0970  -25.7450 N.am  372  GLN372     -0.1979
    137  CA       -29.3480   15.4650  -24.5000 C.3   372  GLN372      0.1601
    138  C        -27.9290   15.8750  -24.1740 C.2   372  GLN372      0.2287
    139  O        -27.6180   16.1310  -23.0090 O.2   372  GLN372     -0.2864
    140  CB       -29.4430   13.9320  -24.5900 C.3   372  GLN372      0.0394
    141  CG       -30.8660   13.3810  -24.6720 C.3   372  GLN372      0.0908
    142  CD       -31.7760   13.9900  -23.6370 C.2   372  GLN372      0.2608
    143  OE1      -31.4600   14.0250  -22.4350 O.2   372  GLN372     -0.2717
    144  NE2      -32.9070   14.5180  -24.0950 N.am  372  GLN372     -0.0878
    145  N        -28.1980   19.3830  -22.8200 N.3   375  PHE375     -0.1241
    146  CA       -28.8150   19.2280  -21.5120 C.3   375  PHE375      0.1605
    147  C        -27.8060   18.7680  -20.4710 C.2   375  PHE375      0.2264
    148  O        -27.7340   19.3660  -19.3890 O.2   375  PHE375     -0.2867
    149  CB       -29.9940   18.2450  -21.6240 C.3   375  PHE375      0.0534
    150  CG       -30.8050   17.9920  -20.3740 C.ar  375  PHE375     -0.0203
    151  CD1      -31.2730   19.0450  -19.6030 C.ar  375  PHE375     -0.0042
    152  CD2      -31.1770   16.7050  -20.0190 C.ar  375  PHE375     -0.0042
    153  CE1      -32.0500   18.8100  -18.4690 C.ar  375  PHE375     -0.0003
    154  CE2      -31.9520   16.4700  -18.8890 C.ar  375  PHE375     -0.0003
    155  CZ       -32.3750   17.5210  -18.1150 C.ar  375  PHE375     -0.0000
@<TRIPOS>BOND
     1   125   124    2
     2   129   128    1
     3   122   123    1
     4   124   123    1
     5   123   126    1
     6   130   131    1
     7   128   127    1
     8   126   127    1
     9   134   131    1
    10   134   135    1
    11   131   132    1
    12   107   108    1
    13   107   104    1
    14   114   113    2
    15   108   109    1
    16   106   105    2
    17   113   112    1
    18   109   110    1
    19   105   104    1
    20   104   103    1
    21   132   136   am
    22   132   133    2
    23   136   137    1
    24   115   112    1
    25   115   116    1
    26   112   111    1
    27    94    92    1
    28   118   116   ar
    29   118   120   ar
    30   103    97   am
    31   141   140    1
    32   141   142    1
    33   116   117   ar
    34    91    90    2
    35   140   137    1
    36   137   138    1
    37    90    89    1
    38   138   139    2
    39   144   142   am
    40   120   121   ar
    41    92    89    1
    42    92    93    1
    43   142   143    2
    44    98    97    2
    45    97    96    1
    46   117   119   ar
    47    89    88    1
    48   145   146    1
    49   121   119   ar
    50   101    99    1
    51    95    96    1
    52    96    99    1
    53    88    76   am
    54    73    72    1
    55    99   100    1
    56   149   146    1
    57   149   150    1
    58   146   147    1
    59   100   102    1
    60    77    76    2
    61    76    75    1
    62    72    71   ar
    63    72    70   ar
    64    71    69   ar
    65    65    64    2
    66    64    63    1
    67    70    68   ar
    68    74    75    1
    69    69    67   ar
    70   147   148    2
    71   150   152   ar
    72   150   151   ar
    73    75    78    1
    74    67    68   ar
    75    67    66    1
    76   152   154   ar
    77   151   153   ar
    78     1     2    1
    79    66    63    1
    80    63    62    1
    81     5     2    1
    82     5     6    1
    83   154   155   ar
    84    78    79    1
    85     2     3    1
    86     8     6   ar
    87     8    10   ar
    88   153   155   ar
    89     6     7   ar
    90    59    60    1
    91    59    56    1
    92    60    61    1
    93    10    11   ar
    94    79    80   ar
    95    79    81   ar
    96    56    55    1
    97    56    57    1
    98    58    57    2
    99     7     9   ar
   100     3    13   am
   101     3     4    2
   102    84    81   ar
   103    84    86   ar
   104    19    21   ar
   105    19    18   ar
   106    21    22   ar
   107    80    82   ar
   108    81    83   ar
   109    13    14    1
   110    55    61    1
   111    55    49   am
   112    54    52   am
   113    50    49    2
   114    51    52    1
   115    51    48    1
   116    11     9   ar
   117    11    12    1
   118    49    48    1
   119    86    87   ar
   120    52    53    2
   121    82    83   ar
   122    18    17    1
   123    18    20   ar
   124    83    85   ar
   125    22    20   ar
   126    48    47    1
   127    14    17    1
   128    14    15    1
   129    87    85   ar
   130    15    16    2
   131    27    28    1
   132    27    24    1
   133    46    44    1
   134    28    29    1
   135    29    30    1
   136    26    25    2
   137    25    24    1
   138    42    41    2
   139    24    23    1
   140    44    45    1
   141    44    43    1
   142    43    40    1
   143    40    41    1
   144    40    39    1
   145    34    33    2
   146    33    39   am
   147    33    32    1
   148    37    36   ar
   149    36    38   ar
   150    36    35    1
   151    32    35    1
   152    32    31    1
