@<TRIPOS>MOLECULE
tmp/4x0mA00.pdb
 117 109 0 0 0
SMALL
GASTEIGER

@<TRIPOS>ATOM
      1  N         24.2260   64.0640    3.8880 N.3    13  ILE13      -0.1231
      2  CA        24.4020   65.4800    4.2110 C.3    13  ILE13       0.1692
      3  C         24.1450   65.8190    5.7010 C.2    13  ILE13       0.2592
      4  O         24.4330   66.9410    6.1140 O.2    13  ILE13      -0.2718
      5  CB        23.5800   66.3810    3.2490 C.3    13  ILE13       0.0266
      6  CG1       22.0560   66.1760    3.4170 C.3    13  ILE13       0.0019
      7  CG2       24.0390   66.2040    1.7690 C.3    13  ILE13       0.0020
      8  CD1       21.1790   67.1990    2.6470 C.3    13  ILE13       0.0001
      9  N         23.6750   64.8650    6.5080 N.am   14  GLY14      -0.1957
     10  CA        23.4400   65.1610    7.9160 C.3    14  GLY14       0.1869
     11  C         23.0520   63.9710    8.7560 C.2    14  GLY14       0.2309
     12  O         22.3180   63.1050    8.2950 O.2    14  GLY14      -0.2863
     13  N         19.9910   62.4540    6.8020 N.3    21  VAL21      -0.1245
     14  CA        19.5920   63.1010    5.5480 C.3    21  VAL21       0.1561
     15  C         20.6450   62.8920    4.4620 C.2    21  VAL21       0.2260
     16  O         21.8560   63.0010    4.6930 O.2    21  VAL21      -0.2867
     17  CB        19.1940   64.5950    5.7370 C.3    21  VAL21       0.0252
     18  CG1       18.5930   65.1710    4.4520 C.3    21  VAL21       0.0019
     19  CG2       18.2100   64.7660    6.9060 C.3    21  VAL21       0.0019
     20  N         15.9890   65.5100   -1.2430 N.3    32  ALA32      -0.1245
     21  CA        16.5920   65.1590    0.0360 C.3    32  ALA32       0.1562
     22  C         15.8570   63.9090    0.5230 C.2    32  ALA32       0.2260
     23  O         14.6250   63.7860    0.3570 O.2    32  ALA32      -0.2867
     24  CB        16.4530   66.2850    1.0440 C.3    32  ALA32       0.0290
     25  N         15.3330   61.6600    3.9230 N.3    34  LYS34      -0.1245
     26  CA        15.6060   61.4370    5.3480 C.3    34  LYS34       0.1561
     27  C         15.3980   59.9270    5.5780 C.2    34  LYS34       0.2260
     28  O         14.2820   59.4030    5.3450 O.2    34  LYS34      -0.2867
     29  CB        14.6890   62.2940    6.2300 C.3    34  LYS34       0.0271
     30  CG        15.0610   62.2920    7.7060 C.3    34  LYS34       0.0035
     31  CD        14.1840   63.2460    8.4990 C.3    34  LYS34       0.0206
     32  CE        14.8770   64.5530    8.8070 C.3    34  LYS34       0.1093
     33  NZ        14.0900   65.3760    9.7650 N.3    34  LYS34      -0.1314
     34  N          8.8380   73.0870    3.9050 N.3    62  LEU62      -0.1245
     35  CA         9.5450   72.1370    3.0500 C.3    62  LEU62       0.1561
     36  C          8.5400   71.2670    2.2520 C.2    62  LEU62       0.2260
     37  O          7.6000   70.7490    2.8470 O.2    62  LEU62      -0.2867
     38  CB        10.4810   71.2810    3.9030 C.3    62  LEU62       0.0270
     39  CG        11.2260   70.1570    3.1680 C.3    62  LEU62       0.0019
     40  CD1       12.1520   70.7260    2.1010 C.3    62  LEU62       0.0001
     41  CD2       11.9230   69.2520    4.1990 C.3    62  LEU62       0.0001
     42  N         11.9030   64.5130    0.1400 N.3    82  SER82      -0.1202
     43  CA        11.4210   65.8880    0.0810 C.3    82  SER82       0.2020
     44  C         12.2660   66.6840   -0.8900 C.2    82  SER82       0.2619
     45  O         13.2300   66.1680   -1.4390 O.2    82  SER82      -0.2717
     46  CB        11.4810   66.5040    1.4830 C.3    82  SER82       0.2103
     47  OG        12.8130   66.8530    1.8160 O.3    82  SER82      -0.2182
     48  N         11.9190   67.9500   -1.0680 N.am   83  ASP83      -0.1959
     49  CA        12.6650   68.8850   -1.8810 C.3    83  ASP83       0.1840
     50  C         14.0540   69.0570   -1.3350 C.2    83  ASP83       0.2622
     51  O         14.2560   68.9610   -0.1180 O.2    83  ASP83      -0.2715
     52  CB        11.9790   70.2720   -1.8900 C.3    83  ASP83       0.1450
     53  CG        10.6290   70.2880   -2.5780 C.2    83  ASP83       0.3671
     54  OD1       10.2860   69.2900   -3.2330 O.co2  83  ASP83      -0.2456
     55  OD2        9.9570   71.3220   -2.5200 O.co2  83  ASP83      -0.2456
     56  N         15.0030   69.3150   -2.2470 N.am   84  TYR84      -0.1960
     57  CA        16.3980   69.5640   -1.9140 C.3    84  TYR84       0.1771
     58  C         16.7400   71.0370   -2.0850 C.2    84  TYR84       0.2619
     59  O         16.4970   71.6330   -3.1400 O.2    84  TYR84      -0.2715
     60  CB        17.3390   68.6690   -2.7410 C.3    84  TYR84       0.0574
     61  CG        18.7990   68.9760   -2.4960 C.ar   84  TYR84      -0.0198
     62  CD1       19.4120   68.6420   -1.2900 C.ar   84  TYR84      -0.0009
     63  CD2       19.5450   69.6740   -3.4350 C.ar   84  TYR84      -0.0009
     64  CE1       20.7410   68.9810   -1.0360 C.ar   84  TYR84       0.0417
     65  CE2       20.8790   69.9980   -3.2060 C.ar   84  TYR84       0.0417
     66  CZ        21.4700   69.6620   -1.9990 C.ar   84  TYR84       0.1957
     67  OH        22.7880   69.9740   -1.7930 O.3    84  TYR84      -0.2866
     68  N         17.2650   71.6200   -1.0110 N.am   85  HIS85      -0.1973
     69  CA        17.7060   73.0160   -0.9740 C.3    85  HIS85       0.1656
     70  C         19.2160   73.1200   -0.7540 C.2    85  HIS85       0.2291
     71  O         19.7120   72.9260    0.3370 O.2    85  HIS85      -0.2864
     72  CB        16.8920   73.7680    0.0680 C.3    85  HIS85       0.0771
     73  CG        15.4570   73.8580   -0.3520 C.ar   85  HIS85       0.0820
     74  ND1       15.0920   74.4680   -1.5410 N.ar   85  HIS85      -0.2267
     75  CD2       14.3530   73.3500    0.2350 C.ar   85  HIS85       0.1154
     76  CE1       13.7820   74.3390   -1.6270 C.ar   85  HIS85       0.1986
     77  NE2       13.2920   73.6580   -0.5870 N.ar   85  HIS85      -0.2212
     78  N         21.0420   74.5690    2.1120 N.3    88  GLY88      -0.1210
     79  CA        20.8160   73.8180    3.3320 C.3    88  GLY88       0.1956
     80  C         20.2140   74.7450    4.3700 C.2    88  GLY88       0.2612
     81  O         19.5380   75.7210    4.0130 O.2    88  GLY88      -0.2717
     82  N         20.5590   74.5160    5.6440 N.am   89  SER89      -0.1952
     83  CA        20.0220   75.2720    6.7600 C.3    89  SER89       0.1924
     84  C         20.3550   76.7600    6.7680 C.2    89  SER89       0.2314
     85  O         21.4170   77.1950    6.2980 O.2    89  SER89      -0.2863
     86  CB        20.4170   74.6410    8.0940 C.3    89  SER89       0.2116
     87  OG        21.7930   74.8480    8.3740 O.3    89  SER89      -0.2180
     88  N         18.7800   75.7220   12.4720 N.3   139  LYS139     -0.1245
     89  CA        19.1830   74.4250   11.8880 C.3   139  LYS139      0.1561
     90  C         17.9780   73.6670   11.2720 C.2   139  LYS139      0.2260
     91  O         18.1900   72.7760   10.4670 O.2   139  LYS139     -0.2867
     92  CB        19.9030   73.5730   12.9370 C.3   139  LYS139      0.0271
     93  CG        21.3650   73.9660   13.1400 C.3   139  LYS139      0.0035
     94  CD        21.9410   73.3570   14.4180 C.3   139  LYS139      0.0206
     95  CE        23.3930   73.6820   14.6210 C.3   139  LYS139      0.1093
     96  NZ        23.8660   73.2260   15.9550 N.3   139  LYS139     -0.1314
     97  N         15.3500   75.8630    6.1590 N.3   142  LEU142     -0.1245
     98  CA        16.2030   75.7830    4.9790 C.3   142  LEU142      0.1561
     99  C         16.0690   77.0580    4.1900 C.2   142  LEU142      0.2260
    100  O         15.0960   77.7790    4.3310 O.2   142  LEU142     -0.2867
    101  CB        15.8890   74.5620    4.0960 C.3   142  LEU142      0.0270
    102  CG        15.7160   73.2420    4.8700 C.3   142  LEU142      0.0019
    103  CD1       15.0650   72.2210    3.9930 C.3   142  LEU142      0.0001
    104  CD2       17.0630   72.7360    5.4320 C.3   142  LEU142      0.0001
    105  N         11.4590   73.2730    7.9820 N.3   152  ALA152     -0.1231
    106  CA        11.7310   71.8720    7.8020 C.3   152  ALA152      0.1694
    107  C         11.7530   71.2640    9.1720 C.2   152  ALA152      0.2592
    108  O         11.5070   71.9820   10.1450 O.2   152  ALA152     -0.2718
    109  CB        13.0730   71.6950    7.1180 C.3   152  ALA152      0.0304
    110  N         11.9970   69.9470    9.2440 N.am  153  ASP153     -0.1974
    111  CA        12.0510   69.1600   10.4730 C.3   153  ASP153      0.1709
    112  C         10.7650   69.2950   11.3040 C.2   153  ASP153      0.2293
    113  O         10.7800   69.6770   12.4790 O.2   153  ASP153     -0.2864
    114  CB        13.3260   69.4580   11.2820 C.3   153  ASP153      0.1436
    115  CG        14.5940   69.0010   10.5860 C.2   153  ASP153      0.3671
    116  OD1       14.7210   69.2400    9.3650 O.co2 153  ASP153     -0.2456
    117  OD2       15.4630   68.4110   11.2620 O.co2 153  ASP153     -0.2456
@<TRIPOS>BOND
     1    63    65   ar
     2    63    61   ar
     3    54    53   ar
     4    65    66   ar
     5    59    58    2
     6    60    61    1
     7    60    57    1
     8    53    55   ar
     9    53    52    1
    10    61    62   ar
    11    56    57    1
    12    56    50   am
    13    58    57    1
    14    58    68   am
    15    66    67    1
    16    66    64   ar
    17    52    49    1
    18    49    50    1
    19    49    48    1
    20    76    74   ar
    21    76    77   ar
    22    74    73   ar
    23    45    44    2
    24    50    51    2
    25    62    64   ar
    26    20    21    1
    27    48    44   am
    28    68    69    1
    29    69    70    1
    30    69    72    1
    31    44    43    1
    32    70    71    2
    33    77    75   ar
    34    73    72    1
    35    73    75   ar
    36    21    22    1
    37    21    24    1
    38    43    42    1
    39    43    46    1
    40    23    22    2
    41    46    47    1
    42     7     5    1
    43    40    39    1
    44    78    79    1
    45    36    37    2
    46    36    35    1
    47     8     6    1
    48    35    38    1
    49    35    34    1
    50    39    38    1
    51    39    41    1
    52     5     6    1
    53     5     2    1
    54    79    80    1
    55     1     2    1
    56    25    26    1
    57   103   102    1
    58    81    80    2
    59   101   102    1
    60   101    98    1
    61    99   100    2
    62    99    98    1
    63     2     3    1
    64    80    82   am
    65    18    17    1
    66    15    16    2
    67    15    14    1
    68   102   104    1
    69    98    97    1
    70    28    27    2
    71    26    27    1
    72    26    29    1
    73    14    17    1
    74    14    13    1
    75    82    83    1
    76     3     4    2
    77     3     9   am
    78    17    19    1
    79    29    30    1
    80    85    84    2
    81     9    10    1
    82    83    84    1
    83    83    86    1
    84   109   106    1
    85    30    31    1
    86   106   105    1
    87   106   107    1
    88    10    11    1
    89    86    87    1
    90    12    11    2
    91    31    32    1
    92    32    33    1
    93   107   110   am
    94   107   108    2
    95   110   111    1
    96   116   115   ar
    97    91    90    2
    98   111   114    1
    99   111   112    1
   100   115   117   ar
   101   115   114    1
   102    90    89    1
   103   112   113    2
   104    89    88    1
   105    89    92    1
   106    92    93    1
   107    93    94    1
   108    94    95    1
   109    95    96    1
