@<TRIPOS>MOLECULE
tmp/4x0oH00.pdb
 213 205 0 0 0
SMALL
GASTEIGER

@<TRIPOS>ATOM
      1  N         34.2430   87.0190  134.5680 N.3    29  ASP29      -0.1225
      2  CA        34.9210   88.3160  134.4100 C.3    29  ASP29       0.1805
      3  C         34.9900   88.7340  132.9290 C.2    29  ASP29       0.2598
      4  O         36.0640   88.7690  132.3230 O.2    29  ASP29      -0.2718
      5  CB        36.3250   88.3060  135.0450 C.3    29  ASP29       0.1424
      6  CG        36.9950   89.6910  135.0340 C.2    29  ASP29       0.3668
      7  OD1       36.3000   90.7020  134.7840 O.co2  29  ASP29      -0.2456
      8  OD2       38.2200   89.7720  135.2760 O.co2  29  ASP29      -0.2456
      9  N         33.8340   89.0820  132.3710 N.am   30  THR30      -0.1953
     10  CA        33.7370   89.5250  130.9830 C.3    30  THR30       0.1897
     11  C         32.5940   90.5280  130.8260 C.2    30  THR30       0.2313
     12  O         31.8560   90.8040  131.7760 O.2    30  THR30      -0.2863
     13  CB        33.5330   88.3280  130.0280 C.3    30  THR30       0.1794
     14  OG1       33.6430   88.7650  128.6660 O.3    30  THR30      -0.2208
     15  CG2       32.1710   87.6650  130.2510 C.3    30  THR30       0.0378
     16  N         33.3850   93.8370  125.5420 N.3    34  TRP34      -0.1241
     17  CA        34.5500   93.0650  125.1030 C.3    34  TRP34       0.1605
     18  C         34.1560   92.0150  124.0730 C.2    34  TRP34       0.2264
     19  O         34.7940   91.8920  123.0320 O.2    34  TRP34      -0.2867
     20  CB        35.2630   92.3900  126.2900 C.3    34  TRP34       0.0550
     21  CG        36.5900   91.7780  125.8970 C.ar   34  TRP34       0.0003
     22  CD1       37.8230   92.3720  125.9670 C.ar   34  TRP34       0.0946
     23  CD2       36.8050   90.4710  125.3400 C.ar   34  TRP34       0.0152
     24  NE1       38.7890   91.5070  125.4980 N.ar   34  TRP34      -0.2442
     25  CE2       38.1910   90.3370  125.1080 C.ar   34  TRP34       0.0810
     26  CE3       35.9600   89.3990  125.0180 C.ar   34  TRP34       0.0012
     27  CZ2       38.7540   89.1720  124.5650 C.ar   34  TRP34       0.0191
     28  CZ3       36.5220   88.2330  124.4790 C.ar   34  TRP34       0.0001
     29  CH2       37.9080   88.1370  124.2550 C.ar   34  TRP34       0.0015
     30  N         35.2960   92.1730  120.1090 N.3    38  ARG38      -0.1227
     31  CA        36.3320   91.2070  119.7050 C.3    38  ARG38       0.1737
     32  C         35.7910   90.1140  118.7800 C.2    38  ARG38       0.2596
     33  O         36.5090   89.6570  117.8880 O.2    38  ARG38      -0.2718
     34  CB        36.9710   90.5280  120.9190 C.3    38  ARG38       0.0576
     35  CG        38.1470   91.2260  121.5570 C.2    38  ARG38       0.0160
     36  CD        38.0910   92.7330  121.5430 C.2    38  ARG38       0.1886
     37  NE        39.0750   93.4420  122.3380 N.pl3  38  ARG38      -0.0578
     38  CZ        39.0650   94.7170  122.6690 C.cat  38  ARG38       0.5393
     39  NH1       38.0950   95.5300  122.2690 N.pl3  38  ARG38       0.1358
     40  NH2       40.0430   95.2320  123.4210 N.pl3  38  ARG38       0.1358
     41  N         34.5470   89.6920  119.0020 N.am   39  THR39      -0.1953
     42  CA        33.9760   88.5350  118.3010 C.3    39  THR39       0.1897
     43  C         32.7710   88.8350  117.4000 C.2    39  THR39       0.2313
     44  O         32.4870   88.0630  116.4800 O.2    39  THR39      -0.2863
     45  CB        33.5350   87.4350  119.3100 C.3    39  THR39       0.1794
     46  OG1       32.3580   87.8490  120.0130 O.3    39  THR39      -0.2208
     47  CG2       34.6420   87.1370  120.3200 C.3    39  THR39       0.0378
     48  N         36.3800   82.0690  130.6490 N.3   150  ARG150     -0.1231
     49  CA        35.7870   83.0960  129.8070 C.3   150  ARG150      0.1694
     50  C         36.2490   83.0650  128.3460 C.2   150  ARG150      0.2592
     51  O         35.5080   83.4940  127.4540 O.2   150  ARG150     -0.2718
     52  CB        36.0760   84.4760  130.4010 C.3   150  ARG150      0.0321
     53  CG        37.5460   84.8560  130.4030 C.3   150  ARG150      0.0489
     54  CD        37.7590   86.2420  130.9790 C.3   150  ARG150      0.2205
     55  NE        39.1760   86.5930  130.9710 N.pl3 150  ARG150     -0.0865
     56  CZ        39.6700   87.7780  131.3240 C.cat 150  ARG150      0.5346
     57  NH1       38.8640   88.7610  131.7210 N.pl3 150  ARG150      0.1354
     58  NH2       40.9810   87.9800  131.2760 N.pl3 150  ARG150      0.1354
     59  N         37.4660   82.5790  128.1050 N.am  151  ASP151     -0.1974
     60  CA        38.0450   82.5930  126.7550 C.3   151  ASP151      0.1709
     61  C         37.1900   81.8290  125.7550 C.2   151  ASP151      0.2293
     62  O         37.0300   82.2570  124.6150 O.2   151  ASP151     -0.2864
     63  CB        39.4690   82.0220  126.7610 C.3   151  ASP151      0.1436
     64  CG        40.5430   82.9890  127.1170 C.2   151  ASP151      0.3671
     65  OD1       40.2930   84.1640  127.2840 O.co2 151  ASP151     -0.2456
     66  OD2       41.7380   82.4860  127.1700 O.co2 151  ASP151     -0.2456
     67  N         32.2150   82.0900  126.0490 N.3   154  VAL154     -0.1231
     68  CA        31.4240   83.1180  125.3850 C.3   154  VAL154      0.1692
     69  C         31.3250   82.9550  123.8610 C.2   154  VAL154      0.2592
     70  O         30.6650   83.7610  123.1920 O.2   154  VAL154     -0.2718
     71  CB        31.9870   84.5440  125.6940 C.3   154  VAL154      0.0266
     72  CG1       32.0410   84.7860  127.1950 C.3   154  VAL154      0.0020
     73  CG2       33.3590   84.7450  125.0750 C.3   154  VAL154      0.0020
     74  N         32.0020   81.9540  123.3120 N.am  155  LEU155     -0.1966
     75  CA        32.1660   81.8480  121.8520 C.3   155  LEU155      0.1728
     76  C         31.1700   80.9270  121.1710 C.2   155  LEU155      0.2616
     77  O         30.8890   81.0920  119.9800 O.2   155  LEU155     -0.2715
     78  CB        33.5800   81.3530  121.5180 C.3   155  LEU155      0.0311
     79  CG        34.7520   82.2310  121.9530 C.3   155  LEU155      0.0022
     80  CD1       36.0820   81.5670  121.5820 C.3   155  LEU155      0.0001
     81  CD2       34.6780   83.6170  121.3490 C.3   155  LEU155      0.0001
     82  N         30.6460   79.9550  121.9190 N.am  156  PHE156     -0.1974
     83  CA        29.9930   78.8060  121.3260 C.3   156  PHE156      0.1639
     84  C         28.5210   78.6850  121.6640 C.2   156  PHE156      0.2290
     85  O         28.0940   79.0310  122.7660 O.2   156  PHE156     -0.2864
     86  CB        30.7120   77.5360  121.7630 C.3   156  PHE156      0.0560
     87  CG        32.1470   77.4790  121.3270 C.ar  156  PHE156     -0.0200
     88  CD1       32.4650   77.2710  119.9890 C.ar  156  PHE156     -0.0042
     89  CD2       33.1750   77.6010  122.2410 C.ar  156  PHE156     -0.0042
     90  CE1       33.7730   77.1890  119.5770 C.ar  156  PHE156     -0.0003
     91  CE2       34.4930   77.5300  121.8350 C.ar  156  PHE156     -0.0003
     92  CZ        34.7920   77.3090  120.5020 C.ar  156  PHE156     -0.0000
     93  N         43.4050   73.8850  119.7060 N.3   189  LEU189     -0.1245
     94  CA        41.9500   73.9110  119.7720 C.3   189  LEU189      0.1561
     95  C         41.4160   72.4760  119.9660 C.2   189  LEU189      0.2260
     96  O         41.2590   71.7180  118.9960 O.2   189  LEU189     -0.2867
     97  CB        41.3890   74.5360  118.4960 C.3   189  LEU189      0.0270
     98  CG        39.8740   74.6240  118.3140 C.3   189  LEU189      0.0019
     99  CD1       39.1560   75.0240  119.5950 C.3   189  LEU189      0.0001
    100  CD2       39.5410   75.5850  117.1870 C.3   189  LEU189      0.0001
    101  N         42.6660   76.3450  124.0190 N.3   212  PHE212     -0.1241
    102  CA        42.2100   77.3350  123.0660 C.3   212  PHE212      0.1605
    103  C         43.1840   78.5110  123.0190 C.2   212  PHE212      0.2264
    104  O         43.1980   79.3510  123.9130 O.2   212  PHE212     -0.2867
    105  CB        40.8040   77.8230  123.4510 C.3   212  PHE212      0.0534
    106  CG        40.1640   78.7020  122.4170 C.ar  212  PHE212     -0.0203
    107  CD1       40.3860   80.0750  122.4180 C.ar  212  PHE212     -0.0042
    108  CD2       39.3390   78.1610  121.4470 C.ar  212  PHE212     -0.0042
    109  CE1       39.8010   80.8800  121.4620 C.ar  212  PHE212     -0.0003
    110  CE2       38.7450   78.9660  120.4900 C.ar  212  PHE212     -0.0003
    111  CZ        38.9780   80.3300  120.4990 C.ar  212  PHE212     -0.0000
    112  N         43.4890   81.4900  121.1890 N.3   214  GLY214     -0.1210
    113  CA        42.6880   82.3410  120.3170 C.3   214  GLY214      0.1956
    114  C         43.4450   83.0030  119.1810 C.2   214  GLY214      0.2611
    115  O         42.9720   83.0270  118.0430 O.2   214  GLY214     -0.2717
    116  N         44.6250   83.5240  119.4940 N.am  215  LYS215     -0.1979
    117  CA        45.4040   84.3360  118.5580 C.3   215  LYS215      0.1596
    118  C         45.9930   83.5070  117.4130 C.2   215  LYS215      0.2287
    119  O         45.9620   83.9270  116.2600 O.2   215  LYS215     -0.2864
    120  CB        46.5210   85.0500  119.3270 C.3   215  LYS215      0.0298
    121  CG        47.3890   85.9540  118.4820 C.3   215  LYS215      0.0038
    122  CD        48.4650   86.6110  119.3360 C.3   215  LYS215      0.0206
    123  CE        49.8770   86.2250  118.8800 C.3   215  LYS215      0.1093
    124  NZ        50.2000   84.8640  119.2660 N.3   215  LYS215     -0.1314
    125  N         44.8300   80.5390  116.4910 N.3   217  ILE217     -0.1231
    126  CA        43.6430   80.0790  115.7740 C.3   217  ILE217      0.1692
    127  C         43.1790   81.1390  114.7780 C.2   217  ILE217      0.2592
    128  O         42.8890   80.8370  113.6260 O.2   217  ILE217     -0.2718
    129  CB        42.4820   79.7650  116.7540 C.3   217  ILE217      0.0266
    130  CG1       42.7920   78.5060  117.5720 C.3   217  ILE217      0.0019
    131  CG2       41.1550   79.5760  116.0130 C.3   217  ILE217      0.0020
    132  CD1       41.9060   78.3290  118.7900 C.3   217  ILE217      0.0001
    133  N         43.0950   82.3780  115.2490 N.am  218  PHE218     -0.1976
    134  CA        42.6710   83.4860  114.4050 C.3   218  PHE218      0.1639
    135  C         43.5550   83.5310  113.1550 C.2   218  PHE218      0.2290
    136  O         43.0570   83.5200  112.0400 O.2   218  PHE218     -0.2864
    137  CB        42.7450   84.8030  115.1790 C.3   218  PHE218      0.0560
    138  CG        42.0730   85.9630  114.4940 C.ar  218  PHE218     -0.0200
    139  CD1       42.6460   86.5660  113.3860 C.ar  218  PHE218     -0.0042
    140  CD2       40.8810   86.4750  114.9850 C.ar  218  PHE218     -0.0042
    141  CE1       42.0260   87.6330  112.7610 C.ar  218  PHE218     -0.0003
    142  CE2       40.2610   87.5420  114.3670 C.ar  218  PHE218     -0.0003
    143  CZ        40.8320   88.1200  113.2530 C.ar  218  PHE218     -0.0000
    144  N         43.4030   80.3940  110.7470 N.3   221  ALA221     -0.1245
    145  CA        42.1000   80.3300  110.1020 C.3   221  ALA221      0.1562
    146  C         42.0140   81.2600  108.8880 C.2   221  ALA221      0.2260
    147  O         41.5030   80.8700  107.8420 O.2   221  ALA221     -0.2867
    148  CB        41.0140   80.6650  111.1130 C.3   221  ALA221      0.0290
    149  N         31.8250   80.1540  107.6940 N.3   249  HIS249     -0.1241
    150  CA        31.7830   79.7240  109.0700 C.3   249  HIS249      0.1621
    151  C         31.7670   80.9640  109.9690 C.2   249  HIS249      0.2264
    152  O         32.3830   81.9770  109.6650 O.2   249  HIS249     -0.2867
    153  CB        32.9850   78.8240  109.3740 C.3   249  HIS249      0.0745
    154  CG        33.0580   78.4070  110.8060 C.ar  249  HIS249      0.0817
    155  ND1       32.0210   77.7720  111.4450 N.ar  249  HIS249     -0.2268
    156  CD2       34.0390   78.5500  111.7230 C.ar  249  HIS249      0.1154
    157  CE1       32.3530   77.5260  112.7010 C.ar  249  HIS249      0.1986
    158  NE2       33.5770   77.9950  112.8900 N.ar  249  HIS249     -0.2212
    159  N         32.8000   82.0160  113.2940 N.3   251  ALA251     -0.1231
    160  CA        33.5940   81.8700  114.5170 C.3   251  ALA251      0.1694
    161  C         33.9710   83.2130  115.1190 C.2   251  ALA251      0.2592
    162  O         34.0570   83.3490  116.3330 O.2   251  ALA251     -0.2718
    163  CB        34.8450   81.0570  114.2370 C.3   251  ALA251      0.0304
    164  N         34.1910   84.2000  114.2610 N.am  252  ASN252     -0.1974
    165  CA        34.5710   85.5540  114.6840 C.3   252  ASN252      0.1688
    166  C         34.3070   86.4880  113.5240 C.2   252  ASN252      0.2292
    167  O         34.7390   86.2170  112.4100 O.2   252  ASN252     -0.2864
    168  CB        36.0490   85.5830  115.0620 C.3   252  ASN252      0.1181
    169  CG        36.4890   86.9040  115.6630 C.2   252  ASN252      0.2629
    170  OD1       36.1990   87.9760  115.1420 O.2   252  ASN252     -0.2716
    171  ND2       37.1820   86.8310  116.7790 N.am  252  ASN252     -0.0877
    172  N         35.5910   89.2460  112.8500 N.3   254  ARG254     -0.1231
    173  CA        36.8630   89.8150  112.3590 C.3   254  ARG254      0.1694
    174  C         37.6330   88.8450  111.4570 C.2   254  ARG254      0.2591
    175  O         38.3500   89.2800  110.5620 O.2   254  ARG254     -0.2718
    176  CB        37.7250   90.3070  113.5260 C.3   254  ARG254      0.0321
    177  CG        37.0750   91.4750  114.2640 C.3   254  ARG254      0.0489
    178  CD        37.9580   92.0660  115.3560 C.3   254  ARG254      0.2205
    179  NE        38.3320   91.0660  116.3580 N.pl3 254  ARG254     -0.0865
    180  CZ        39.5740   90.6380  116.6200 C.cat 254  ARG254      0.5346
    181  NH1       39.7600   89.7050  117.5610 N.pl3 254  ARG254      0.1354
    182  NH2       40.6310   91.1180  115.9700 N.pl3 254  ARG254      0.1354
    183  N         37.4490   87.5390  111.6720 N.am  255  ILE255     -0.1980
    184  CA        37.9920   86.5310  110.7670 C.3   255  ILE255      0.1595
    185  C         37.3030   86.6320  109.4000 C.2   255  ILE255      0.2287
    186  O         37.9600   86.5740  108.3570 O.2   255  ILE255     -0.2864
    187  CB        37.8750   85.1030  111.3570 C.3   255  ILE255      0.0276
    188  CG1       38.8610   84.9460  112.5090 C.3   255  ILE255      0.0022
    189  CG2       38.1110   84.0490  110.2820 C.3   255  ILE255      0.0022
    190  CD1       38.7250   83.6620  113.2980 C.3   255  ILE255      0.0001
    191  N         29.2720   80.8300  117.6190 N.3   279  ASN279     -0.1240
    192  CA        29.8500   79.7370  116.8640 C.3   279  ASN279      0.1653
    193  C         29.1560   78.4070  117.2060 C.2   279  ASN279      0.2266
    194  O         29.3260   77.8740  118.3060 O.2   279  ASN279     -0.2867
    195  CB        31.3460   79.6530  117.1540 C.3   279  ASN279      0.1155
    196  CG        32.0500   78.5650  116.3540 C.2   279  ASN279      0.2627
    197  OD1       31.4180   77.7290  115.7200 O.2   279  ASN279     -0.2716
    198  ND2       33.3760   78.5930  116.3740 N.am  279  ASN279     -0.0877
    199  N         36.5640   76.6390  108.8780 N.3   309  PHE309     -0.1227
    200  CA        37.8130   76.2790  109.5550 C.3   309  PHE309      0.1740
    201  C         37.4230   75.6830  110.9220 C.2   309  PHE309      0.2635
    202  O         36.3230   75.9370  111.4320 O.2   309  PHE309     -0.2714
    203  CB        38.7950   77.5040  109.6370 C.3   309  PHE309      0.0548
    204  CG        40.0780   77.2320  110.3460 C.ar  309  PHE309     -0.0202
    205  CD1       40.1820   77.3300  111.7220 C.ar  309  PHE309     -0.0042
    206  CD2       41.2220   76.9540  109.6080 C.ar  309  PHE309     -0.0042
    207  CE1       41.4030   77.1180  112.3400 C.ar  309  PHE309     -0.0003
    208  CE2       42.4450   76.7360  110.2250 C.ar  309  PHE309     -0.0003
    209  CZ        42.5300   76.8090  111.5960 C.ar  309  PHE309     -0.0000
    210  N         38.2730   74.8260  111.4780 N.am  310  GLY310     -0.1732
    211  CA        37.9580   74.2010  112.7590 C.2   310  GLY310      0.1340
    212  C         39.0720   73.4390  113.4100 C.2   310  GLY310      0.2521
    213  O         40.1910   73.3690  112.8910 O.2   310  GLY310     -0.2816
@<TRIPOS>BOND
     1   149   150    1
     2   147   146    2
     3   186   185    2
     4   199   200    1
     5   146   145    1
     6   150   153    1
     7   150   151    1
     8   153   154    1
     9   185   184    1
    10   200   203    1
    11   200   201    1
    12   206   208   ar
    13   206   204   ar
    14   203   204    1
    15   152   151    2
    16   145   144    1
    17   145   148    1
    18   208   209   ar
    19   189   187    1
    20   204   205   ar
    21   175   174    2
    22   184   187    1
    23   184   183    1
    24   154   155   ar
    25   154   156   ar
    26   201   202    2
    27   201   210    1
    28   187   188    1
    29   155   157   ar
    30   174   183   am
    31   174   173    1
    32   210   211    2
    33   209   207   ar
    34   205   207   ar
    35   156   158   ar
    36   136   135    2
    37   173   172    1
    38   173   176    1
    39   167   166    2
    40   188   190    1
    41   157   158   ar
    42   211   212    1
    43   141   143   ar
    44   141   139   ar
    45   213   212    2
    46   135   134    1
    47   143   142   ar
    48   159   160    1
    49   139   138   ar
    50   166   165    1
    51   176   177    1
    52   128   127    2
    53   163   160    1
    54   164   165    1
    55   164   161   am
    56   177   178    1
    57   142   140   ar
    58   134   137    1
    59   134   133    1
    60   138   140   ar
    61   138   137    1
    62   160   161    1
    63   165   168    1
    64   127   133   am
    65   127   126    1
    66   168   169    1
    67   161   162    2
    68   170   169    2
    69   178   179    1
    70   169   171   am
    71   197   196    2
    72   126   125    1
    73   126   129    1
    74   182   180    1
    75   131   129    1
    76   119   118    2
    77   196   198   am
    78   196   195    1
    79   179   180    2
    80    44    43    2
    81   180   181    1
    82   129   130    1
    83   192   195    1
    84   192   193    1
    85   192   191    1
    86   100    98    1
    87   193   194    2
    88    43    42    1
    89   118   117    1
    90   130   132    1
    91    33    32    2
    92   115   114    2
    93    42    41    1
    94    42    45    1
    95    98    97    1
    96    98    99    1
    97   121   120    1
    98   121   122    1
    99    97    94    1
   100   117   120    1
   101   117   116    1
   102    32    41   am
   103    32    31    1
   104   123   124    1
   105   123   122    1
   106    96    95    2
   107   114   116   am
   108   114   113    1
   109    45    46    1
   110    45    47    1
   111    90    88   ar
   112    90    92   ar
   113    31    30    1
   114    31    34    1
   115    93    94    1
   116    94    95    1
   117    77    76    2
   118    88    87   ar
   119   113   112    1
   120   110   111   ar
   121   110   108   ar
   122   111   109   ar
   123    92    91   ar
   124    34    35    1
   125    76    75    1
   126    76    82   am
   127    83    84    1
   128    83    86    1
   129    83    82    1
   130    87    86    1
   131    87    89   ar
   132    81    79    1
   133   108   106   ar
   134   109   107   ar
   135    78    75    1
   136    78    79    1
   137    36    35    2
   138    36    37    1
   139    80    79    1
   140    84    85    2
   141    91    89   ar
   142    75    74    1
   143    39    38    1
   144    37    38    2
   145   106   107   ar
   146   106   105    1
   147    38    40    1
   148   103   102    1
   149   103   104    2
   150    19    18    2
   151   102   105    1
   152   102   101    1
   153    70    69    2
   154    74    69   am
   155    69    68    1
   156    18    17    1
   157    29    28   ar
   158    29    27   ar
   159    28    26   ar
   160    27    25   ar
   161    62    61    2
   162    26    23   ar
   163    73    71    1
   164    17    16    1
   165    17    20    1
   166    25    23   ar
   167    25    24   ar
   168    23    21   ar
   169    68    71    1
   170    68    67    1
   171    24    22   ar
   172    71    72    1
   173    61    60    1
   174    21    22   ar
   175    21    20    1
   176    60    63    1
   177    60    59    1
   178    63    64    1
   179    64    66   ar
   180    64    65   ar
   181    51    50    2
   182    59    50   am
   183    50    49    1
   184    14    13    1
   185    49    52    1
   186    49    48    1
   187    13    15    1
   188    13    10    1
   189    52    53    1
   190    53    54    1
   191    11    10    1
   192    11    12    2
   193    55    54    1
   194    55    56    2
   195    10     9    1
   196    58    56    1
   197    56    57    1
   198     4     3    2
   199     9     3   am
   200     3     2    1
   201     2     1    1
   202     2     5    1
   203     7     6   ar
   204     6     5    1
   205     6     8   ar
