@<TRIPOS>MOLECULE
tmp/4x0pC00.pdb
 195 189 0 0 0
SMALL
GASTEIGER

@<TRIPOS>ATOM
      1  N         15.1530  -55.6770 -106.3230 N.3   336  ARG336     -0.1245
      2  CA        14.7230  -54.9190 -105.1660 C.3   336  ARG336      0.1563
      3  C         15.9430  -54.1420 -104.6610 C.2   336  ARG336      0.2260
      4  O         17.0410  -54.3140 -105.1940 O.2   336  ARG336     -0.2867
      5  CB        14.1560  -55.8800 -104.1260 C.3   336  ARG336      0.0307
      6  CG        13.5510  -55.2640 -102.8980 C.3   336  ARG336      0.0489
      7  CD        13.0880  -56.3580 -101.9480 C.3   336  ARG336      0.2205
      8  NE        11.8280  -56.9710 -102.3510 N.pl3 336  ARG336     -0.0865
      9  CZ        11.1300  -57.8030 -101.5840 C.cat 336  ARG336      0.5346
     10  NH1       11.5740  -58.1360 -100.3770 N.pl3 336  ARG336      0.1354
     11  NH2        9.9920  -58.3130 -102.0320 N.pl3 336  ARG336      0.1354
     12  N         10.3500  -53.9960  -85.2800 N.3   349  ARG349     -0.1245
     13  CA         8.9730  -53.5700  -85.3300 C.3   349  ARG349      0.1563
     14  C          8.5280  -53.3570  -83.8980 C.2   349  ARG349      0.2260
     15  O          9.0370  -54.0060  -82.9860 O.2   349  ARG349     -0.2867
     16  CB         8.0890  -54.5850  -86.0550 C.3   349  ARG349      0.0307
     17  CG         6.6490  -54.1460  -86.1400 C.3   349  ARG349      0.0489
     18  CD         5.7260  -55.3050  -86.4340 C.3   349  ARG349      0.2205
     19  NE         4.6700  -54.8950  -87.3530 N.pl3 349  ARG349     -0.0865
     20  CZ         4.8490  -54.6540  -88.6490 C.cat 349  ARG349      0.5346
     21  NH1        6.0490  -54.7950  -89.2010 N.pl3 349  ARG349      0.1354
     22  NH2        3.8230  -54.2750  -89.3990 N.pl3 349  ARG349      0.1354
     23  N          2.3310  -46.7690  -98.2660 N.3   379  ASP379     -0.1225
     24  CA         2.3320  -48.2210  -98.3670 C.3   379  ASP379      0.1805
     25  C          1.3670  -48.7530  -99.4160 C.2   379  ASP379      0.2598
     26  O          0.2580  -48.2430  -99.5710 O.2   379  ASP379     -0.2718
     27  CB         1.9990  -48.8390  -97.0170 C.3   379  ASP379      0.1424
     28  CG         2.1460  -50.3470  -97.0210 C.2   379  ASP379      0.3668
     29  OD1        1.2450  -51.0420  -97.5390 O.co2 379  ASP379     -0.2456
     30  OD2        3.1840  -50.8360  -96.5330 O.co2 379  ASP379     -0.2456
     31  N          1.7960  -49.7980 -100.1130 N.am  380  TYR380     -0.1962
     32  CA         0.9540  -50.5040 -101.0710 C.3   380  TYR380      0.1771
     33  C          0.0250  -51.5160 -100.4310 C.2   380  TYR380      0.2620
     34  O          0.4780  -52.3620  -99.6610 O.2   380  TYR380     -0.2715
     35  CB         1.8090  -51.2360 -102.0930 C.3   380  TYR380      0.0574
     36  CG         2.0580  -50.4350 -103.3300 C.ar  380  TYR380     -0.0198
     37  CD1        1.0020  -50.0400 -104.1370 C.ar  380  TYR380     -0.0009
     38  CD2        3.3460  -50.0840 -103.7050 C.ar  380  TYR380     -0.0009
     39  CE1        1.2190  -49.3060 -105.2730 C.ar  380  TYR380      0.0417
     40  CE2        3.5750  -49.3520 -104.8440 C.ar  380  TYR380      0.0417
     41  CZ         2.5100  -48.9650 -105.6230 C.ar  380  TYR380      0.1957
     42  OH         2.7440  -48.2340 -106.7590 O.3   380  TYR380     -0.2866
     43  N         -1.2670  -51.4440 -100.7280 N.am  381  SER381     -0.1936
     44  CA        -2.1360  -52.4510 -100.1630 C.3   381  SER381      0.2055
     45  C         -1.9480  -53.6900 -101.0210 C.2   381  SER381      0.2643
     46  O         -2.3670  -53.7240 -102.1780 O.2   381  SER381     -0.2714
     47  CB        -3.5980  -51.9930 -100.1410 C.3   381  SER381      0.2130
     48  OG        -4.3470  -52.7370  -99.1970 O.3   381  SER381     -0.2179
     49  N         -1.3150  -54.6950 -100.4220 N.am  382  GLN382     -0.1963
     50  CA        -1.1040  -56.0140 -101.0210 C.3   382  GLN382      0.1733
     51  C         -0.7360  -55.9950 -102.5010 C.2   382  GLN382      0.2616
     52  O         -1.5110  -56.4740 -103.3210 O.2   382  GLN382     -0.2715
     53  CB        -2.3530  -56.8600 -100.8340 C.3   382  GLN382      0.0408
     54  CG        -2.8510  -56.8620  -99.4190 C.3   382  GLN382      0.0908
     55  CD        -3.9610  -55.8660  -99.2120 C.2   382  GLN382      0.2608
     56  OE1       -4.4510  -55.2610 -100.1650 O.2   382  GLN382     -0.2717
     57  NE2       -4.3690  -55.6860  -97.9640 N.am  382  GLN382     -0.0878
     58  N          0.4460  -55.5000 -102.8510 N.am  383  LEU383     -0.1963
     59  CA         0.7590  -55.2900 -104.2640 C.3   383  LEU383      0.1728
     60  C          1.0250  -56.5950 -105.0310 C.2   383  LEU383      0.2616
     61  O          0.4670  -56.8230 -106.1210 O.2   383  LEU383     -0.2715
     62  CB         1.9570  -54.3450 -104.4010 C.3   383  LEU383      0.0311
     63  CG         2.4690  -54.1190 -105.8240 C.3   383  LEU383      0.0022
     64  CD1        2.6340  -52.6410 -106.0830 C.3   383  LEU383      0.0001
     65  CD2        3.7860  -54.8210 -106.0410 C.3   383  LEU383      0.0001
     66  N          1.8880  -57.4410 -104.4750 N.am  384  GLU384     -0.1977
     67  CA         2.3380  -58.6440 -105.1700 C.3   384  GLU384      0.1602
     68  C          1.1600  -59.5660 -105.4940 C.2   384  GLU384      0.2287
     69  O          1.1210  -60.1910 -106.5580 O.2   384  GLU384     -0.2864
     70  CB         3.3920  -59.3700 -104.3330 C.3   384  GLU384      0.0415
     71  CG         4.6340  -58.5190 -104.1160 C.3   384  GLU384      0.1163
     72  CD         5.7860  -59.2790 -103.4930 C.2   384  GLU384      0.3649
     73  OE1        5.6390  -60.4910 -103.2350 O.co2 384  GLU384     -0.2457
     74  OE2        6.8350  -58.6520 -103.2370 O.co2 384  GLU384     -0.2457
     75  N         -6.5580  -60.5350  -95.5000 N.3   408  PHE408     -0.1241
     76  CA        -5.9650  -61.1780  -94.3350 C.3   408  PHE408      0.1605
     77  C         -6.9260  -61.1980  -93.1590 C.2   408  PHE408      0.2264
     78  O         -6.9960  -62.1790  -92.4200 O.2   408  PHE408     -0.2867
     79  CB        -4.6800  -60.4460  -93.9540 C.3   408  PHE408      0.0534
     80  CG        -3.7110  -60.3360  -95.0810 C.ar  408  PHE408     -0.0203
     81  CD1       -2.8630  -61.3830  -95.3780 C.ar  408  PHE408     -0.0042
     82  CD2       -3.6860  -59.2080  -95.8830 C.ar  408  PHE408     -0.0042
     83  CE1       -1.9810  -61.3000  -96.4330 C.ar  408  PHE408     -0.0003
     84  CE2       -2.8080  -59.1200  -96.9400 C.ar  408  PHE408     -0.0003
     85  CZ        -1.9530  -60.1680  -97.2160 C.ar  408  PHE408     -0.0000
     86  N         -2.7850  -60.2030  -87.4940 N.3   428  ARG428     -0.1231
     87  CA        -2.8860  -59.8470  -88.9130 C.3   428  ARG428      0.1694
     88  C         -1.5620  -60.0920  -89.6440 C.2   428  ARG428      0.2591
     89  O         -1.5290  -60.6720  -90.7380 O.2   428  ARG428     -0.2718
     90  CB        -3.3260  -58.3860  -89.0700 C.3   428  ARG428      0.0321
     91  CG        -3.4520  -57.9130  -90.5180 C.3   428  ARG428      0.0489
     92  CD        -3.8610  -56.4400  -90.5990 C.3   428  ARG428      0.2205
     93  NE        -4.1110  -56.0010  -91.9720 N.pl3 428  ARG428     -0.0865
     94  CZ        -3.1750  -55.4910  -92.7700 C.cat 428  ARG428      0.5346
     95  NH1       -3.4760  -55.1150  -94.0060 N.pl3 428  ARG428      0.1354
     96  NH2       -1.9310  -55.3540  -92.3310 N.pl3 428  ARG428      0.1354
     97  N         -0.4730  -59.6620  -89.0180 N.am  429  GLN429     -0.1979
     98  CA         0.8590  -59.8280  -89.5840 C.3   429  GLN429      0.1601
     99  C          1.2880  -61.3030  -89.6200 C.2   429  GLN429      0.2287
    100  O          1.8940  -61.7540  -90.6040 O.2   429  GLN429     -0.2864
    101  CB         1.8680  -58.9890  -88.7930 C.3   429  GLN429      0.0394
    102  CG         3.2400  -58.8230  -89.4420 C.3   429  GLN429      0.0908
    103  CD         3.2170  -58.0240  -90.7310 C.2   429  GLN429      0.2608
    104  OE1        3.0840  -56.7990  -90.7180 O.2   429  GLN429     -0.2717
    105  NE2        3.3760  -58.7140  -91.8520 N.am  429  GLN429     -0.0878
    106  N         -0.4480  -62.7240  -92.5620 N.3   432  LYS432     -0.1231
    107  CA         0.2100  -62.3120  -93.7930 C.3   432  LYS432      0.1693
    108  C          1.4340  -63.1780  -94.0720 C.2   432  LYS432      0.2591
    109  O          1.6040  -63.6880  -95.1810 O.2   432  LYS432     -0.2718
    110  CB         0.6040  -60.8450  -93.6980 C.3   432  LYS432      0.0285
    111  CG         1.0620  -60.2170  -94.9830 C.3   432  LYS432      0.0035
    112  CD         1.6720  -58.8800  -94.6620 C.3   432  LYS432      0.0206
    113  CE         0.6310  -57.9390  -94.0970 C.3   432  LYS432      0.1093
    114  NZ         1.2240  -56.6220  -93.7780 N.3   432  LYS432     -0.1314
    115  N          2.2660  -63.3490  -93.0470 N.am  433  GLN433     -0.1979
    116  CA         3.4770  -64.1630  -93.1450 C.3   433  GLN433      0.1601
    117  C          3.1640  -65.5890  -93.5900 C.2   433  GLN433      0.2287
    118  O          3.7660  -66.0960  -94.5460 O.2   433  GLN433     -0.2864
    119  CB         4.1960  -64.1950  -91.7970 C.3   433  GLN433      0.0394
    120  CG         5.3820  -65.1630  -91.6840 C.3   433  GLN433      0.0908
    121  CD         6.5600  -64.8140  -92.5850 C.2   433  GLN433      0.2608
    122  OE1        6.8480  -65.5050  -93.5670 O.2   433  GLN433     -0.2717
    123  NE2        7.2630  -63.7420  -92.2330 N.am  433  GLN433     -0.0878
    124  N          1.6310  -65.4400  -97.5300 N.3   436  TYR436     -0.1227
    125  CA         2.6280  -65.1550  -98.5570 C.3   436  TYR436      0.1736
    126  C          3.6420  -66.2850  -98.5880 C.2   436  TYR436      0.2596
    127  O          4.1470  -66.6410  -99.6520 O.2   436  TYR436     -0.2718
    128  CB         3.3430  -63.8240  -98.3170 C.3   436  TYR436      0.0548
    129  CG         2.6100  -62.6060  -98.8320 C.ar  436  TYR436     -0.0200
    130  CD1        2.5090  -62.3440 -100.1940 C.ar  436  TYR436     -0.0009
    131  CD2        2.0560  -61.6940  -97.9510 C.ar  436  TYR436     -0.0009
    132  CE1        1.8440  -61.2190 -100.6590 C.ar  436  TYR436      0.0417
    133  CE2        1.3960  -60.5690  -98.4060 C.ar  436  TYR436      0.0417
    134  CZ         1.2910  -60.3320  -99.7560 C.ar  436  TYR436      0.1957
    135  OH         0.6310  -59.1980 -100.1830 O.3   436  TYR436     -0.2866
    136  N          3.9390  -66.8380  -97.4120 N.am  437  GLY437     -0.1957
    137  CA         4.8070  -67.9960  -97.3210 C.3   437  GLY437      0.1869
    138  C          4.2490  -69.1410  -98.1530 C.2   437  GLY437      0.2309
    139  O          4.9830  -69.7930  -98.8990 O.2   437  GLY437     -0.2863
    140  N          4.3090  -69.0380 -102.3300 N.3   440  TYR440     -0.1241
    141  CA         5.5900  -69.3280 -102.9590 C.3   440  TYR440      0.1605
    142  C          5.9670  -70.7980 -102.8500 C.2   440  TYR440      0.2264
    143  O          7.0720  -71.1840 -103.2130 O.2   440  TYR440     -0.2867
    144  CB         6.6850  -68.4410 -102.3730 C.3   440  TYR440      0.0534
    145  CG         6.4570  -66.9970 -102.7300 C.ar  440  TYR440     -0.0201
    146  CD1        6.0010  -66.6570 -103.9940 C.ar  440  TYR440     -0.0009
    147  CD2        6.6710  -65.9770 -101.8150 C.ar  440  TYR440     -0.0009
    148  CE1        5.7680  -65.3560 -104.3410 C.ar  440  TYR440      0.0417
    149  CE2        6.4410  -64.6590 -102.1620 C.ar  440  TYR440      0.0417
    150  CZ         5.9910  -64.3600 -103.4260 C.ar  440  TYR440      0.1957
    151  OH         5.7600  -63.0540 -103.7760 O.3   440  TYR440     -0.2866
    152  N          8.2700  -60.7800 -107.0950 N.3   523  GLN523     -0.1245
    153  CA         8.9800  -59.7570 -106.3210 C.3   523  GLN523      0.1566
    154  C          9.8280  -58.8560 -107.2020 C.2   523  GLN523      0.2260
    155  O          9.9480  -57.6580 -106.9450 O.2   523  GLN523     -0.2867
    156  CB         9.8770  -60.3750 -105.2570 C.3   523  GLN523      0.0367
    157  CG         9.1550  -61.0240 -104.1070 C.3   523  GLN523      0.0905
    158  CD        10.1080  -61.3770 -102.9950 C.2   523  GLN523      0.2608
    159  OE1       11.3140  -61.1440 -103.1000 O.2   523  GLN523     -0.2717
    160  NE2        9.5790  -61.9480 -101.9270 N.am  523  GLN523     -0.0878
    161  N         10.9220  -49.3030  -97.9900 N.3   573  LEU573     -0.1231
    162  CA        10.6250  -50.5890  -97.3400 C.3   573  LEU573      0.1693
    163  C         10.0620  -51.6270  -98.3250 C.2   573  LEU573      0.2592
    164  O          9.4010  -52.5900  -97.9320 O.2   573  LEU573     -0.2718
    165  CB         9.6800  -50.4030  -96.1480 C.3   573  LEU573      0.0284
    166  CG        10.3120  -49.6100  -95.0070 C.3   573  LEU573      0.0019
    167  CD1        9.3160  -49.3270  -93.9140 C.3   573  LEU573      0.0001
    168  CD2       11.5080  -50.3650  -94.4450 C.3   573  LEU573      0.0001
    169  N         10.3210  -51.3570  -99.6010 N.am  574  HIS574     -0.1962
    170  CA        10.0890  -52.1910 -100.7910 C.3   574  HIS574      0.1787
    171  C          8.6830  -52.0760 -101.3450 C.2   574  HIS574      0.2620
    172  O          8.5080  -52.1470 -102.5500 O.2   574  HIS574     -0.2715
    173  CB        10.2530  -53.6870 -100.4790 C.3   574  HIS574      0.0785
    174  CG        11.5560  -54.0790  -99.8560 C.ar  574  HIS574      0.0821
    175  ND1       11.7200  -55.3020  -99.2440 N.ar  574  HIS574     -0.2267
    176  CD2       12.7520  -53.4520  -99.7670 C.ar  574  HIS574      0.1154
    177  CE1       12.9520  -55.4050  -98.7850 C.ar  574  HIS574      0.1986
    178  NE2       13.6020  -54.2980  -99.0930 N.ar  574  HIS574     -0.2212
    179  N          7.6750  -51.9260 -100.4940 N.am  575  ASP575     -0.1971
    180  CA         6.3710  -51.4850 -100.9700 C.3   575  ASP575      0.1709
    181  C          6.0180  -50.1460 -100.3560 C.2   575  ASP575      0.2293
    182  O          5.0240  -49.5090 -100.7150 O.2   575  ASP575     -0.2864
    183  CB         5.2990  -52.5310 -100.6800 C.3   575  ASP575      0.1436
    184  CG         4.8170  -52.5090  -99.2440 C.2   575  ASP575      0.3671
    185  OD1        3.6460  -52.8800  -99.0300 O.co2 575  ASP575     -0.2456
    186  OD2        5.5840  -52.1210  -98.3360 O.co2 575  ASP575     -0.2456
    187  N         -2.4370  -47.3850  -98.8740 N.3   610  LYS610     -0.1245
    188  CA        -2.6460  -46.7910  -97.5620 C.3   610  LYS610      0.1561
    189  C         -1.5520  -45.7660  -97.3400 C.2   610  LYS610      0.2260
    190  O         -0.3760  -46.0760  -97.5090 O.2   610  LYS610     -0.2867
    191  CB        -2.6290  -47.8610  -96.4670 C.3   610  LYS610      0.0271
    192  CG        -3.7760  -48.8610  -96.5580 C.3   610  LYS610      0.0035
    193  CD        -3.5110  -50.1280  -95.7430 C.3   610  LYS610      0.0206
    194  CE        -3.3870  -49.8450  -94.2550 C.3   610  LYS610      0.1093
    195  NZ        -3.0830  -51.0840  -93.4870 N.3   610  LYS610     -0.1314
@<TRIPOS>BOND
     1   154   155    2
     2   154   153    1
     3   152   153    1
     4    42    41    1
     5    69    68    2
     6     1     2    1
     7   153   156    1
     8    61    60    2
     9    64    63    1
    10    65    63    1
    11    63    62    1
    12    41    39   ar
    13    41    40   ar
    14    68    67    1
    15    39    37   ar
    16   156   157    1
    17     4     3    2
    18    67    66    1
    19    67    70    1
    20     2     3    1
    21     2     5    1
    22    60    66   am
    23    60    59    1
    24    40    38   ar
    25    62    59    1
    26   148   146   ar
    27   148   150   ar
    28    70    71    1
    29    59    58    1
    30    37    36   ar
    31     5     6    1
    32    71    72    1
    33   157   158    1
    34   146   145   ar
    35   151   150    1
    36    38    36   ar
    37    72    74   ar
    38    72    73   ar
    39   150   149   ar
    40    36    35    1
    41    52    51    2
    42   143   142    2
    43   159   158    2
    44   158   160   am
    45   141   142    1
    46   141   144    1
    47   141   140    1
    48     6     7    1
    49    58    51   am
    50   145   144    1
    51   145   147   ar
    52   172   171    2
    53    51    50    1
    54     8     7    1
    55     8     9    2
    56    46    45    2
    57   149   147   ar
    58    35    32    1
    59    11     9    1
    60     9    10    1
    61   171   170    1
    62   171   179   am
    63    32    33    1
    64    32    31    1
    65    50    53    1
    66    50    49    1
    67    45    49   am
    68    45    44    1
    69   180   183    1
    70   180   179    1
    71   180   181    1
    72    53    54    1
    73   170   173    1
    74   170   169    1
    75    43    33   am
    76    43    44    1
    77   182   181    2
    78   183   184    1
    79   132   130   ar
    80   132   134   ar
    81   173   174    1
    82    33    34    2
    83   130   129   ar
    84   135   134    1
    85    56    55    2
    86    44    47    1
    87    47    48    1
    88    31    25   am
    89   174   176   ar
    90   174   175   ar
    91   176   178   ar
    92   134   133   ar
    93   127   126    2
    94   169   163   am
    95    26    25    2
    96    54    55    1
    97    25    24    1
    98   184   185   ar
    99   184   186   ar
   100   175   177   ar
   101    55    57   am
   102   178   177   ar
   103   139   138    2
   104   187   188    1
   105   129   128    1
   106   129   131   ar
   107   126   125    1
   108   126   136   am
   109   125   128    1
   110   125   124    1
   111   133   131   ar
   112    24    23    1
   113    24    27    1
   114   163   164    2
   115   163   162    1
   116   138   137    1
   117   161   162    1
   118   188   189    1
   119   188   191    1
   120    29    28   ar
   121   190   189    2
   122   136   137    1
   123   162   165    1
   124    85    84   ar
   125    85    83   ar
   126    28    27    1
   127    28    30   ar
   128    84    82   ar
   129   192   191    1
   130   192   193    1
   131    83    81   ar
   132   165   166    1
   133    82    80   ar
   134   193   194    1
   135    75    76    1
   136    81    80   ar
   137   109   108    2
   138    80    79    1
   139   166   168    1
   140   166   167    1
   141   111   112    1
   142   111   110    1
   143   112   113    1
   144   118   117    2
   145    76    79    1
   146    76    77    1
   147   194   195    1
   148   113   114    1
   149   108   107    1
   150   108   115   am
   151    95    94    1
   152   107   110    1
   153   107   106    1
   154   117   116    1
   155   122   121    2
   156    77    78    2
   157   116   115    1
   158   116   119    1
   159    94    96    1
   160    94    93    2
   161   121   123   am
   162   121   120    1
   163    93    92    1
   164   105   103   am
   165   119   120    1
   166    89    88    2
   167   103   104    2
   168   103   102    1
   169   100    99    2
   170    92    91    1
   171    91    90    1
   172    88    97   am
   173    88    87    1
   174    99    98    1
   175    98    97    1
   176    98   101    1
   177   102   101    1
   178    22    20    1
   179    21    20    1
   180    90    87    1
   181    87    86    1
   182    20    19    2
   183    19    18    1
   184    18    17    1
   185    17    16    1
   186    16    13    1
   187    13    12    1
   188    13    14    1
   189    14    15    2
