@<TRIPOS>MOLECULE
tmp/4x0uA00.pdb
 110 105 0 0 0
SMALL
GASTEIGER

@<TRIPOS>ATOM
      1  N         69.9340   77.3390    8.2690 N.3   119  GLU119     -0.1245
      2  CA        69.9150   75.9040    8.0300 C.3   119  GLU119      0.1567
      3  C         69.7370   75.6250    6.5330 C.2   119  GLU119      0.2260
      4  O         70.4120   74.7610    5.9750 O.2   119  GLU119     -0.2867
      5  CB        68.8200   75.2270    8.8540 C.3   119  GLU119      0.0388
      6  CG        68.7430   73.7250    8.6770 C.3   119  GLU119      0.1160
      7  CD        69.9870   73.0100    9.1660 C.2   119  GLU119      0.3649
      8  OE1       70.2570   71.8940    8.6740 O.co2 119  GLU119     -0.2457
      9  OE2       70.6910   73.5590   10.0410 O.co2 119  GLU119     -0.2457
     10  N         72.2370   73.7940    3.9430 N.3   123  ILE123     -0.1245
     11  CA        71.7680   72.6800    3.1350 C.3   123  ILE123      0.1561
     12  C         72.1940   72.8610    1.6770 C.2   123  ILE123      0.2260
     13  O         72.6800   71.9150    1.0310 O.2   123  ILE123     -0.2867
     14  CB        70.2230   72.5330    3.2750 C.3   123  ILE123      0.0252
     15  CG1       69.9090   71.8870    4.6320 C.3   123  ILE123      0.0019
     16  CG2       69.6390   71.7170    2.1300 C.3   123  ILE123      0.0019
     17  CD1       68.4300   71.8810    5.0410 C.3   123  ILE123      0.0001
     18  N         55.5950   74.5490   11.4220 N.3   165  ASN165     -0.1225
     19  CA        56.5920   74.7950   12.4560 C.3   165  ASN165      0.1785
     20  C         58.0140   74.9860   11.9300 C.2   165  ASN165      0.2597
     21  O         58.8030   75.7390   12.5340 O.2   165  ASN165     -0.2718
     22  CB        56.5550   73.6990   13.5160 C.3   165  ASN165      0.1169
     23  CG        56.7350   72.3110   12.9510 C.2   165  ASN165      0.2627
     24  OD1       56.6640   72.0850   11.7350 O.2   165  ASN165     -0.2716
     25  ND2       56.9610   71.3600   13.8420 N.am  165  ASN165     -0.0877
     26  N         58.3320   74.3380   10.8120 N.am  166  PHE166     -0.1976
     27  CA        59.5280   74.6700   10.0660 C.3   166  PHE166      0.1639
     28  C         59.1280   74.9950    8.6160 C.2   166  PHE166      0.2290
     29  O         59.2110   74.1570    7.7170 O.2   166  PHE166     -0.2864
     30  CB        60.5780   73.5510   10.1780 C.3   166  PHE166      0.0560
     31  CG        61.1760   73.4610   11.5650 C.ar  166  PHE166     -0.0200
     32  CD1       60.5320   72.7580   12.5640 C.ar  166  PHE166     -0.0042
     33  CD2       62.3400   74.1440   11.8750 C.ar  166  PHE166     -0.0042
     34  CE1       61.0650   72.7040   13.8410 C.ar  166  PHE166     -0.0003
     35  CE2       62.8650   74.1020   13.1430 C.ar  166  PHE166     -0.0003
     36  CZ        62.2280   73.3820   14.1270 C.ar  166  PHE166     -0.0000
     37  N         62.8930   75.3990    6.2580 N.3   169  ALA169     -0.1231
     38  CA        64.0310   74.4750    6.1080 C.3   169  ALA169      0.1694
     39  C         63.6330   73.0870    5.6280 C.2   169  ALA169      0.2591
     40  O         64.4320   72.4000    4.9990 O.2   169  ALA169     -0.2718
     41  CB        64.7910   74.3510    7.4050 C.3   169  ALA169      0.0304
     42  N         62.4310   72.6460    5.9760 N.am  170  VAL170     -0.1980
     43  CA        61.9580   71.3410    5.4930 C.3   170  VAL170      0.1595
     44  C         61.7790   71.3730    3.9790 C.2   170  VAL170      0.2287
     45  O         62.2130   70.4590    3.2710 O.2   170  VAL170     -0.2864
     46  CB        60.6290   70.9310    6.1700 C.3   170  VAL170      0.0276
     47  CG1       60.0550   69.6440    5.5400 C.3   170  VAL170      0.0022
     48  CG2       60.8710   70.7190    7.6450 C.3   170  VAL170      0.0022
     49  N         65.4010   71.5000    2.4840 N.3   173  TRP173     -0.1227
     50  CA        66.0260   70.1890    2.3850 C.3   173  TRP173      0.1737
     51  C         65.4860   69.4220    1.1670 C.2   173  TRP173      0.2595
     52  O         66.2510   68.9650    0.3240 O.2   173  TRP173     -0.2718
     53  CB        65.8010   69.3820    3.6660 C.3   173  TRP173      0.0564
     54  CG        66.2290   67.9530    3.5200 C.ar  173  TRP173      0.0003
     55  CD1       65.4190   66.8590    3.3630 C.ar  173  TRP173      0.0946
     56  CD2       67.5710   67.4680    3.4870 C.ar  173  TRP173      0.0152
     57  NE1       66.1860   65.7250    3.2430 N.ar  173  TRP173     -0.2442
     58  CE2       67.5080   66.0730    3.3050 C.ar  173  TRP173      0.0810
     59  CE3       68.8260   68.0820    3.5790 C.ar  173  TRP173      0.0012
     60  CZ2       68.6540   65.2770    3.2190 C.ar  173  TRP173      0.0191
     61  CZ3       69.9630   67.2880    3.4960 C.ar  173  TRP173      0.0001
     62  CH2       69.8650   65.8980    3.3240 C.ar  173  TRP173      0.0015
     63  N         64.1690   69.2790    1.0790 N.am  174  ASN174     -0.1974
     64  CA        63.5670   68.5410   -0.0370 C.3   174  ASN174      0.1688
     65  C         63.8660   69.1610   -1.4010 C.2   174  ASN174      0.2292
     66  O         64.1250   68.4480   -2.3610 O.2   174  ASN174     -0.2864
     67  CB        62.0580   68.4270    0.1590 C.3   174  ASN174      0.1181
     68  CG        61.6980   67.3860    1.1830 C.2   174  ASN174      0.2629
     69  OD1       61.5240   66.2110    0.8520 O.2   174  ASN174     -0.2716
     70  ND2       61.6170   67.7980    2.4400 N.am  174  ASN174     -0.0877
     71  N         55.4350   66.3610    5.1410 N.3   243  THR243     -0.1218
     72  CA        55.8430   66.5570    6.5240 C.3   243  THR243      0.1862
     73  C         54.6780   67.1470    7.3040 C.2   243  THR243      0.2287
     74  O         54.0630   68.1360    6.8800 O.2   243  THR243     -0.2866
     75  CB        57.0740   67.4770    6.6230 C.3   243  THR243      0.1770
     76  OG1       58.1630   66.8440    5.9600 O.3   243  THR243     -0.2211
     77  CG2       57.4700   67.7250    8.0840 C.3   243  THR243      0.0375
     78  N         57.2650   62.2830    6.8640 N.3   266  GLU266     -0.1245
     79  CA        57.9130   62.7030    8.1050 C.3   266  GLU266      0.1567
     80  C         56.8200   63.1650    9.0550 C.2   266  GLU266      0.2260
     81  O         56.3540   64.2880    8.9480 O.2   266  GLU266     -0.2867
     82  CB        58.9290   63.8210    7.8460 C.3   266  GLU266      0.0388
     83  CG        60.2450   63.3900    7.1920 C.3   266  GLU266      0.1160
     84  CD        60.1980   63.3630    5.7080 C.2   266  GLU266      0.3649
     85  OE1       59.1250   63.5720    5.1350 O.co2 266  GLU266     -0.2457
     86  OE2       61.2210   63.1570    5.1090 O.co2 266  GLU266     -0.2457
     87  N         58.2520   71.7580   18.0660 N.3   298  ARG298     -0.1231
     88  CA        59.1290   71.0200   17.1530 C.3   298  ARG298      0.1694
     89  C         58.6980   69.5810   17.0320 C.2   298  ARG298      0.2592
     90  O         57.9840   69.0690   17.8960 O.2   298  ARG298     -0.2718
     91  CB        60.5750   71.0560   17.6190 C.3   298  ARG298      0.0321
     92  CG        61.0960   72.4210   18.0090 C.3   298  ARG298      0.0489
     93  CD        62.5050   72.2920   18.6120 C.3   298  ARG298      0.2205
     94  NE        63.0810   73.5760   19.0150 N.pl3 298  ARG298     -0.0865
     95  CZ        64.0970   73.6990   19.8740 C.cat 298  ARG298      0.5346
     96  NH1       64.5780   74.9000   20.1900 N.pl3 298  ARG298      0.1354
     97  NH2       64.6300   72.6140   20.4310 N.pl3 298  ARG298      0.1354
     98  N         59.1510   68.9070   15.9730 N.am  299  CYS299     -0.1956
     99  CA        58.8060   67.4820   15.8150 C.3   299  CYS299      0.1843
    100  C         59.6730   66.7210   16.8000 C.2   299  CYS299      0.2626
    101  O         59.3440   65.6100   17.1420 O.2   299  CYS299     -0.2714
    102  CB        58.9430   66.9620   14.3720 C.3   299  CYS299      0.0997
    103  SG        60.6210   67.0320   13.8150 S.3   299  CYS299     -0.0797
    104  N         60.7570   67.3500   17.2660 N.am  300  THR300     -0.1950
    105  CA        61.6600   66.7520   18.2490 C.3   300  THR300      0.1897
    106  C         61.3970   67.1620   19.7030 C.2   300  THR300      0.2313
    107  O         62.1440   66.7830   20.5970 O.2   300  THR300     -0.2863
    108  CB        63.1140   67.1210   17.9370 C.3   300  THR300      0.1794
    109  OG1       63.2310   68.5490   17.9300 O.3   300  THR300     -0.2208
    110  CG2       63.5220   66.5730   16.5600 C.3   300  THR300      0.0378
@<TRIPOS>BOND
     1    66    65    2
     2    65    64    1
     3    64    67    1
     4    64    63    1
     5    67    68    1
     6    52    51    2
     7    69    68    2
     8    13    12    2
     9    63    51   am
    10    51    50    1
    11    68    70   am
    12    12    11    1
    13    16    14    1
    14    50    49    1
    15    50    53    1
    16    11    14    1
    17    11    10    1
    18    60    58   ar
    19    60    62   ar
    20    57    58   ar
    21    57    55   ar
    22    45    44    2
    23    14    15    1
    24    58    56   ar
    25    62    61   ar
    26    55    54   ar
    27    56    54   ar
    28    56    59   ar
    29    61    59   ar
    30    54    53    1
    31    44    43    1
    32    15    17    1
    33    40    39    2
    34    86    84   ar
    35    85    84   ar
    36    71    72    1
    37    43    42    1
    38    43    46    1
    39    47    46    1
    40    39    42   am
    41    39    38    1
    42    84    83    1
    43    76    75    1
    44     4     3    2
    45    38    37    1
    46    38    41    1
    47    46    48    1
    48    72    75    1
    49    72    73    1
    50     3     2    1
    51    75    77    1
    52    78    79    1
    53    74    73    2
    54    83    82    1
    55    29    28    2
    56    82    79    1
    57     2     1    1
    58     2     5    1
    59    79    80    1
    60    28    27    1
    61     8     7   ar
    62     6     5    1
    63     6     7    1
    64    81    80    2
    65     7     9   ar
    66    27    30    1
    67    27    26    1
    68    30    31    1
    69    26    20   am
    70    18    19    1
    71    31    33   ar
    72    31    32   ar
    73    24    23    2
    74    33    35   ar
    75    20    19    1
    76    20    21    2
    77    19    22    1
    78    32    34   ar
    79    23    22    1
    80    23    25   am
    81    35    36   ar
    82   103   102    1
    83    34    36   ar
    84   102    99    1
    85    99    98    1
    86    99   100    1
    87    98    89   am
    88   110   108    1
    89   100   101    2
    90   100   104   am
    91    89    88    1
    92    89    90    2
    93    88    91    1
    94    88    87    1
    95   104   105    1
    96    91    92    1
    97   109   108    1
    98   108   105    1
    99    92    93    1
   100   105   106    1
   101    93    94    1
   102    94    95    2
   103   106   107    2
   104    95    96    1
   105    95    97    1
