@<TRIPOS>MOLECULE
tmp/4x0wB00.pdb
 132 127 0 0 0
SMALL
GASTEIGER

@<TRIPOS>ATOM
      1  N        -34.3140   -4.9860    1.7800 N.3    91  THR91      -0.1203
      2  CA       -33.9820   -5.7510    2.9540 C.3    91  THR91       0.1994
      3  C        -33.9850   -7.2710    2.6930 C.2    91  THR91       0.2617
      4  O        -33.3840   -8.0380    3.4730 O.2    91  THR91      -0.2717
      5  CB       -34.8160   -5.2540    4.1900 C.3    91  THR91       0.1784
      6  OG1      -34.0850   -5.5030    5.4080 O.3    91  THR91      -0.2211
      7  CG2      -36.2480   -5.8270    4.2320 C.3    91  THR91       0.0376
      8  N        -34.5800   -7.6950    1.5720 N.am   92  LEU92      -0.1979
      9  CA       -34.5580   -9.1140    1.1600 C.3    92  LEU92       0.1596
     10  C        -34.2000   -9.3290   -0.3240 C.2    92  LEU92       0.2287
     11  O        -33.1860   -9.9660   -0.6580 O.2    92  LEU92      -0.2864
     12  CB       -35.9190   -9.7580    1.4400 C.3    92  LEU92       0.0297
     13  CG       -36.3620  -10.1890    2.8630 C.3    92  LEU92       0.0022
     14  CD1      -35.9440   -9.2080    3.9930 C.3    92  LEU92       0.0001
     15  CD2      -37.8800  -10.4310    2.8920 C.3    92  LEU92       0.0001
     16  N        -33.9430   -8.6850   -4.5860 N.3    94  TYR94      -0.1241
     17  CA       -33.3550   -7.8430   -5.6200 C.3    94  TYR94       0.1605
     18  C        -34.4820   -7.7300   -6.6260 C.2    94  TYR94       0.2264
     19  O        -35.1910   -8.7030   -6.8870 O.2    94  TYR94      -0.2867
     20  CB       -32.1820   -8.5390   -6.2860 C.3    94  TYR94       0.0534
     21  CG       -30.9890   -8.8040   -5.4220 C.ar   94  TYR94      -0.0201
     22  CD1      -30.1770   -7.7520   -5.0070 C.ar   94  TYR94      -0.0009
     23  CD2      -30.6050  -10.1210   -5.0860 C.ar   94  TYR94      -0.0009
     24  CE1      -29.0300   -7.9700   -4.2360 C.ar   94  TYR94       0.0417
     25  CE2      -29.4290  -10.3620   -4.2990 C.ar   94  TYR94       0.0417
     26  CZ       -28.6600   -9.2800   -3.8820 C.ar   94  TYR94       0.1957
     27  OH       -27.5080   -9.4520   -3.1350 O.3    94  TYR94      -0.2866
     28  N        -22.4690  -23.0670   -3.9020 N.3   142  LYS142     -0.1245
     29  CA       -22.1830  -23.9960   -2.8330 C.3   142  LYS142      0.1561
     30  C        -23.0590  -25.2520   -2.8490 C.2   142  LYS142      0.2260
     31  O        -24.2760  -25.1670   -3.0950 O.2   142  LYS142     -0.2867
     32  CB       -22.4040  -23.2820   -1.4660 C.3   142  LYS142      0.0271
     33  CG       -21.3890  -22.2280   -1.2000 C.3   142  LYS142      0.0035
     34  CD       -21.5580  -21.5130    0.1470 C.3   142  LYS142      0.0206
     35  CE       -20.3220  -20.6430    0.3740 C.3   142  LYS142      0.1093
     36  NZ       -20.6330  -19.5360    1.3600 N.3   142  LYS142     -0.1314
     37  N        -25.0440  -24.7680    2.4050 N.3   145  SER145     -0.1202
     38  CA       -24.9700  -23.4130    3.0050 C.3   145  SER145      0.2020
     39  C        -23.6870  -23.1030    3.7690 C.2   145  SER145      0.2619
     40  O        -23.1100  -22.0210    3.6120 O.2   145  SER145     -0.2717
     41  CB       -26.2070  -23.1240    3.8630 C.3   145  SER145      0.2103
     42  OG       -27.3740  -23.4570    3.1080 O.3   145  SER145     -0.2182
     43  N        -23.2790  -24.0190    4.6490 N.am  146  THR146     -0.1952
     44  CA       -22.0950  -23.8180    5.5220 C.3   146  THR146      0.1897
     45  C        -20.7230  -24.0410    4.8130 C.2   146  THR146      0.2313
     46  O        -19.6360  -23.7530    5.4050 O.2   146  THR146     -0.2863
     47  CB       -22.1410  -24.7450    6.7440 C.3   146  THR146      0.1794
     48  OG1      -22.2600  -26.0990    6.3150 O.3   146  THR146     -0.2208
     49  CG2      -23.3290  -24.3930    7.6990 C.3   146  THR146      0.0378
     50  N        -27.8900  -22.0610   -4.5290 N.3   194  CYS194     -0.1221
     51  CA       -27.2690  -21.4300   -3.3270 C.3   194  CYS194      0.1808
     52  C        -26.2590  -20.3670   -3.7660 C.2   194  CYS194      0.2601
     53  O        -26.1660  -20.0540   -4.9930 O.2   194  CYS194     -0.2717
     54  CB       -26.5900  -22.5060   -2.4510 C.3   194  CYS194      0.0970
     55  SG       -26.2990  -22.0140   -0.6220 S.3   194  CYS194     -0.0800
     56  N        -25.4800  -19.8470   -2.7990 N.am  195  GLN195     -0.1979
     57  CA       -24.4630  -18.7740   -3.0120 C.3   195  GLN195      0.1601
     58  C        -23.5080  -19.1740   -4.0740 C.2   195  GLN195      0.2287
     59  O        -22.9600  -20.3010   -4.0230 O.2   195  GLN195     -0.2864
     60  CB       -23.6890  -18.4160   -1.7000 C.3   195  GLN195      0.0394
     61  CG       -22.8320  -17.1720   -1.8570 C.3   195  GLN195      0.0908
     62  CD       -22.1540  -16.7440   -0.5380 C.2   195  GLN195      0.2608
     63  OE1      -21.9630  -17.5520    0.3970 O.2   195  GLN195     -0.2717
     64  NE2      -21.7940  -15.4540   -0.4630 N.am  195  GLN195     -0.0878
     65  N        -26.0520  -17.5180   -8.4050 N.3   198  SER198     -0.1217
     66  CA       -26.7960  -16.3640   -8.9420 C.3   198  SER198      0.1889
     67  C        -26.4530  -16.1320  -10.3930 C.2   198  SER198      0.2288
     68  O        -25.3410  -16.3740  -10.7880 O.2   198  SER198     -0.2866
     69  CB       -26.4200  -15.1110   -8.1920 C.3   198  SER198      0.2089
     70  OG       -27.2300  -15.1510   -7.0270 O.3   198  SER198     -0.2183
     71  N        -31.6580  -15.5500   -8.7080 N.3   217  SER217     -0.1202
     72  CA       -31.6120  -14.1640   -8.2410 C.3   217  SER217      0.2020
     73  C        -31.4980  -14.1320   -6.7040 C.2   217  SER217      0.2619
     74  O        -30.5750  -13.5630   -6.2010 O.2   217  SER217     -0.2717
     75  CB       -32.8100  -13.3140   -8.6980 C.3   217  SER217      0.2103
     76  OG       -32.7900  -11.9800   -8.1130 O.3   217  SER217     -0.2182
     77  N        -32.4300  -14.7350   -5.9720 N.am  218  TRP218     -0.1961
     78  CA       -32.3430  -14.5890   -4.4890 C.3   218  TRP218      0.1771
     79  C        -33.1210  -15.5840   -3.6750 C.2   218  TRP218      0.2620
     80  O        -33.8870  -16.3790   -4.1990 O.2   218  TRP218     -0.2715
     81  CB       -32.6950  -13.1650   -4.0460 C.3   218  TRP218      0.0590
     82  CG       -34.1370  -12.7800   -4.2840 C.ar  218  TRP218      0.0006
     83  CD1      -34.6850  -12.2390   -5.4560 C.ar  218  TRP218      0.0946
     84  CD2      -35.2300  -12.8960   -3.3470 C.ar  218  TRP218      0.0152
     85  NE1      -36.0200  -12.0140   -5.2750 N.ar  218  TRP218     -0.2442
     86  CE2      -36.3860  -12.4360   -4.0030 C.ar  218  TRP218      0.0810
     87  CE3      -35.3360  -13.3740   -2.0210 C.ar  218  TRP218      0.0012
     88  CZ2      -37.6430  -12.3960   -3.3630 C.ar  218  TRP218      0.0191
     89  CZ3      -36.5680  -13.3660   -1.3970 C.ar  218  TRP218      0.0001
     90  CH2      -37.7120  -12.8690   -2.0600 C.ar  218  TRP218      0.0015
     91  N        -32.9030  -15.5760   -2.3750 N.am  219  GLY219     -0.1940
     92  CA       -33.6430  -16.4610   -1.4890 C.3   219  GLY219      0.2014
     93  C        -32.9840  -16.5030   -0.1410 C.2   219  GLY219      0.2639
     94  O        -31.8040  -16.2140   -0.0060 O.2   219  GLY219     -0.2714
     95  N        -33.7630  -16.8680    0.8650 N.am  220  ARG220     -0.1963
     96  CA       -33.3120  -16.8240    2.2460 C.3   220  ARG220      0.1729
     97  C        -32.7220  -18.1930    2.5700 C.2   220  ARG220      0.2617
     98  O        -33.3710  -19.2530    2.4580 O.2   220  ARG220     -0.2715
     99  CB       -34.4960  -16.5600    3.1790 C.3   220  ARG220      0.0348
    100  CG       -34.1150  -16.2180    4.6250 C.3   220  ARG220      0.0492
    101  CD       -34.8800  -14.9970    5.0630 C.3   220  ARG220      0.2205
    102  NE       -34.3380  -14.4170    6.2780 N.pl3 220  ARG220     -0.0865
    103  CZ       -34.7840  -14.7110    7.5040 C.cat 220  ARG220      0.5346
    104  NH1      -34.2200  -14.1420    8.5600 N.pl3 220  ARG220      0.1354
    105  NH2      -35.7870  -15.5780    7.6790 N.pl3 220  ARG220      0.1354
    106  N        -31.2440  -18.1830    3.0350 N.am  221  GLY221     -0.1940
    107  CA       -30.4720  -19.4200    2.9360 C.3   221  GLY221      0.2014
    108  C        -30.6780  -20.1880    1.6360 C.2   221  GLY221      0.2639
    109  O        -30.9400  -19.6120    0.5520 O.2   221  GLY221     -0.2714
    110  N        -30.5460  -21.4990    1.7430 N.am  222  CYS222     -0.1967
    111  CA       -30.6140  -22.3950    0.6030 C.3   222  CYS222      0.1712
    112  C        -31.2700  -23.7010    1.0160 C.2   222  CYS222      0.2296
    113  O        -30.9710  -24.2170    2.1240 O.2   222  CYS222     -0.2864
    114  CB       -29.1810  -22.6880    0.0940 C.3   222  CYS222      0.0983
    115  SG       -28.1100  -21.2750   -0.1740 S.3   222  CYS222     -0.0798
    116  N        -34.0990  -24.3610    2.1840 N.3   224  LEU224     -0.1245
    117  CA       -34.6530  -24.0590    3.5020 C.3   224  LEU224      0.1561
    118  C        -36.1950  -24.1380    3.4510 C.2   224  LEU224      0.2260
    119  O        -36.7790  -23.5520    2.5370 O.2   224  LEU224     -0.2867
    120  CB       -34.2060  -22.6400    3.8750 C.3   224  LEU224      0.0270
    121  CG       -34.5540  -22.0260    5.2300 C.3   224  LEU224      0.0019
    122  CD1      -34.2140  -22.9770    6.3590 C.3   224  LEU224      0.0001
    123  CD2      -33.8580  -20.6500    5.4650 C.3   224  LEU224      0.0001
    124  N        -38.9180  -21.4250    2.2170 N.3   227  LYS227     -0.1245
    125  CA       -38.0980  -20.3980    1.5700 C.3   227  LYS227      0.1561
    126  C        -37.6520  -20.8890    0.1940 C.2   227  LYS227      0.2260
    127  O        -36.6190  -21.5610    0.0680 O.2   227  LYS227     -0.2867
    128  CB       -36.9250  -20.0480    2.4820 C.3   227  LYS227      0.0271
    129  CG       -37.3620  -19.7160    3.9900 C.3   227  LYS227      0.0035
    130  CD       -38.3630  -18.5350    4.0230 C.3   227  LYS227      0.0206
    131  CE       -39.0230  -18.3330    5.4090 C.3   227  LYS227      0.1093
    132  NZ       -40.4930  -18.1440    5.2620 N.3   227  LYS227     -0.1314
@<TRIPOS>BOND
     1    68    67    2
     2    67    66    1
     3    66    65    1
     4    66    69    1
     5    71    72    1
     6    75    72    1
     7    75    76    1
     8    72    73    1
     9    69    70    1
    10    19    18    2
    11    73    74    2
    12    73    77   am
    13    18    17    1
    14    20    17    1
    15    20    21    1
    16    77    78    1
    17    17    16    1
    18    83    85   ar
    19    83    82   ar
    20    21    23   ar
    21    21    22   ar
    22    85    86   ar
    23    23    25   ar
    24    22    24   ar
    25    53    52    2
    26    50    51    1
    27    78    81    1
    28    78    79    1
    29    25    26   ar
    30    82    81    1
    31    82    84   ar
    32    24    26   ar
    33    80    79    2
    34    58    59    2
    35    58    57    1
    36    86    88   ar
    37    86    84   ar
    38    28    29    1
    39    26    27    1
    40    52    51    1
    41    52    56   am
    42    79    91   am
    43    88    90   ar
    44    84    87   ar
    45    51    54    1
    46    31    30    2
    47    57    56    1
    48    57    60    1
    49    30    29    1
    50    29    32    1
    51    54    55    1
    52    91    92    1
    53    90    89   ar
    54    87    89   ar
    55    61    60    1
    56    61    62    1
    57    92    93    1
    58    32    33    1
    59    33    34    1
    60    11    10    2
    61    55   115    1
    62    62    64   am
    63    62    63    2
    64    10     9    1
    65   115   114    1
    66    93    94    2
    67    93    95   am
    68   127   126    2
    69   114   111    1
    70    34    35    1
    71   126   125    1
    72    35    36    1
    73   109   108    2
    74   111   112    1
    75   111   110    1
    76    95    96    1
    77   112   113    2
    78     9    12    1
    79     9     8    1
    80    12    13    1
    81   125   124    1
    82   125   128    1
    83     8     3   am
    84   108   110   am
    85   108   107    1
    86     1     2    1
    87   116   117    1
    88    96    97    1
    89    96    99    1
    90    37    38    1
    91    98    97    2
    92   128   129    1
    93   119   118    2
    94    97   106   am
    95     3     2    1
    96     3     4    2
    97    13    15    1
    98    13    14    1
    99   107   106    1
   100     2     5    1
   101    38    39    1
   102    38    41    1
   103    42    41    1
   104    99   100    1
   105   118   117    1
   106   117   120    1
   107    40    39    2
   108    39    43   am
   109   120   121    1
   110   129   130    1
   111   130   131    1
   112     5     7    1
   113     5     6    1
   114   100   101    1
   115    43    44    1
   116    45    46    2
   117    45    44    1
   118   101   102    1
   119   121   123    1
   120   121   122    1
   121   132   131    1
   122    44    47    1
   123   102   103    2
   124    48    47    1
   125    47    49    1
   126   103   105    1
   127   103   104    1
