@<TRIPOS>MOLECULE
tmp/4x13E00.pdb
 108 102 0 0 0
SMALL
GASTEIGER

@<TRIPOS>ATOM
      1  N         50.4990  -20.6790    5.1170 N.3    27  PRO27      -0.2102
      2  CA        49.9690  -21.3520    3.9430 C.3    27  PRO27       0.1504
      3  C         50.9260  -21.4220    2.7550 C.2    27  PRO27       0.2575
      4  O         50.7160  -22.2520    1.8780 O.2    27  PRO27      -0.2718
      5  CB        48.7410  -20.5140    3.5810 C.3    27  PRO27       0.0282
      6  CG        49.0530  -19.1560    4.1310 C.3    27  PRO27       0.0208
      7  CD        49.7590  -19.4420    5.4180 C.3    27  PRO27       0.0893
      8  N         51.9330  -20.5500    2.6860 N.am   28  ASP28      -0.1974
      9  CA        52.9640  -20.7160    1.6680 C.3    28  ASP28       0.1708
     10  C         54.2880  -20.1710    2.1570 C.2    28  ASP28       0.2293
     11  O         54.3870  -19.7320    3.2930 O.2    28  ASP28      -0.2864
     12  CB        52.5280  -20.1340    0.3150 C.3    28  ASP28       0.1436
     13  CG        52.5280  -18.6140    0.2790 C.2    28  ASP28       0.3671
     14  OD1       53.0770  -17.9460    1.1830 O.co2  28  ASP28      -0.2456
     15  OD2       51.9700  -18.0700   -0.6870 O.co2  28  ASP28      -0.2456
     16  N         54.3410  -16.4950    3.6990 N.3    31  LEU31      -0.1245
     17  CA        53.2760  -16.0910    4.6260 C.3    31  LEU31       0.1561
     18  C         53.4500  -16.5770    6.0550 C.2    31  LEU31       0.2260
     19  O         52.4650  -16.8260    6.7590 O.2    31  LEU31      -0.2867
     20  CB        51.9060  -16.5030    4.0710 C.3    31  LEU31       0.0270
     21  CG        51.4770  -15.6290    2.8950 C.3    31  LEU31       0.0019
     22  CD1       50.2540  -16.1770    2.1690 C.3    31  LEU31       0.0001
     23  CD2       51.2280  -14.2060    3.3750 C.3    31  LEU31       0.0001
     24  N         50.9630  -15.6760    9.0960 N.3    34  PHE34      -0.1241
     25  CA        49.5970  -15.5660    8.5950 C.3    34  PHE34       0.1605
     26  C         48.9960  -16.9650    8.4850 C.2    34  PHE34       0.2264
     27  O         49.7190  -17.9640    8.3210 O.2    34  PHE34      -0.2867
     28  CB        49.5540  -14.9740    7.1890 C.3    34  PHE34       0.0534
     29  CG        49.9910  -13.5300    7.0680 C.ar   34  PHE34      -0.0203
     30  CD1       51.3390  -13.1860    7.0470 C.ar   34  PHE34      -0.0042
     31  CD2       49.0540  -12.5240    6.8590 C.ar   34  PHE34      -0.0042
     32  CE1       51.7410  -11.8690    6.8870 C.ar   34  PHE34      -0.0003
     33  CE2       49.4530  -11.2010    6.6880 C.ar   34  PHE34      -0.0003
     34  CZ        50.8010  -10.8720    6.7070 C.ar   34  PHE34      -0.0000
     35  N         46.0780  -19.3390    6.2320 N.3    36  LYS36      -0.1231
     36  CA        45.3620  -19.3900    4.9800 C.3    36  LYS36       0.1693
     37  C         44.1040  -18.5300    5.0620 C.2    36  LYS36       0.2592
     38  O         43.5320  -18.3590    6.1310 O.2    36  LYS36      -0.2718
     39  CB        44.9470  -20.8280    4.6780 C.3    36  LYS36       0.0285
     40  CG        44.5290  -20.9950    3.2420 C.3    36  LYS36       0.0035
     41  CD        44.0220  -22.3850    2.9190 C.3    36  LYS36       0.0206
     42  CE        43.6290  -22.4070    1.4450 C.3    36  LYS36       0.1093
     43  NZ        43.3890  -23.7720    0.9460 N.3    36  LYS36      -0.1314
     44  N         43.6460  -18.0210    3.9280 N.am   37  SER37      -0.1952
     45  CA        42.3570  -17.3490    3.8880 C.3    37  SER37       0.1924
     46  C         41.2660  -18.2170    4.5190 C.2    37  SER37       0.2314
     47  O         41.2690  -19.4490    4.3900 O.2    37  SER37      -0.2863
     48  CB        41.9790  -16.9740    2.4700 C.3    37  SER37       0.2116
     49  OG        41.9850  -18.1360    1.6630 O.3    37  SER37      -0.2180
     50  N         48.5650   -4.0860   -0.3410 N.3    93  ASN93      -0.1240
     51  CA        47.5150   -4.8090   -1.0290 C.3    93  ASN93       0.1653
     52  C         46.3410   -5.2290   -0.1700 C.2    93  ASN93       0.2266
     53  O         45.8770   -6.3540   -0.2360 O.2    93  ASN93      -0.2867
     54  CB        48.0730   -6.0070   -1.7900 C.3    93  ASN93       0.1155
     55  CG        47.1250   -6.4730   -2.8760 C.2    93  ASN93       0.2627
     56  OD1       46.4790   -5.6430   -3.5390 O.2    93  ASN93      -0.2716
     57  ND2       47.0030   -7.7920   -3.0410 N.am   93  ASN93      -0.0877
     58  N         43.9030   -9.9370    8.8360 N.3   232  PHE232     -0.1241
     59  CA        44.2430   -9.0930    7.7110 C.3   232  PHE232      0.1605
     60  C         43.2450   -9.3600    6.6060 C.2   232  PHE232      0.2264
     61  O         42.9780  -10.5300    6.2790 O.2   232  PHE232     -0.2867
     62  CB        45.6320   -9.4180    7.1920 C.3   232  PHE232      0.0534
     63  CG        46.0380   -8.5810    6.0070 C.ar  232  PHE232     -0.0203
     64  CD1       46.1860   -7.2080    6.1330 C.ar  232  PHE232     -0.0042
     65  CD2       46.2860   -9.1650    4.7720 C.ar  232  PHE232     -0.0042
     66  CE1       46.5650   -6.4310    5.0590 C.ar  232  PHE232     -0.0003
     67  CE2       46.6680   -8.3850    3.6850 C.ar  232  PHE232     -0.0003
     68  CZ        46.7990   -7.0180    3.8300 C.ar  232  PHE232     -0.0000
     69  N         42.5450   -8.8920    2.6780 N.3   234  ASN234     -0.1225
     70  CA        43.1320   -8.6090    1.3790 C.3   234  ASN234      0.1785
     71  C         42.1850   -7.7610    0.5390 C.2   234  ASN234      0.2597
     72  O         40.9890   -7.6580    0.8520 O.2   234  ASN234     -0.2718
     73  CB        43.4690   -9.9100    0.6450 C.3   234  ASN234      0.1169
     74  CG        44.4730  -10.7470    1.4060 C.2   234  ASN234      0.2627
     75  OD1       45.6520  -10.3760    1.4930 O.2   234  ASN234     -0.2716
     76  ND2       44.0180  -11.8600    2.0050 N.am  234  ASN234     -0.0877
     77  N         42.7270   -7.1930   -0.5440 N.am  235  ARG235     -0.1966
     78  CA        41.9510   -6.4180   -1.5260 C.3   235  ARG235      0.1729
     79  C         40.6420   -7.1000   -1.8990 C.2   235  ARG235      0.2616
     80  O         39.5940   -6.4510   -1.9700 O.2   235  ARG235     -0.2715
     81  CB        42.7960   -6.1850   -2.7960 C.3   235  ARG235      0.0348
     82  CG        42.0760   -5.5390   -3.9730 C.3   235  ARG235      0.0492
     83  CD        42.9110   -5.6590   -5.2430 C.3   235  ARG235      0.2205
     84  NE        44.1850   -4.9860   -5.0500 N.pl3 235  ARG235     -0.0865
     85  CZ        44.4240   -3.7030   -5.3060 C.cat 235  ARG235      0.5346
     86  NH1       45.6200   -3.2040   -5.0400 N.pl3 235  ARG235      0.1354
     87  NH2       43.4920   -2.9130   -5.8410 N.pl3 235  ARG235      0.1354
     88  N         40.7160   -8.4150   -2.1120 N.am  236  SER236     -0.1950
     89  CA        39.5650   -9.2170   -2.5230 C.3   236  SER236      0.1924
     90  C         38.5100   -9.3510   -1.4240 C.2   236  SER236      0.2314
     91  O         37.3740   -9.7310   -1.7070 O.2   236  SER236     -0.2863
     92  CB        40.0200  -10.6290   -2.9450 C.3   236  SER236      0.2116
     93  OG        40.4730  -11.3950   -1.8250 O.3   236  SER236     -0.2180
     94  N         39.0970  -11.4440    1.2020 N.3   238  SER238     -0.1217
     95  CA        39.4830  -12.6460    1.9290 C.3   238  SER238      0.1889
     96  C         40.2630  -12.2310    3.1700 C.2   238  SER238      0.2288
     97  O         40.9830  -11.2220    3.1630 O.2   238  SER238     -0.2866
     98  CB        40.3570  -13.5700    1.0700 C.3   238  SER238      0.2089
     99  OG        41.6570  -12.9920    0.8690 O.3   238  SER238     -0.2183
    100  N         42.7520  -13.3840    6.5940 N.3   240  GLN240     -0.1245
    101  CA        43.7420  -14.2910    7.1580 C.3   240  GLN240      0.1566
    102  C         44.0860  -13.8520    8.5690 C.2   240  GLN240      0.2260
    103  O         44.3040  -12.6570    8.8260 O.2   240  GLN240     -0.2867
    104  CB        45.0450  -14.2470    6.3530 C.3   240  GLN240      0.0367
    105  CG        44.8810  -14.5190    4.8690 C.3   240  GLN240      0.0905
    106  CD        46.1230  -14.1660    4.0850 C.2   240  GLN240      0.2608
    107  OE1       46.1650  -13.1640    3.3800 O.2   240  GLN240     -0.2717
    108  NE2       47.1610  -14.9790    4.2350 N.am  240  GLN240     -0.0878
@<TRIPOS>BOND
     1    87    85    1
     2    85    84    2
     3    85    86    1
     4    83    84    1
     5    83    82    1
     6    82    81    1
     7    56    55    2
     8    57    55   am
     9    92    89    1
    10    92    93    1
    11    55    54    1
    12    81    78    1
    13    89    88    1
    14    89    90    1
    15    88    79   am
    16    80    79    2
    17    79    78    1
    18    54    51    1
    19    91    90    2
    20    78    77    1
    21    51    50    1
    22    51    52    1
    23    15    13   ar
    24    77    71   am
    25    53    52    2
    26    13    12    1
    27    13    14   ar
    28    12     9    1
    29    71    72    2
    30    71    70    1
    31    73    70    1
    32    73    74    1
    33    99    98    1
    34    43    42    1
    35    98    95    1
    36    94    95    1
    37    70    69    1
    38    74    75    2
    39    74    76   am
    40    42    41    1
    41    49    48    1
    42     9    10    1
    43     9     8    1
    44     4     3    2
    45    95    96    1
    46    10    11    2
    47    22    21    1
    48    48    45    1
    49     8     3   am
    50     3     2    1
    51    21    23    1
    52    21    20    1
    53    41    40    1
    54    97    96    2
    55    40    39    1
    56   107   106    2
    57     5     2    1
    58     5     6    1
    59    67    68   ar
    60    67    65   ar
    61    16    17    1
    62    68    66   ar
    63    45    44    1
    64    45    46    1
    65    44    37   am
    66     2     1    1
    67    20    17    1
    68   106   108   am
    69   106   105    1
    70     6     7    1
    71    47    46    2
    72    17    18    1
    73    39    36    1
    74    65    63   ar
    75   105   104    1
    76    36    37    1
    77    36    35    1
    78    66    64   ar
    79    37    38    2
    80     1     7    1
    81    63    64   ar
    82    63    62    1
    83    18    19    2
    84    61    60    2
    85   104   101    1
    86   100   101    1
    87    60    59    1
    88    33    34   ar
    89    33    31   ar
    90    34    32   ar
    91    31    29   ar
    92    32    30   ar
    93    30    29   ar
    94    29    28    1
    95   101   102    1
    96    28    25    1
    97    62    59    1
    98    59    58    1
    99    27    26    2
   100    26    25    1
   101   102   103    2
   102    25    24    1
