@<TRIPOS>MOLECULE
tmp/4x17C00.pdb
 97 90 0 0 0
SMALL
GASTEIGER

@<TRIPOS>ATOM
      1  N          2.3980    5.7810   29.3010 N.3    26  PRO26      -0.2102
      2  CA         1.4090    6.3370   28.3750 C.3    26  PRO26       0.1504
      3  C          0.0630    5.6210   28.3140 C.2    26  PRO26       0.2575
      4  O         -0.9190    6.2080   27.8220 O.2    26  PRO26      -0.2718
      5  CB         2.1260    6.2670   27.0290 C.3    26  PRO26       0.0282
      6  CG         3.0930    5.1510   27.1900 C.3    26  PRO26       0.0208
      7  CD         3.5920    5.3060   28.5840 C.3    26  PRO26       0.0893
      8  N         -0.0050    4.3770   28.7790 N.am   27  ASP27      -0.1974
      9  CA        -1.3010    3.7260   28.9800 C.3    27  ASP27       0.1708
     10  C         -1.2510    2.6870   30.0970 C.2    27  ASP27       0.2293
     11  O         -0.2250    2.5300   30.7600 O.2    27  ASP27      -0.2864
     12  CB        -1.8630    3.1710   27.6570 C.3    27  ASP27       0.1436
     13  CG        -1.1700    1.9130   27.1780 C.2    27  ASP27       0.3671
     14  OD1       -0.4670    1.2220   27.9530 O.co2  27  ASP27      -0.2456
     15  OD2       -1.3640    1.6030   25.9830 O.co2  27  ASP27      -0.2456
     16  N          1.6610    0.0760   30.1300 N.3    30  LEU30      -0.1245
     17  CA         3.0070    0.5150   29.7500 C.3    30  LEU30       0.1561
     18  C          3.8200    1.1360   30.8760 C.2    30  LEU30       0.2260
     19  O          4.7160    1.9580   30.6530 O.2    30  LEU30      -0.2867
     20  CB         2.9410    1.4130   28.5030 C.3    30  LEU30       0.0270
     21  CG         2.6640    0.6300   27.2050 C.3    30  LEU30       0.0019
     22  CD1        2.4440    1.5740   26.0280 C.3    30  LEU30       0.0001
     23  CD2        3.7780   -0.3550   26.8800 C.3    30  LEU30       0.0001
     24  N          7.6710    2.3770   30.6810 N.3    33  PHE33      -0.1241
     25  CA         7.9270    2.9110   29.3590 C.3    33  PHE33       0.1605
     26  C          7.3950    4.3550   29.2480 C.2    33  PHE33       0.2264
     27  O          6.4650    4.7420   29.9610 O.2    33  PHE33      -0.2867
     28  CB         7.1810    2.0920   28.2860 C.3    33  PHE33       0.0534
     29  CG         7.6360    0.6670   28.1360 C.ar   33  PHE33      -0.0203
     30  CD1        7.1780   -0.3250   28.9970 C.ar   33  PHE33      -0.0042
     31  CD2        8.4750    0.3010   27.0940 C.ar   33  PHE33      -0.0042
     32  CE1        7.5580   -1.6440   28.8220 C.ar   33  PHE33      -0.0003
     33  CE2        8.8620   -1.0130   26.9220 C.ar   33  PHE33      -0.0003
     34  CZ         8.4210   -1.9850   27.7970 C.ar   33  PHE33      -0.0000
     35  N          5.7520    7.2370   26.4220 N.3    35  LYS35      -0.1231
     36  CA         5.1690    7.3980   25.0780 C.3    35  LYS35       0.1693
     37  C          6.2710    7.3470   24.0170 C.2    35  LYS35       0.2592
     38  O          7.4130    7.7250   24.2770 O.2    35  LYS35      -0.2718
     39  CB         4.5010    8.7560   24.9930 C.3    35  LYS35       0.0285
     40  CG         3.7250    9.0310   23.7060 C.3    35  LYS35       0.0035
     41  CD         2.3090    8.5450   23.7560 C.3    35  LYS35       0.0206
     42  CE         1.5200    9.1590   22.6010 C.3    35  LYS35       0.1093
     43  NZ         0.1310    8.6570   22.6010 N.3    35  LYS35      -0.1314
     44  N          5.9620    6.8570   22.8190 N.am   36  SER36      -0.1952
     45  CA         6.9280    6.9210   21.7290 C.3    36  SER36       0.1924
     46  C          7.3660    8.3620   21.5100 C.2    36  SER36       0.2314
     47  O          6.5740    9.3010   21.6810 O.2    36  SER36      -0.2863
     48  CB         6.3540    6.3400   20.4380 C.3    36  SER36       0.2116
     49  OG         6.5530    4.9410   20.4130 O.3    36  SER36      -0.2180
     50  N          7.7870   -8.0500   19.7860 N.3    91  ASN91      -0.1240
     51  CA         7.4290   -7.1230   18.7090 C.3    91  ASN91       0.1653
     52  C          8.3790   -5.9470   18.5150 C.2    91  ASN91       0.2266
     53  O          7.9530   -4.8180   18.2770 O.2    91  ASN91      -0.2867
     54  CB         5.9780   -6.6470   18.8700 C.3    91  ASN91       0.1155
     55  CG         5.4200   -6.0510   17.5880 C.2    91  ASN91       0.2627
     56  OD1        5.7240   -6.4970   16.4760 O.2    91  ASN91      -0.2716
     57  ND2        4.6420   -4.9990   17.7400 N.am   91  ASN91      -0.0877
     58  N         13.5630    1.3310   23.8840 N.3   230  PHE230     -0.1241
     59  CA        13.0490    0.1750   23.1910 C.3   230  PHE230      0.1605
     60  C         12.5670    0.6280   21.8320 C.2   230  PHE230      0.2264
     61  O         11.8190    1.6110   21.7360 O.2   230  PHE230     -0.2867
     62  CB        11.8680   -0.4120   23.9410 C.3   230  PHE230      0.0534
     63  CG        11.2770   -1.6150   23.2720 C.ar  230  PHE230     -0.0203
     64  CD1       12.0520   -2.7330   23.0460 C.ar  230  PHE230     -0.0042
     65  CD2        9.9490   -1.6240   22.8530 C.ar  230  PHE230     -0.0042
     66  CE1       11.5270   -3.8450   22.4060 C.ar  230  PHE230     -0.0003
     67  CE2        9.4140   -2.7360   22.2330 C.ar  230  PHE230     -0.0003
     68  CZ        10.2010   -3.8460   22.0070 C.ar  230  PHE230     -0.0000
     69  N         10.2570   -0.2950   18.7460 N.3   232  ASN232     -0.1240
     70  CA         9.1890   -1.1400   18.2170 C.3   232  ASN232      0.1653
     71  C          9.4190   -1.5730   16.7740 C.2   232  ASN232      0.2266
     72  O         10.1790   -0.9600   16.0600 O.2   232  ASN232     -0.2867
     73  CB         7.8700   -0.3880   18.2960 C.3   232  ASN232      0.1155
     74  CG         7.4960   -0.0620   19.7160 C.2   232  ASN232      0.2627
     75  OD1        7.3120   -0.9630   20.5370 O.2   232  ASN232     -0.2716
     76  ND2        7.4120    1.2150   20.0300 N.am  232  ASN232     -0.0877
     77  N          7.7810   -0.9320   14.2500 N.3   234  SER234     -0.1217
     78  CA         7.5320    0.1810   13.3290 C.3   234  SER234      0.1889
     79  C          8.6910    1.1740   13.2420 C.2   234  SER234      0.2288
     80  O          8.7370    2.0060   12.3170 O.2   234  SER234     -0.2866
     81  CB         6.3000    0.9540   13.7820 C.3   234  SER234      0.2089
     82  OG         6.5860    1.6310   14.9880 O.3   234  SER234     -0.2183
     83  N          9.2940    3.2290   15.8910 N.3   236  SER236     -0.1217
     84  CA         9.0430    4.1410   17.0120 C.3   236  SER236      0.1889
     85  C          9.8300    3.6970   18.2640 C.2   236  SER236      0.2288
     86  O         10.0600    2.5060   18.4810 O.2   236  SER236     -0.2866
     87  CB         7.5410    4.2240   17.3140 C.3   236  SER236      0.2089
     88  OG         7.0810    3.0120   17.8960 O.3   236  SER236     -0.2183
     89  N         10.6580    4.2050   22.5710 N.3   238  GLN238     -0.1245
     90  CA        10.1540    4.5710   23.8860 C.3   238  GLN238      0.1566
     91  C         11.2720    4.4090   24.9030 C.2   238  GLN238      0.2260
     92  O         11.9950    3.4020   24.8850 O.2   238  GLN238     -0.2867
     93  CB         9.0070    3.6430   24.2870 C.3   238  GLN238      0.0367
     94  CG         7.8500    3.6440   23.2960 C.3   238  GLN238      0.0905
     95  CD         6.8420    2.5620   23.5960 C.2   238  GLN238      0.2608
     96  OE1        6.6910    1.6010   22.8340 O.2   238  GLN238     -0.2717
     97  NE2        6.1400    2.7100   24.7020 N.am  238  GLN238     -0.0878
@<TRIPOS>BOND
     1    80    79    2
     2    79    78    1
     3    78    81    1
     4    78    77    1
     5    81    82    1
     6    83    84    1
     7    72    71    2
     8    56    55    2
     9    71    70    1
    10    84    87    1
    11    84    85    1
    12    87    88    1
    13    55    57   am
    14    55    54    1
    15    70    73    1
    16    70    69    1
    17    85    86    2
    18    53    52    2
    19    73    74    1
    20    52    51    1
    21    51    54    1
    22    51    50    1
    23    74    76   am
    24    74    75    2
    25    49    48    1
    26    48    45    1
    27    46    47    2
    28    46    45    1
    29    45    44    1
    30    61    60    2
    31    60    59    1
    32    68    67   ar
    33    68    66   ar
    34    67    65   ar
    35    66    64   ar
    36    89    90    1
    37    42    43    1
    38    42    41    1
    39    44    37   am
    40    96    95    2
    41    65    63   ar
    42    64    63   ar
    43    59    58    1
    44    59    62    1
    45    63    62    1
    46    94    95    1
    47    94    93    1
    48    95    97   am
    49    40    41    1
    50    40    39    1
    51    90    93    1
    52    90    91    1
    53    37    38    2
    54    37    36    1
    55    92    91    2
    56    39    36    1
    57    36    35    1
    58    15    13   ar
    59    22    21    1
    60    23    21    1
    61    33    31   ar
    62    33    34   ar
    63     5     6    1
    64     5     2    1
    65    31    29   ar
    66    13    12    1
    67    13    14   ar
    68     6     7    1
    69    21    20    1
    70    12     9    1
    71    34    32   ar
    72     4     3    2
    73    29    28    1
    74    29    30   ar
    75    28    25    1
    76     3     2    1
    77     3     8   am
    78     2     1    1
    79    20    17    1
    80     7     1    1
    81     8     9    1
    82    32    30   ar
    83     9    10    1
    84    26    25    1
    85    26    27    2
    86    25    24    1
    87    17    16    1
    88    17    18    1
    89    10    11    2
    90    19    18    2
