@<TRIPOS>MOLECULE
tmp/4x1fA02.pdb
 84 77 0 0 0
SMALL
GASTEIGER

@<TRIPOS>ATOM
      1  N         -5.5880   72.5510    1.3260 N.3    97  ILE97      -0.1245
      2  CA        -6.8150   73.0920    1.9130 C.3    97  ILE97       0.1561
      3  C         -8.0270   72.2290    1.5160 C.2    97  ILE97       0.2260
      4  O         -8.8540   71.8800    2.3720 O.2    97  ILE97      -0.2867
      5  CB        -7.0250   74.5620    1.5050 C.3    97  ILE97       0.0252
      6  CG1       -5.9300   75.4340    2.1300 C.3    97  ILE97       0.0019
      7  CG2       -8.4150   75.0580    1.9370 C.3    97  ILE97       0.0019
      8  CD1       -5.7350   76.7580    1.4120 C.3    97  ILE97       0.0001
      9  N        -10.5470   69.9760    3.9540 N.3   101  LYS101     -0.1245
     10  CA       -11.9930   70.2490    3.9470 C.3   101  LYS101      0.1561
     11  C        -12.8510   69.0140    3.6620 C.2   101  LYS101      0.2260
     12  O        -14.0030   68.9470    4.0740 O.2   101  LYS101     -0.2867
     13  CB       -12.3220   71.3430    2.9320 C.3   101  LYS101      0.0271
     14  CG       -11.8410   72.7280    3.3610 C.3   101  LYS101      0.0035
     15  CD       -12.2980   73.8680    2.4570 C.3   101  LYS101      0.0206
     16  CE       -11.9330   73.7180    1.0000 C.3   101  LYS101      0.1093
     17  NZ       -12.2890   75.0180    0.3240 N.3   101  LYS101     -0.1314
     18  N        -14.7060   76.4880   12.7250 N.3   111  ILE111     -0.1245
     19  CA       -14.0360   77.1050   11.5830 C.3   111  ILE111      0.1561
     20  C        -12.7390   77.8140   12.0000 C.2   111  ILE111      0.2260
     21  O        -11.7650   77.8320   11.2390 O.2   111  ILE111     -0.2867
     22  CB       -14.9790   78.1000   10.8430 C.3   111  ILE111      0.0252
     23  CG1      -14.3290   78.6440    9.5650 C.3   111  ILE111      0.0019
     24  CG2      -15.4010   79.2410   11.7530 C.3   111  ILE111      0.0019
     25  CD1      -13.6870   77.5770    8.6870 C.3   111  ILE111      0.0001
     26  N        -10.0860   75.1440   12.3290 N.3   114  GLN114     -0.1231
     27  CA        -9.7530   74.7070   10.9760 C.3   114  GLN114      0.1698
     28  C         -8.7000   75.6160   10.3800 C.2   114  GLN114      0.2592
     29  O         -7.6800   75.1500    9.8810 O.2   114  GLN114     -0.2718
     30  CB       -10.9870   74.7000   10.0820 C.3   114  GLN114      0.0381
     31  CG       -12.0260   73.6750   10.4720 C.3   114  GLN114      0.0905
     32  CD       -13.1410   73.5990    9.4640 C.2   114  GLN114      0.2608
     33  OE1      -12.9590   73.9580    8.3060 O.2   114  GLN114     -0.2717
     34  NE2      -14.3110   73.1370    9.8990 N.am  114  GLN114     -0.0878
     35  N         -8.9570   76.9200   10.4480 N.am  115  ILE115     -0.1980
     36  CA        -8.0290   77.9110    9.9290 C.3   115  ILE115      0.1595
     37  C         -6.6870   77.8510   10.6640 C.2   115  ILE115      0.2287
     38  O         -5.6190   77.9160   10.0470 O.2   115  ILE115     -0.2864
     39  CB        -8.6270   79.3250   10.0290 C.3   115  ILE115      0.0276
     40  CG1       -9.8560   79.4340    9.1290 C.3   115  ILE115      0.0022
     41  CG2       -7.6100   80.3660    9.6230 C.3   115  ILE115      0.0022
     42  CD1      -10.7460   80.6150    9.4600 C.3   115  ILE115      0.0001
     43  N         -4.7450   74.6610    9.5060 N.3   118  LEU118     -0.1231
     44  CA        -4.2160   74.8260    8.1500 C.3   118  LEU118      0.1693
     45  C         -3.0470   75.8090    8.1230 C.2   118  LEU118      0.2591
     46  O         -2.0270   75.5500    7.4830 O.2   118  LEU118     -0.2718
     47  CB        -5.3240   75.2700    7.1920 C.3   118  LEU118      0.0284
     48  CG        -6.2450   74.1180    6.7950 C.3   118  LEU118      0.0019
     49  CD1       -7.4950   74.6180    6.0990 C.3   118  LEU118      0.0001
     50  CD2       -5.4740   73.1430    5.8930 C.3   118  LEU118      0.0001
     51  N         -3.1740   76.9260    8.8360 N.am  119  LYS119     -0.1980
     52  CA        -2.0600   77.8640    8.9580 C.3   119  LYS119      0.1596
     53  C         -0.8340   77.1760    9.5630 C.2   119  LYS119      0.2287
     54  O          0.3000   77.3950    9.1260 O.2   119  LYS119     -0.2864
     55  CB        -2.4540   79.0820    9.8110 C.3   119  LYS119      0.0298
     56  CG        -3.3780   80.0730    9.1230 C.3   119  LYS119      0.0038
     57  CD        -3.5890   81.3220    9.9990 C.3   119  LYS119      0.0206
     58  CE        -4.6330   82.2520    9.3930 C.3   119  LYS119      0.1093
     59  NZ        -4.9100   83.4510   10.2450 N.3   119  LYS119     -0.1314
     60  N         -2.6510   84.0160   -0.9630 N.3   261  LEU261     -0.1245
     61  CA        -2.9250   82.8170   -0.1670 C.3   261  LEU261      0.1561
     62  C         -1.7600   82.5490    0.7720 C.2   261  LEU261      0.2260
     63  O         -1.9620   82.1870    1.9280 O.2   261  LEU261     -0.2867
     64  CB        -3.1990   81.5960   -1.0560 C.3   261  LEU261      0.0270
     65  CG        -3.5070   80.3080   -0.2780 C.3   261  LEU261      0.0019
     66  CD1       -4.5780   80.5420    0.7920 C.3   261  LEU261      0.0001
     67  CD2       -3.9240   79.1910   -1.2230 C.3   261  LEU261      0.0001
     68  N         -1.9850   84.9840    3.6850 N.3   264  GLU264     -0.1231
     69  CA        -3.0360   84.5250    4.5780 C.3   264  GLU264      0.1699
     70  C         -2.5270   83.3960    5.4850 C.2   264  GLU264      0.2592
     71  O         -2.7000   83.4320    6.7040 O.2   264  GLU264     -0.2718
     72  CB        -4.2520   84.0690    3.7630 C.3   264  GLU264      0.0402
     73  CG        -5.5330   83.8660    4.5730 C.3   264  GLU264      0.1161
     74  CD        -6.0880   85.1640    5.1660 C.2   264  GLU264      0.3649
     75  OE1       -5.8490   86.2430    4.5900 O.co2 264  GLU264     -0.2457
     76  OE2       -6.7570   85.1030    6.2190 O.co2 264  GLU264     -0.2457
     77  N         -1.8620   82.4140    4.8900 N.am  265  LEU265     -0.1980
     78  CA        -1.4170   81.2430    5.6360 C.3   265  LEU265      0.1596
     79  C         -0.2680   81.5520    6.5920 C.2   265  LEU265      0.2287
     80  O         -0.1360   80.9110    7.6410 O.2   265  LEU265     -0.2864
     81  CB        -0.9950   80.1320    4.6730 C.3   265  LEU265      0.0297
     82  CG        -2.1200   79.3710    3.9740 C.3   265  LEU265      0.0022
     83  CD1       -1.5480   78.4330    2.9030 C.3   265  LEU265      0.0001
     84  CD2       -2.9560   78.5990    4.9930 C.3   265  LEU265      0.0001
@<TRIPOS>BOND
     1    67    65    1
     2    64    65    1
     3    64    61    1
     4    60    61    1
     5    65    66    1
     6    61    62    1
     7    17    16    1
     8    62    63    2
     9    16    15    1
    10     1     2    1
    11     8     6    1
    12     5     2    1
    13     5     7    1
    14     5     6    1
    15     3     2    1
    16     3     4    2
    17    15    14    1
    18    83    82    1
    19    13    14    1
    20    13    10    1
    21    11    10    1
    22    11    12    2
    23    68    69    1
    24    72    73    1
    25    72    69    1
    26    10     9    1
    27    82    81    1
    28    82    84    1
    29    73    74    1
    30    69    70    1
    31    75    74   ar
    32    81    78    1
    33    77    70   am
    34    77    78    1
    35    74    76   ar
    36    70    71    2
    37    78    79    1
    38    50    48    1
    39    49    48    1
    40    79    80    2
    41    48    47    1
    42    47    44    1
    43    46    45    2
    44    45    44    1
    45    45    51   am
    46    44    43    1
    47    33    32    2
    48    25    23    1
    49    51    52    1
    50    52    53    1
    51    52    55    1
    52    56    55    1
    53    56    57    1
    54    54    53    2
    55    40    42    1
    56    40    39    1
    57    58    57    1
    58    58    59    1
    59    32    34   am
    60    32    31    1
    61    23    22    1
    62    41    39    1
    63    29    28    2
    64    36    39    1
    65    36    35    1
    66    36    37    1
    67    38    37    2
    68    30    31    1
    69    30    27    1
    70    28    35   am
    71    28    27    1
    72    22    19    1
    73    22    24    1
    74    27    26    1
    75    21    20    2
    76    19    20    1
    77    19    18    1
