@<TRIPOS>MOLECULE
tmp/4x1gA00.pdb
 154 145 0 0 0
SMALL
GASTEIGER

@<TRIPOS>ATOM
      1  N         20.4380   82.0470    2.9830 N.3    50  ASP50      -0.1225
      2  CA        19.2100   81.2560    2.9700 C.3    50  ASP50       0.1805
      3  C         18.9060   80.7600    1.5530 C.2    50  ASP50       0.2597
      4  O         18.6530   79.5740    1.3440 O.2    50  ASP50      -0.2718
      5  CB        18.0100   82.0660    3.5000 C.3    50  ASP50       0.1424
      6  CG        18.0840   82.3520    5.0040 C.2    50  ASP50       0.3668
      7  OD1       18.7580   81.5920    5.7340 O.co2  50  ASP50      -0.2456
      8  OD2       17.4350   83.3310    5.4570 O.co2  50  ASP50      -0.2456
      9  N         18.9540   81.6720    0.5840 N.am   51  LEU51      -0.1979
     10  CA        18.5470   81.3690   -0.7850 C.3    51  LEU51       0.1596
     11  C         19.4450   80.3680   -1.5250 C.2    51  LEU51       0.2287
     12  O         18.9480   79.4710   -2.2060 O.2    51  LEU51      -0.2864
     13  CB        18.4680   82.6620   -1.6060 C.3    51  LEU51       0.0297
     14  CG        17.2470   83.5550   -1.4050 C.3    51  LEU51       0.0022
     15  CD1       17.4910   84.8660   -2.0850 C.3    51  LEU51       0.0001
     16  CD2       16.0040   82.9040   -1.9780 C.3    51  LEU51       0.0001
     17  N         21.1510   78.0920   -0.3940 N.3    53  SER53      -0.1202
     18  CA        21.3040   76.8580    0.3600 C.3    53  SER53       0.2020
     19  C         20.4790   75.7420   -0.2600 C.2    53  SER53       0.2618
     20  O         20.6020   74.5770    0.1250 O.2    53  SER53      -0.2717
     21  CB        20.9030   77.0660    1.8220 C.3    53  SER53       0.2103
     22  OG        19.5360   76.7650    2.0050 O.3    53  SER53      -0.2182
     23  N         19.6320   76.1010   -1.2170 N.am   54  LEU54      -0.1979
     24  CA        18.8350   75.1090   -1.9230 C.3    54  LEU54       0.1596
     25  C         18.5940   75.5400   -3.3730 C.2    54  LEU54       0.2287
     26  O         17.6040   76.2100   -3.6760 O.2    54  LEU54      -0.2864
     27  CB        17.5070   74.8750   -1.1950 C.3    54  LEU54       0.0297
     28  CG        16.5170   74.0210   -1.9850 C.3    54  LEU54       0.0022
     29  CD1       16.9020   72.5790   -1.8110 C.3    54  LEU54       0.0001
     30  CD2       15.0960   74.2430   -1.4840 C.3    54  LEU54       0.0001
     31  N         11.8760   82.9780   -7.3360 N.3    85  LEU85      -0.1245
     32  CA        10.8980   83.2090   -6.2760 C.3    85  LEU85       0.1561
     33  C          9.4440   83.3550   -6.7720 C.2    85  LEU85       0.2260
     34  O          8.5570   82.7130   -6.2170 O.2    85  LEU85      -0.2867
     35  CB        11.2920   84.4350   -5.4370 C.3    85  LEU85       0.0270
     36  CG        12.3760   84.1480   -4.3870 C.3    85  LEU85       0.0019
     37  CD1       12.7220   85.3920   -3.5840 C.3    85  LEU85       0.0001
     38  CD2       11.9490   83.0310   -3.4750 C.3    85  LEU85       0.0001
     39  N          8.2400   79.8230   -7.6650 N.3    88  MET88      -0.1230
     40  CA         8.0880   78.9700   -6.5080 C.3    88  MET88       0.1702
     41  C          6.9050   79.4010   -5.6580 C.2    88  MET88       0.2592
     42  O          6.1840   78.5620   -5.1160 O.2    88  MET88      -0.2718
     43  CB         9.3630   78.9730   -5.6890 C.3    88  MET88       0.0401
     44  CG        10.4070   78.0690   -6.2890 C.3    88  MET88       0.0596
     45  SD        11.9560   78.1640   -5.4000 S.3    88  MET88      -0.1393
     46  CE        12.9570   77.1510   -6.4990 C.3    88  MET88       0.0692
     47  N          6.6990   80.7050   -5.5540 N.am   89  ALA89      -0.1980
     48  CA         5.5090   81.2170   -4.8760 C.3    89  ALA89       0.1597
     49  C          4.2340   80.6940   -5.5450 C.2    89  ALA89       0.2287
     50  O          3.2860   80.3140   -4.8650 O.2    89  ALA89      -0.2864
     51  CB         5.5150   82.7340   -4.8580 C.3    89  ALA89       0.0319
     52  N          3.9340   76.8290   -4.7250 N.3    92  SER92      -0.1217
     53  CA         3.5410   76.5390   -3.3500 C.3    92  SER92       0.1889
     54  C          2.0740   76.9140   -3.1640 C.2    92  SER92       0.2288
     55  O          1.3050   76.1860   -2.5230 O.2    92  SER92      -0.2866
     56  CB         4.4290   77.2720   -2.3490 C.3    92  SER92       0.2089
     57  OG         4.2370   78.6630   -2.4400 O.3    92  SER92      -0.2183
     58  N         -0.7570   74.5790   -1.7830 N.3    96  PHE96      -0.1241
     59  CA        -1.5480   74.9600   -0.6030 C.3    96  PHE96       0.1605
     60  C         -3.0450   74.7790   -0.8110 C.2    96  PHE96       0.2264
     61  O         -3.7390   74.3360    0.0980 O.2    96  PHE96      -0.2867
     62  CB        -1.2680   76.4130   -0.1950 C.3    96  PHE96       0.0534
     63  CG         0.0860   76.6100    0.4240 C.ar   96  PHE96      -0.0203
     64  CD1        0.7880   77.7830    0.2460 C.ar   96  PHE96      -0.0042
     65  CD2        0.6620   75.6030    1.1720 C.ar   96  PHE96      -0.0042
     66  CE1        2.0400   77.9500    0.8170 C.ar   96  PHE96      -0.0003
     67  CE2        1.9240   75.7580    1.7440 C.ar   96  PHE96      -0.0003
     68  CZ         2.6050   76.9310    1.5690 C.ar   96  PHE96      -0.0000
     69  N          2.3650   74.1840    5.0520 N.3   126  PHE126     -0.1241
     70  CA         3.7250   73.9130    4.6240 C.3   126  PHE126      0.1605
     71  C          4.1640   72.4530    4.8690 C.2   126  PHE126      0.2264
     72  O          4.7500   71.8280    3.9860 O.2   126  PHE126     -0.2867
     73  CB         4.6800   74.8690    5.3360 C.3   126  PHE126      0.0534
     74  CG         6.0870   74.7390    4.8920 C.ar  126  PHE126     -0.0203
     75  CD1        6.5040   75.3480    3.7120 C.ar  126  PHE126     -0.0042
     76  CD2        6.9920   73.9800    5.6180 C.ar  126  PHE126     -0.0042
     77  CE1        7.8050   75.2140    3.2750 C.ar  126  PHE126     -0.0003
     78  CE2        8.2940   73.8420    5.1940 C.ar  126  PHE126     -0.0003
     79  CZ         8.7060   74.4660    4.0200 C.ar  126  PHE126     -0.0000
     80  N         16.0550   70.4450    5.0580 N.3   168  MET168     -0.1245
     81  CA        15.0000   70.1170    4.0850 C.3   168  MET168      0.1570
     82  C         15.3770   68.9560    3.1550 C.2   168  MET168      0.2261
     83  O         14.5730   68.0630    2.8940 O.2   168  MET168     -0.2867
     84  CB        14.6570   71.3440    3.2450 C.3   168  MET168      0.0387
     85  CG        13.6160   71.1010    2.1410 C.3   168  MET168      0.0595
     86  SD        11.9870   70.6940    2.8170 S.3   168  MET168     -0.1393
     87  CE        11.2590   72.3260    2.9540 C.3   168  MET168      0.0692
     88  N         11.9080   77.3600    7.8000 N.3   252  HIS252     -0.1241
     89  CA        11.5910   77.8630    6.4860 C.3   252  HIS252      0.1621
     90  C         10.6270   79.0390    6.5710 C.2   252  HIS252      0.2264
     91  O         10.6430   79.9170    5.7120 O.2   252  HIS252     -0.2867
     92  CB        11.0280   76.7460    5.6090 C.3   252  HIS252      0.0745
     93  CG        12.0730   76.0250    4.8120 C.ar  252  HIS252      0.0817
     94  ND1       13.1760   75.4270    5.3920 N.ar  252  HIS252     -0.2268
     95  CD2       12.1920   75.8130    3.4790 C.ar  252  HIS252      0.1154
     96  CE1       13.9230   74.8790    4.4510 C.ar  252  HIS252      0.1986
     97  NE2       13.3490   75.1000    3.2800 N.ar  252  HIS252     -0.2212
     98  N         12.8970   81.9240    7.0800 N.3   255  ARG255     -0.1231
     99  CA        13.5170   82.2870    5.8040 C.3   255  ARG255      0.1694
    100  C         12.5400   83.0850    4.9480 C.2   255  ARG255      0.2591
    101  O         12.8740   84.1480    4.4270 O.2   255  ARG255     -0.2718
    102  CB        13.9740   81.0530    5.0270 C.3   255  ARG255      0.0321
    103  CG        15.1340   80.2920    5.6340 C.3   255  ARG255      0.0489
    104  CD        15.6420   79.2260    4.6470 C.3   255  ARG255      0.2205
    105  NE        16.6270   78.3430    5.2680 N.pl3 255  ARG255     -0.0865
    106  CZ        17.2490   77.3340    4.6580 C.cat 255  ARG255      0.5346
    107  NH1       17.0000   77.0540    3.3870 N.pl3 255  ARG255      0.1354
    108  NH2       18.1300   76.5970    5.3260 N.pl3 255  ARG255      0.1354
    109  N         11.3280   82.5570    4.8090 N.am  256  LEU256     -0.1980
    110  CA        10.2890   83.2050    4.0170 C.3   256  LEU256      0.1596
    111  C         10.1010   84.6370    4.4720 C.2   256  LEU256      0.2287
    112  O         10.0790   85.5550    3.6600 O.2   256  LEU256     -0.2864
    113  CB         8.9560   82.4610    4.1280 C.3   256  LEU256      0.0297
    114  CG         7.8120   83.2060    3.4290 C.3   256  LEU256      0.0022
    115  CD1        8.0930   83.1990    1.9510 C.3   256  LEU256      0.0001
    116  CD2        6.4480   82.5960    3.6740 C.3   256  LEU256      0.0001
    117  N         13.1210   86.8300    3.5820 N.3   259  ILE259     -0.1245
    118  CA        13.0610   87.2890    2.1900 C.3   259  ILE259      0.1561
    119  C         11.9960   88.3540    2.0180 C.2   259  ILE259      0.2260
    120  O         12.2370   89.4010    1.4200 O.2   259  ILE259     -0.2867
    121  CB        12.7280   86.1750    1.2010 C.3   259  ILE259      0.0252
    122  CG1       13.7610   85.0610    1.2580 C.3   259  ILE259      0.0019
    123  CG2       12.6070   86.7500   -0.2070 C.3   259  ILE259      0.0019
    124  CD1       13.2720   83.8060    0.5930 C.3   259  ILE259      0.0001
    125  N          7.2620   89.1060   -2.1390 N.3   265  PHE265     -0.1241
    126  CA         6.9460   88.2120   -3.2500 C.3   265  PHE265      0.1605
    127  C          5.8070   87.2470   -2.9250 C.2   265  PHE265      0.2264
    128  O          5.2680   86.6080   -3.8250 O.2   265  PHE265     -0.2867
    129  CB         8.1950   87.4240   -3.6620 C.3   265  PHE265      0.0534
    130  CG         8.5000   86.2780   -2.7580 C.ar  265  PHE265     -0.0203
    131  CD1        8.2570   84.9810   -3.1680 C.ar  265  PHE265     -0.0042
    132  CD2        9.0030   86.4960   -1.4900 C.ar  265  PHE265     -0.0042
    133  CE1        8.5330   83.9280   -2.3420 C.ar  265  PHE265     -0.0003
    134  CE2        9.2760   85.4460   -0.6530 C.ar  265  PHE265     -0.0003
    135  CZ         9.0420   84.1630   -1.0820 C.ar  265  PHE265     -0.0000
    136  N         -0.3430   82.9290    0.3590 N.3   270  MET270     -0.1245
    137  CA         0.8490   82.7990    1.1780 C.3   270  MET270      0.1570
    138  C          0.8010   83.7620    2.3530 C.2   270  MET270      0.2261
    139  O          1.0660   83.3600    3.4730 O.2   270  MET270     -0.2867
    140  CB         2.1050   83.0280    0.3400 C.3   270  MET270      0.0387
    141  CG         2.5230   81.8010   -0.4680 C.3   270  MET270      0.0595
    142  SD         3.8500   82.1720   -1.6370 S.3   270  MET270     -0.1393
    143  CE         5.1910   82.5720   -0.5000 C.3   270  MET270      0.0692
    144  N          0.7280   82.6940    6.3620 N.3   274  PHE274     -0.1241
    145  CA         1.9410   82.9560    7.1310 C.3   274  PHE274      0.1605
    146  C          1.8060   84.2050    7.9880 C.2   274  PHE274      0.2264
    147  O          2.7630   84.6460    8.6170 O.2   274  PHE274     -0.2867
    148  CB         3.1580   83.0710    6.1990 C.3   274  PHE274      0.0534
    149  CG         3.6340   81.7450    5.6630 C.ar  274  PHE274     -0.0203
    150  CD1        3.1980   81.2770    4.4330 C.ar  274  PHE274     -0.0042
    151  CD2        4.5000   80.9510    6.4050 C.ar  274  PHE274     -0.0042
    152  CE1        3.6240   80.0480    3.9410 C.ar  274  PHE274     -0.0003
    153  CE2        4.9260   79.7130    5.9190 C.ar  274  PHE274     -0.0003
    154  CZ         4.4790   79.2610    4.6860 C.ar  274  PHE274     -0.0000
@<TRIPOS>BOND
     1    39    40    1
     2    31    32    1
     3    33    32    1
     4    33    34    2
     5    40    43    1
     6    40    41    1
     7    46    45    1
     8    44    43    1
     9    44    45    1
    10    32    35    1
    11    41    47   am
    12    41    42    2
    13    47    48    1
    14    49    48    1
    15    49    50    2
    16    35    36    1
    17    48    51    1
    18    52    53    1
    19    36    37    1
    20    36    38    1
    21   128   127    2
    22    26    25    2
    23   129   126    1
    24   129   130    1
    25    25    24    1
    26    53    54    1
    27    53    56    1
    28   126   127    1
    29   126   125    1
    30   131   130   ar
    31   131   133   ar
    32    54    55    2
    33   130   132   ar
    34    57    56    1
    35   133   135   ar
    36    12    11    2
    37    15    14    1
    38    28    29    1
    39    28    30    1
    40    28    27    1
    41    16    14    1
    42    24    23    1
    43    24    27    1
    44    58    59    1
    45   142   143    1
    46   142   141    1
    47    13    14    1
    48    13    10    1
    49    11    10    1
    50   132   134   ar
    51    23    19   am
    52   135   134   ar
    53    60    59    1
    54    60    61    2
    55    10     9    1
    56    59    62    1
    57   141   140    1
    58    17    18    1
    59    19    20    2
    60    19    18    1
    61   123   121    1
    62    62    63    1
    63    64    63   ar
    64    64    66   ar
    65   140   137    1
    66   136   137    1
    67    18    21    1
    68    63    65   ar
    69     9     3   am
    70   124   122    1
    71    66    68   ar
    72    65    67   ar
    73   137   138    1
    74   121   122    1
    75   121   118    1
    76     4     3    2
    77   120   119    2
    78     3     2    1
    79    68    67   ar
    80    21    22    1
    81   115   114    1
    82   119   118    1
    83    85    86    1
    84    85    84    1
    85   118   117    1
    86   138   139    2
    87    86    87    1
    88    83    82    2
    89     2     1    1
    90     2     5    1
    91    82    81    1
    92    84    81    1
    93    77    75   ar
    94    77    79   ar
    95    97    95   ar
    96    97    96   ar
    97   107   106    1
    98   114   116    1
    99   114   113    1
   100    95    93   ar
   101     5     6    1
   102   112   111    2
   103    75    74   ar
   104   152   150   ar
   105   152   154   ar
   106    72    71    2
   107   110   113    1
   108   110   111    1
   109   110   109    1
   110    79    78   ar
   111    81    80    1
   112   101   100    2
   113   150   149   ar
   114    96    94   ar
   115    70    71    1
   116    70    69    1
   117    70    73    1
   118   104   105    1
   119   104   103    1
   120   106   105    2
   121   106   108    1
   122   154   153   ar
   123   109   100   am
   124    93    94   ar
   125    93    92    1
   126    74    73    1
   127    74    76   ar
   128   100    99    1
   129     6     8   ar
   130     6     7   ar
   131   102   103    1
   132   102    99    1
   133    78    76   ar
   134    92    89    1
   135   149   148    1
   136   149   151   ar
   137    91    90    2
   138    99    98    1
   139   153   151   ar
   140   148   145    1
   141   144   145    1
   142    89    90    1
   143    89    88    1
   144   145   146    1
   145   146   147    2
