@<TRIPOS>MOLECULE
tmp/4x1gA01.pdb
 139 134 0 0 0
SMALL
GASTEIGER

@<TRIPOS>ATOM
      1  N         19.6320   76.1010   -1.2170 N.3    54  LEU54      -0.1245
      2  CA        18.8350   75.1090   -1.9230 C.3    54  LEU54       0.1561
      3  C         18.5940   75.5400   -3.3730 C.2    54  LEU54       0.2260
      4  O         17.6040   76.2100   -3.6760 O.2    54  LEU54      -0.2867
      5  CB        17.5070   74.8750   -1.1950 C.3    54  LEU54       0.0270
      6  CG        16.5170   74.0210   -1.9850 C.3    54  LEU54       0.0019
      7  CD1       16.9020   72.5790   -1.8110 C.3    54  LEU54       0.0001
      8  CD2       15.0960   74.2430   -1.4840 C.3    54  LEU54       0.0001
      9  N         17.9170   74.7460   -7.3660 N.3    56  VAL56      -0.1245
     10  CA        17.4100   73.7950   -8.3440 C.3    56  VAL56       0.1561
     11  C         17.3570   74.3900   -9.7340 C.2    56  VAL56       0.2260
     12  O         17.1170   75.5810   -9.9110 O.2    56  VAL56      -0.2867
     13  CB        16.0030   73.2950   -7.9880 C.3    56  VAL56       0.0252
     14  CG1       16.0710   72.2630   -6.8620 C.3    56  VAL56       0.0019
     15  CG2       15.0860   74.4730   -7.6300 C.3    56  VAL56       0.0019
     16  N          8.2400   79.8230   -7.6650 N.3    88  MET88      -0.1245
     17  CA         8.0880   78.9700   -6.5080 C.3    88  MET88       0.1570
     18  C          6.9050   79.4010   -5.6580 C.2    88  MET88       0.2261
     19  O          6.1840   78.5620   -5.1160 O.2    88  MET88      -0.2867
     20  CB         9.3630   78.9730   -5.6890 C.3    88  MET88       0.0387
     21  CG        10.4070   78.0690   -6.2890 C.3    88  MET88       0.0595
     22  SD        11.9560   78.1640   -5.4000 S.3    88  MET88      -0.1393
     23  CE        12.9570   77.1510   -6.4990 C.3    88  MET88       0.0692
     24  N          3.9530   77.8950   -7.3610 N.3    91  MET91      -0.1230
     25  CA         3.8620   76.4520   -7.1410 C.3    91  MET91       0.1702
     26  C          3.3810   76.1390   -5.7170 C.2    91  MET91       0.2593
     27  O          2.5080   75.2820   -5.5200 O.2    91  MET91      -0.2718
     28  CB         5.2150   75.7630   -7.4120 C.3    91  MET91       0.0401
     29  CG         5.2920   74.3120   -6.9120 C.3    91  MET91       0.0596
     30  SD         3.9990   73.2680   -7.6120 S.3    91  MET91      -0.1393
     31  CE         4.7970   72.6220   -9.1090 C.3    91  MET91       0.0692
     32  N          3.9340   76.8290   -4.7250 N.am   92  SER92      -0.1952
     33  CA         3.5410   76.5390   -3.3500 C.3    92  SER92       0.1924
     34  C          2.0740   76.9140   -3.1640 C.2    92  SER92       0.2314
     35  O          1.3050   76.1860   -2.5230 O.2    92  SER92      -0.2863
     36  CB         4.4290   77.2720   -2.3490 C.3    92  SER92       0.2116
     37  OG         4.2370   78.6630   -2.4400 O.3    92  SER92      -0.2180
     38  N         -0.7570   74.5790   -1.7830 N.3    96  PHE96      -0.1241
     39  CA        -1.5480   74.9600   -0.6030 C.3    96  PHE96       0.1605
     40  C         -3.0450   74.7790   -0.8110 C.2    96  PHE96       0.2264
     41  O         -3.7390   74.3360    0.0980 O.2    96  PHE96      -0.2867
     42  CB        -1.2680   76.4130   -0.1950 C.3    96  PHE96       0.0534
     43  CG         0.0860   76.6100    0.4240 C.ar   96  PHE96      -0.0203
     44  CD1        0.7880   77.7830    0.2460 C.ar   96  PHE96      -0.0042
     45  CD2        0.6620   75.6030    1.1720 C.ar   96  PHE96      -0.0042
     46  CE1        2.0400   77.9500    0.8170 C.ar   96  PHE96      -0.0003
     47  CE2        1.9240   75.7580    1.7440 C.ar   96  PHE96      -0.0003
     48  CZ         2.6050   76.9310    1.5690 C.ar   96  PHE96      -0.0000
     49  N          2.3650   74.1840    5.0520 N.3   126  PHE126     -0.1241
     50  CA         3.7250   73.9130    4.6240 C.3   126  PHE126      0.1605
     51  C          4.1640   72.4530    4.8690 C.2   126  PHE126      0.2264
     52  O          4.7500   71.8280    3.9860 O.2   126  PHE126     -0.2867
     53  CB         4.6800   74.8690    5.3360 C.3   126  PHE126      0.0534
     54  CG         6.0870   74.7390    4.8920 C.ar  126  PHE126     -0.0203
     55  CD1        6.5040   75.3480    3.7120 C.ar  126  PHE126     -0.0042
     56  CD2        6.9920   73.9800    5.6180 C.ar  126  PHE126     -0.0042
     57  CE1        7.8050   75.2140    3.2750 C.ar  126  PHE126     -0.0003
     58  CE2        8.2940   73.8420    5.1940 C.ar  126  PHE126     -0.0003
     59  CZ         8.7060   74.4660    4.0200 C.ar  126  PHE126     -0.0000
     60  N          2.5250   70.1370    2.5320 N.3   129  CYS129     -0.1221
     61  CA         3.1480   70.3430    1.2310 C.3   129  CYS129      0.1808
     62  C          4.4350   69.5390    1.0710 C.2   129  CYS129      0.2601
     63  O          4.6480   68.9180    0.0360 O.2   129  CYS129     -0.2717
     64  CB         3.4290   71.8220    1.0060 C.3   129  CYS129      0.0970
     65  SG         1.9580   72.7280    0.5370 S.3   129  CYS129     -0.0800
     66  N          5.2840   69.5330    2.0930 N.am  130  GLN130     -0.1979
     67  CA         6.5250   68.7760    2.0340 C.3   130  GLN130      0.1601
     68  C          6.2080   67.2910    1.9310 C.2   130  GLN130      0.2287
     69  O          6.8550   66.5550    1.1840 O.2   130  GLN130     -0.2864
     70  CB         7.3960   69.0770    3.2600 C.3   130  GLN130      0.0394
     71  CG         7.8800   70.5330    3.2720 C.3   130  GLN130      0.0908
     72  CD         8.3360   70.9840    1.8760 C.2   130  GLN130      0.2608
     73  OE1        9.1830   70.3440    1.2560 O.2   130  GLN130     -0.2717
     74  NE2        7.7560   72.0780    1.3740 N.am  130  GLN130     -0.0878
     75  N          5.0850   66.5920   -1.5540 N.3   133  PHE133     -0.1241
     76  CA         6.2500   66.7300   -2.4270 C.3   133  PHE133      0.1605
     77  C          7.1820   65.5220   -2.3190 C.2   133  PHE133      0.2264
     78  O          7.8190   65.1400   -3.2920 O.2   133  PHE133     -0.2867
     79  CB         7.0370   68.0140   -2.1120 C.3   133  PHE133      0.0534
     80  CG         6.6120   69.2040   -2.9260 C.ar  133  PHE133     -0.0203
     81  CD1        6.3210   69.0790   -4.2850 C.ar  133  PHE133     -0.0042
     82  CD2        6.5260   70.4600   -2.3430 C.ar  133  PHE133     -0.0042
     83  CE1        5.9470   70.1840   -5.0420 C.ar  133  PHE133     -0.0003
     84  CE2        6.1520   71.5750   -3.0970 C.ar  133  PHE133     -0.0003
     85  CZ         5.8550   71.4280   -4.4460 C.ar  133  PHE133     -0.0000
     86  N         12.4770   66.4810   -7.9770 N.3   144  TRP144     -0.1241
     87  CA        11.0490   66.3990   -7.6900 C.3   144  TRP144      0.1605
     88  C         10.3100   66.3820   -9.0200 C.2   144  TRP144      0.2264
     89  O         10.3620   67.3570   -9.7690 O.2   144  TRP144     -0.2867
     90  CB        10.5790   67.5610   -6.8310 C.3   144  TRP144      0.0550
     91  CG        11.0670   67.5030   -5.4050 C.ar  144  TRP144      0.0003
     92  CD1       10.4260   66.9220   -4.3370 C.ar  144  TRP144      0.0946
     93  CD2       12.2900   68.0520   -4.8870 C.ar  144  TRP144      0.0152
     94  NE1       11.1790   67.0740   -3.1910 N.ar  144  TRP144     -0.2442
     95  CE2       12.3260   67.7620   -3.4960 C.ar  144  TRP144      0.0810
     96  CE3       13.3600   68.7550   -5.4600 C.ar  144  TRP144      0.0012
     97  CZ2       13.3930   68.1590   -2.6690 C.ar  144  TRP144      0.0191
     98  CZ3       14.4250   69.1520   -4.6340 C.ar  144  TRP144      0.0001
     99  CH2       14.4300   68.8440   -3.2570 C.ar  144  TRP144      0.0015
    100  N         12.1260   69.5980  -10.8540 N.3   151  TYR151     -0.1241
    101  CA        13.0370   70.4820  -10.1260 C.3   151  TYR151      0.1605
    102  C         14.2040   69.6430   -9.6930 C.2   151  TYR151      0.2264
    103  O         14.0450   68.7420   -8.8650 O.2   151  TYR151     -0.2867
    104  CB        12.3780   71.1300   -8.9080 C.3   151  TYR151      0.0534
    105  CG        11.1460   71.9180   -9.2370 C.ar  151  TYR151     -0.0201
    106  CD1        9.9040   71.2930   -9.3000 C.ar  151  TYR151     -0.0009
    107  CD2       11.2160   73.2880   -9.4900 C.ar  151  TYR151     -0.0009
    108  CE1        8.7620   72.0010   -9.6180 C.ar  151  TYR151      0.0417
    109  CE2       10.0760   74.0100   -9.8070 C.ar  151  TYR151      0.0417
    110  CZ         8.8530   73.3560   -9.8760 C.ar  151  TYR151      0.1957
    111  OH         7.7140   74.0560  -10.1890 O.3   151  TYR151     -0.2866
    112  N         16.0550   70.4450    5.0580 N.3   168  MET168     -0.1245
    113  CA        15.0000   70.1170    4.0850 C.3   168  MET168      0.1570
    114  C         15.3770   68.9560    3.1550 C.2   168  MET168      0.2261
    115  O         14.5730   68.0630    2.8940 O.2   168  MET168     -0.2867
    116  CB        14.6570   71.3440    3.2450 C.3   168  MET168      0.0387
    117  CG        13.6160   71.1010    2.1410 C.3   168  MET168      0.0595
    118  SD        11.9870   70.6940    2.8170 S.3   168  MET168     -0.1393
    119  CE        11.2590   72.3260    2.9540 C.3   168  MET168      0.0692
    120  N         13.9430   64.9870    3.0210 N.3   172  HIS172     -0.1241
    121  CA        13.3470   64.3340    1.8590 C.3   172  HIS172      0.1621
    122  C         14.0040   63.0130    1.5420 C.2   172  HIS172      0.2264
    123  O         13.3140   62.0440    1.2070 O.2   172  HIS172     -0.2867
    124  CB        13.3850   65.2530    0.6280 C.3   172  HIS172      0.0745
    125  CG        12.1940   66.1500    0.5470 C.ar  172  HIS172      0.0817
    126  ND1       10.9570   65.6930    0.1640 N.ar  172  HIS172     -0.2268
    127  CD2       12.0270   67.4490    0.8980 C.ar  172  HIS172      0.1154
    128  CE1       10.0810   66.6820    0.2500 C.ar  172  HIS172      0.1986
    129  NE2       10.7050   67.7560    0.6940 N.ar  172  HIS172     -0.2212
    130  N         11.9080   77.3600    7.8000 N.3   252  HIS252     -0.1241
    131  CA        11.5910   77.8630    6.4860 C.3   252  HIS252      0.1621
    132  C         10.6270   79.0390    6.5710 C.2   252  HIS252      0.2264
    133  O         10.6430   79.9170    5.7120 O.2   252  HIS252     -0.2867
    134  CB        11.0280   76.7460    5.6090 C.3   252  HIS252      0.0745
    135  CG        12.0730   76.0250    4.8120 C.ar  252  HIS252      0.0817
    136  ND1       13.1760   75.4270    5.3920 N.ar  252  HIS252     -0.2268
    137  CD2       12.1920   75.8130    3.4790 C.ar  252  HIS252      0.1154
    138  CE1       13.9230   74.8790    4.4510 C.ar  252  HIS252      0.1986
    139  NE2       13.3490   75.1000    3.2800 N.ar  252  HIS252     -0.2212
@<TRIPOS>BOND
     1   100   101    1
     2   111   110    1
     3   101   102    1
     4   101   104    1
     5    12    11    2
     6   110   109   ar
     7   110   108   ar
     8   109   107   ar
     9    89    88    2
    10    11    10    1
    11   102   103    2
    12   108   106   ar
    13   107   105   ar
    14   106   105   ar
    15   105   104    1
    16    31    30    1
    17    88    87    1
    18    10    13    1
    19    10     9    1
    20    13    15    1
    21    13    14    1
    22    86    87    1
    23    87    90    1
    24    16    17    1
    25    30    29    1
    26    28    25    1
    27    28    29    1
    28    24    25    1
    29    25    26    1
    30    90    91    1
    31    17    20    1
    32    17    18    1
    33    23    22    1
    34    21    20    1
    35    21    22    1
    36    26    27    2
    37    26    32   am
    38    18    19    2
    39    96    93   ar
    40    96    98   ar
    41    91    93   ar
    42    91    92   ar
    43    83    85   ar
    44    83    81   ar
    45    93    95   ar
    46    32    33    1
    47    98    99   ar
    48    85    84   ar
    49    92    94   ar
    50    81    80   ar
    51     4     3    2
    52    95    94   ar
    53    95    97   ar
    54     3     2    1
    55    33    34    1
    56    33    36    1
    57    78    77    2
    58    99    97   ar
    59    34    35    2
    60    84    82   ar
    61    80    82   ar
    62    80    79    1
    63    37    36    1
    64    76    77    1
    65    76    79    1
    66    76    75    1
    67     6     7    1
    68     6     8    1
    69     6     5    1
    70     2     1    1
    71     2     5    1
    72    38    39    1
    73    40    39    1
    74    40    41    2
    75    39    42    1
    76    42    43    1
    77    63    62    2
    78   126   128   ar
    79   126   125   ar
    80    44    43   ar
    81    44    46   ar
    82   128   129   ar
    83    43    45   ar
    84    65    64    1
    85   125   124    1
    86   125   127   ar
    87   124   121    1
    88   129   127   ar
    89    46    48   ar
    90    64    61    1
    91    62    61    1
    92    62    66   am
    93    45    47   ar
    94    69    68    2
    95   123   122    2
    96    61    60    1
    97    73    72    2
    98    74    72   am
    99   122   121    1
   100    48    47   ar
   101   121   120    1
   102    72    71    1
   103    68    67    1
   104    67    66    1
   105    67    70    1
   106   117   118    1
   107   117   116    1
   108   118   119    1
   109   115   114    2
   110   114   113    1
   111   116   113    1
   112    70    71    1
   113    57    55   ar
   114    57    59   ar
   115   139   137   ar
   116   139   138   ar
   117   137   135   ar
   118    55    54   ar
   119    52    51    2
   120    59    58   ar
   121   113   112    1
   122   138   136   ar
   123    50    51    1
   124    50    49    1
   125    50    53    1
   126   135   136   ar
   127   135   134    1
   128    54    53    1
   129    54    56   ar
   130    58    56   ar
   131   134   131    1
   132   133   132    2
   133   131   132    1
   134   131   130    1
