@<TRIPOS>MOLECULE
tmp/4x1hA00.pdb
 72 65 0 0 0
SMALL
GASTEIGER

@<TRIPOS>ATOM
      1  N         22.2730  -64.2670  -33.2110 N.3     6  GLY6       -0.1225
      2  CA        23.5840  -64.0870  -32.6200 C.3     6  GLY6        0.1811
      3  C         23.4520  -63.1730  -31.4200 C.2     6  GLY6        0.2280
      4  O         22.4260  -62.5100  -31.2610 O.2     6  GLY6       -0.2866
      5  N          1.1220  -23.4850  -32.1750 N.3   135  ARG135     -0.1245
      6  CA         0.2850  -22.8450  -33.1780 C.3   135  ARG135      0.1563
      7  C         -1.1750  -22.8600  -32.7500 C.2   135  ARG135      0.2260
      8  O         -1.9070  -21.8900  -32.9600 O.2   135  ARG135     -0.2867
      9  CB         0.4610  -23.5350  -34.5330 C.3   135  ARG135      0.0307
     10  CG         1.7490  -23.1410  -35.2400 C.3   135  ARG135      0.0489
     11  CD         2.0340  -24.0050  -36.4540 C.3   135  ARG135      0.2205
     12  NE         3.1070  -23.4280  -37.2550 N.pl3 135  ARG135     -0.0865
     13  CZ         3.6150  -23.9760  -38.3530 C.cat 135  ARG135      0.5346
     14  NH1        3.1590  -25.1430  -38.7960 N.pl3 135  ARG135      0.1354
     15  NH2        4.5870  -23.3550  -39.0050 N.pl3 135  ARG135      0.1354
     16  N         -3.0640  -19.2690  -32.1090 N.3   139  VAL139     -0.1245
     17  CA        -4.1390  -18.8990  -33.0280 C.3   139  VAL139      0.1561
     18  C         -5.5370  -19.1210  -32.4340 C.2   139  VAL139      0.2260
     19  O         -6.4040  -18.2550  -32.5360 O.2   139  VAL139     -0.2867
     20  CB        -4.0270  -19.6800  -34.3570 C.3   139  VAL139      0.0252
     21  CG1       -5.2050  -19.3590  -35.2710 C.3   139  VAL139      0.0019
     22  CG2       -2.7090  -19.3600  -35.0550 C.3   139  VAL139      0.0019
     23  N         -4.3170  -29.1360  -35.0780 N.3   223  TYR223     -0.1241
     24  CA        -4.4710  -28.5820  -36.4150 C.3   223  TYR223      0.1605
     25  C         -5.9220  -28.6330  -36.8710 C.2   223  TYR223      0.2264
     26  O         -6.3150  -27.8940  -37.7710 O.2   223  TYR223     -0.2867
     27  CB        -3.5700  -29.3110  -37.4100 C.3   223  TYR223      0.0534
     28  CG        -2.1360  -28.8310  -37.3700 C.ar  223  TYR223     -0.0201
     29  CD1       -1.8350  -27.5030  -37.0910 C.ar  223  TYR223     -0.0009
     30  CD2       -1.0830  -29.7050  -37.6070 C.ar  223  TYR223     -0.0009
     31  CE1       -0.5220  -27.0580  -37.0520 C.ar  223  TYR223      0.0417
     32  CE2        0.2310  -29.2720  -37.5710 C.ar  223  TYR223      0.0417
     33  CZ         0.5080  -27.9500  -37.2910 C.ar  223  TYR223      0.1957
     34  OH         1.8170  -27.5170  -37.2580 O.3   223  TYR223     -0.2866
     35  N         -7.2750  -25.5280  -35.2920 N.3   226  LEU226     -0.1245
     36  CA        -6.7390  -24.3960  -36.0380 C.3   226  LEU226      0.1561
     37  C         -7.5160  -24.1610  -37.3320 C.2   226  LEU226      0.2260
     38  O         -7.8620  -23.0240  -37.6540 O.2   226  LEU226     -0.2867
     39  CB        -5.2530  -24.6130  -36.3380 C.3   226  LEU226      0.0270
     40  CG        -4.4220  -23.3590  -36.6160 C.3   226  LEU226      0.0019
     41  CD1       -2.9800  -23.5770  -36.2020 C.3   226  LEU226      0.0001
     42  CD2       -4.4880  -22.9940  -38.0790 C.3   226  LEU226      0.0001
     43  N         -4.0660  -21.9180  -45.2120 N.3   250  VAL250     -0.1245
     44  CA        -3.8730  -22.6310  -43.9560 C.3   250  VAL250      0.1561
     45  C         -4.4090  -24.0600  -44.0490 C.2   250  VAL250      0.2260
     46  O         -3.7680  -25.0060  -43.5870 O.2   250  VAL250     -0.2867
     47  CB        -4.5490  -21.9040  -42.7870 C.3   250  VAL250      0.0252
     48  CG1       -4.6820  -22.8280  -41.5930 C.3   250  VAL250      0.0019
     49  CG2       -3.7640  -20.6500  -42.4150 C.3   250  VAL250      0.0019
     50  N         -1.8810  -26.0990  -46.0790 N.3   253  MET253     -0.1230
     51  CA        -0.6780  -26.4260  -45.3150 C.3   253  MET253      0.1702
     52  C         -0.9420  -27.4930  -44.2540 C.2   253  MET253      0.2592
     53  O         -0.0950  -28.3510  -44.0060 O.2   253  MET253     -0.2718
     54  CB        -0.1020  -25.1720  -44.6530 C.3   253  MET253      0.0401
     55  CG         0.4660  -24.1480  -45.6260 C.3   253  MET253      0.0596
     56  SD         1.7830  -24.8090  -46.6740 S.3   253  MET253     -0.1393
     57  CE         2.9420  -25.4010  -45.4400 C.3   253  MET253      0.0692
     58  N         -2.1110  -27.4360  -43.6260 N.am  254  VAL254     -0.1980
     59  CA        -2.4580  -28.4030  -42.5900 C.3   254  VAL254      0.1595
     60  C         -2.5980  -29.7960  -43.1990 C.2   254  VAL254      0.2287
     61  O         -2.1840  -30.7900  -42.6010 O.2   254  VAL254     -0.2864
     62  CB        -3.7510  -28.0110  -41.8530 C.3   254  VAL254      0.0276
     63  CG1       -4.3140  -29.1980  -41.0730 C.3   254  VAL254      0.0022
     64  CG2       -3.4840  -26.8460  -40.9180 C.3   254  VAL254      0.0022
     65  N          0.9300  -31.0340  -43.9950 N.3   257  MET257     -0.1245
     66  CA         1.6420  -31.4340  -42.7860 C.3   257  MET257      0.1570
     67  C          1.1480  -32.7670  -42.2420 C.2   257  MET257      0.2261
     68  O          1.9440  -33.6160  -41.8440 O.2   257  MET257     -0.2867
     69  CB         1.5190  -30.3560  -41.7130 C.3   257  MET257      0.0387
     70  CG         2.3170  -29.1010  -42.0380 C.3   257  MET257      0.0595
     71  SD         2.2740  -27.8710  -40.7340 S.3   257  MET257     -0.1393
     72  CE         0.5450  -27.3680  -40.7540 C.3   257  MET257      0.0692
@<TRIPOS>BOND
     1    56    55    1
     2    56    57    1
     3    50    51    1
     4    55    54    1
     5    51    54    1
     6    51    52    1
     7    43    44    1
     8    52    53    2
     9    52    58   am
    10    45    44    1
    11    45    46    2
    12    65    66    1
    13    44    47    1
    14    58    59    1
    15    60    61    2
    16    60    59    1
    17    47    49    1
    18    47    48    1
    19    66    67    1
    20    66    69    1
    21    59    62    1
    22    67    68    2
    23    70    69    1
    24    70    71    1
    25    62    63    1
    26    62    64    1
    27    72    71    1
    28    15    13    1
    29    14    13    1
    30    13    12    2
    31    42    40    1
    32    26    25    2
    33    38    37    2
    34    30    32   ar
    35    30    28   ar
    36    32    33   ar
    37    27    28    1
    38    27    24    1
    39    28    29   ar
    40    37    36    1
    41    33    34    1
    42    33    31   ar
    43    12    11    1
    44    29    31   ar
    45    25    24    1
    46    40    39    1
    47    40    41    1
    48    11    10    1
    49    24    23    1
    50    39    36    1
    51    36    35    1
    52    21    20    1
    53    10     9    1
    54    22    20    1
    55     9     6    1
    56    20    17    1
    57     1     2    1
    58     6     7    1
    59     6     5    1
    60    17    18    1
    61    17    16    1
    62     8     7    2
    63     2     3    1
    64    19    18    2
    65     3     4    2
