@<TRIPOS>MOLECULE
tmp/4x1hA03.pdb
 174 167 0 0 0
SMALL
GASTEIGER

@<TRIPOS>ATOM
      1  N         20.3040  -36.7800  -37.7150 N.3    86  MET86      -0.1245
      2  CA        20.0020  -37.8930  -38.6090 C.3    86  MET86       0.1570
      3  C         21.0460  -37.9670  -39.7210 C.2    86  MET86       0.2261
      4  O         21.4440  -39.0520  -40.1360 O.2    86  MET86      -0.2867
      5  CB        18.5940  -37.7600  -39.2060 C.3    86  MET86       0.0387
      6  CG        17.4660  -37.7120  -38.1710 C.3    86  MET86       0.0595
      7  SD        15.8330  -37.3390  -38.8690 S.3    86  MET86      -0.1393
      8  CE        15.5280  -38.8170  -39.8360 C.3    86  MET86       0.0692
      9  N         20.8160  -41.5980  -34.1980 N.3   117  ALA117     -0.1231
     10  CA        19.8740  -41.6150  -35.3150 C.3   117  ALA117      0.1694
     11  C         18.4320  -41.6370  -34.8100 C.2   117  ALA117      0.2592
     12  O         17.5450  -40.9810  -35.3740 O.2   117  ALA117     -0.2718
     13  CB        20.1360  -42.8080  -36.2150 C.3   117  ALA117      0.0304
     14  N         18.2050  -42.3990  -33.7460 N.am  118  THR118     -0.1953
     15  CA        16.8860  -42.4820  -33.1330 C.3   118  THR118      0.1897
     16  C         16.5800  -41.1840  -32.3990 C.2   118  THR118      0.2313
     17  O         15.4590  -40.6730  -32.4680 O.2   118  THR118     -0.2863
     18  CB        16.7780  -43.6680  -32.1530 C.3   118  THR118      0.1794
     19  OG1       17.0910  -44.8890  -32.8380 O.3   118  THR118     -0.2208
     20  CG2       15.3760  -43.7600  -31.5810 C.3   118  THR118      0.0378
     21  N         15.5930  -38.5290  -34.9440 N.3   121  GLY121     -0.1210
     22  CA        14.2700  -38.7650  -35.4980 C.3   121  GLY121      0.1956
     23  C         13.1580  -38.4380  -34.5240 C.2   121  GLY121      0.2611
     24  O         12.0810  -37.9880  -34.9220 O.2   121  GLY121     -0.2717
     25  N         13.4260  -38.6530  -33.2390 N.am  122  GLU122     -0.1979
     26  CA        12.4230  -38.4390  -32.2030 C.3   122  GLU122      0.1602
     27  C         12.3070  -36.9690  -31.8080 C.2   122  GLU122      0.2287
     28  O         11.2180  -36.5020  -31.4900 O.2   122  GLU122     -0.2864
     29  CB        12.7400  -39.2960  -30.9770 C.3   122  GLU122      0.0415
     30  CG        12.4970  -40.7890  -31.1960 C.3   122  GLU122      0.1163
     31  CD        11.0290  -41.1190  -31.4210 C.2   122  GLU122      0.3649
     32  OE1       10.1980  -40.7420  -30.5690 O.co2 122  GLU122     -0.2457
     33  OE2       10.7040  -41.7520  -32.4480 O.co2 122  GLU122     -0.2457
     34  N         19.7570  -53.4200  -38.7930 N.3   181  GLU181     -0.1245
     35  CA        18.4430  -53.6650  -39.3780 C.3   181  GLU181      0.1567
     36  C         18.5620  -53.8670  -40.8800 C.2   181  GLU181      0.2260
     37  O         19.5220  -53.4040  -41.5010 O.2   181  GLU181     -0.2867
     38  CB        17.4870  -52.5020  -39.0760 C.3   181  GLU181      0.0388
     39  CG        17.9340  -51.1670  -39.6630 C.3   181  GLU181      0.1160
     40  CD        16.9440  -50.0380  -39.4130 C.2   181  GLU181      0.3649
     41  OE1       15.8070  -50.3200  -38.9720 O.co2 181  GLU181     -0.2457
     42  OE2       17.3060  -48.8640  -39.6580 O.co2 181  GLU181     -0.2457
     43  N         21.8800  -49.3130  -37.7560 N.3   187  CYS187     -0.1221
     44  CA        21.3480  -49.8720  -36.5190 C.3   187  CYS187      0.1808
     45  C         20.1070  -49.1180  -36.0600 C.2   187  CYS187      0.2602
     46  O         19.9780  -47.9180  -36.2880 O.2   187  CYS187     -0.2717
     47  CB        22.4160  -49.8510  -35.4200 C.3   187  CYS187      0.0970
     48  SG        23.7340  -51.0880  -35.6430 S.3   187  CYS187     -0.0800
     49  N         19.1900  -49.8300  -35.4130 N.am  188  GLY188     -0.1942
     50  CA        17.9800  -49.2120  -34.9140 C.3   188  GLY188      0.2014
     51  C         17.3320  -50.0510  -33.8360 C.2   188  GLY188      0.2638
     52  O         17.8590  -51.0930  -33.4500 O.2   188  GLY188     -0.2714
     53  N         16.1850  -49.5910  -33.3500 N.am  189  ILE189     -0.1977
     54  CA        15.4320  -50.3020  -32.3270 C.3   189  ILE189      0.1596
     55  C         14.9950  -51.6690  -32.8400 C.2   189  ILE189      0.2287
     56  O         14.5370  -51.7970  -33.9740 O.2   189  ILE189     -0.2864
     57  CB        14.1890  -49.4910  -31.8780 C.3   189  ILE189      0.0276
     58  CG1       14.6180  -48.2190  -31.1420 C.3   189  ILE189      0.0022
     59  CG2       13.2790  -50.3310  -30.9980 C.3   189  ILE189      0.0022
     60  CD1       13.4620  -47.3270  -30.7300 C.3   189  ILE189      0.0001
     61  N         12.3850  -53.9990  -33.0810 N.3   191  TYR191     -0.1241
     62  CA        10.9370  -54.0200  -32.9220 C.3   191  TYR191      0.1605
     63  C         10.3520  -55.2330  -33.6240 C.2   191  TYR191      0.2264
     64  O          9.1540  -55.2790  -33.8970 O.2   191  TYR191     -0.2867
     65  CB        10.3100  -52.7320  -33.4760 C.3   191  TYR191      0.0534
     66  CG        10.5450  -52.5310  -34.9590 C.ar  191  TYR191     -0.0201
     67  CD1       11.6820  -51.8830  -35.4200 C.ar  191  TYR191     -0.0009
     68  CD2        9.6310  -52.9980  -35.8980 C.ar  191  TYR191     -0.0009
     69  CE1       11.9050  -51.7060  -36.7750 C.ar  191  TYR191      0.0417
     70  CE2        9.8460  -52.8270  -37.2550 C.ar  191  TYR191      0.0417
     71  CZ        10.9830  -52.1810  -37.6880 C.ar  191  TYR191      0.1957
     72  OH        11.1940  -52.0050  -39.0370 O.3   191  TYR191     -0.2866
     73  N          7.9030  -51.9850  -27.6400 N.3   204  VAL204     -0.1245
     74  CA         7.2550  -51.7100  -28.9170 C.3   204  VAL204      0.1561
     75  C          5.8510  -51.1420  -28.6930 C.2   204  VAL204      0.2260
     76  O          5.4190  -50.2330  -29.4020 O.2   204  VAL204     -0.2867
     77  CB         7.1730  -52.9800  -29.7920 C.3   204  VAL204      0.0252
     78  CG1        6.4490  -52.6880  -31.0940 C.3   204  VAL204      0.0019
     79  CG2        8.5630  -53.5060  -30.0770 C.3   204  VAL204      0.0019
     80  N          6.3360  -47.6450  -27.4460 N.3   207  MET207     -0.1230
     81  CA         6.6520  -46.8240  -28.6130 C.3   207  MET207      0.1702
     82  C          5.4080  -46.4430  -29.3900 C.2   207  MET207      0.2592
     83  O          5.1730  -45.2680  -29.6800 O.2   207  MET207     -0.2718
     84  CB         7.6080  -47.5620  -29.5470 C.3   207  MET207      0.0401
     85  CG         9.0350  -47.5720  -29.0800 C.3   207  MET207      0.0596
     86  SD         9.7230  -45.9230  -29.1690 S.3   207  MET207     -0.1393
     87  CE         9.7360  -45.6700  -30.9460 C.3   207  MET207      0.0692
     88  N          4.6270  -47.4610  -29.7340 N.am  208  PHE208     -0.1976
     89  CA         3.4310  -47.3000  -30.5450 C.3   208  PHE208      0.1639
     90  C          2.4510  -46.3180  -29.9150 C.2   208  PHE208      0.2290
     91  O          1.9200  -45.4430  -30.5910 O.2   208  PHE208     -0.2864
     92  CB         2.7520  -48.6570  -30.7550 C.3   208  PHE208      0.0560
     93  CG         1.6080  -48.6190  -31.7240 C.ar  208  PHE208     -0.0200
     94  CD1        1.8370  -48.6990  -33.0890 C.ar  208  PHE208     -0.0042
     95  CD2        0.3030  -48.5090  -31.2720 C.ar  208  PHE208     -0.0042
     96  CE1        0.7840  -48.6640  -33.9870 C.ar  208  PHE208     -0.0003
     97  CE2       -0.7550  -48.4730  -32.1660 C.ar  208  PHE208     -0.0003
     98  CZ        -0.5120  -48.5520  -33.5250 C.ar  208  PHE208     -0.0000
     99  N          4.7930  -42.7280  -28.5350 N.3   211  HIS211     -0.1226
    100  CA         5.5740  -42.0090  -29.5320 C.3   211  HIS211      0.1752
    101  C          4.9950  -42.1240  -30.9340 C.2   211  HIS211      0.2596
    102  O          5.6600  -41.7850  -31.9140 O.2   211  HIS211     -0.2718
    103  CB         7.0240  -42.4980  -29.5160 C.3   211  HIS211      0.0759
    104  CG         7.7120  -42.2780  -28.2050 C.ar  211  HIS211      0.0818
    105  ND1        8.3700  -41.1070  -27.8990 N.ar  211  HIS211     -0.2268
    106  CD2        7.8240  -43.0680  -27.1110 C.ar  211  HIS211      0.1154
    107  CE1        8.8700  -41.1900  -26.6780 C.ar  211  HIS211      0.1986
    108  NE2        8.5510  -42.3700  -26.1780 N.ar  211  HIS211     -0.2212
    109  N          3.7530  -42.5860  -31.0370 N.am  212  PHE212     -0.1976
    110  CA         3.0820  -42.5690  -32.3300 C.3   212  PHE212      0.1639
    111  C          1.6190  -42.1630  -32.2170 C.2   212  PHE212      0.2290
    112  O          1.1940  -41.2100  -32.8650 O.2   212  PHE212     -0.2864
    113  CB         3.1830  -43.9260  -33.0290 C.3   212  PHE212      0.0560
    114  CG         2.3430  -44.0190  -34.2720 C.ar  212  PHE212     -0.0200
    115  CD1        2.6870  -43.3100  -35.4110 C.ar  212  PHE212     -0.0042
    116  CD2        1.1990  -44.7990  -34.2950 C.ar  212  PHE212     -0.0042
    117  CE1        1.9120  -43.3840  -36.5550 C.ar  212  PHE212     -0.0003
    118  CE2        0.4190  -44.8780  -35.4370 C.ar  212  PHE212     -0.0003
    119  CZ         0.7760  -44.1690  -36.5680 C.ar  212  PHE212     -0.0000
    120  N          5.7110  -41.8860  -40.5730 N.3   265  TRP265     -0.1241
    121  CA         5.6490  -42.7810  -39.4190 C.3   265  TRP265      0.1605
    122  C          4.6960  -43.9660  -39.5570 C.2   265  TRP265      0.2264
    123  O          4.8480  -44.9660  -38.8560 O.2   265  TRP265     -0.2867
    124  CB         5.2800  -41.9820  -38.1670 C.3   265  TRP265      0.0550
    125  CG         6.3990  -41.1150  -37.6910 C.ar  265  TRP265      0.0003
    126  CD1        6.4380  -39.7500  -37.6900 C.ar  265  TRP265      0.0946
    127  CD2        7.6570  -41.5540  -37.1650 C.ar  265  TRP265      0.0152
    128  NE1        7.6400  -39.3130  -37.1850 N.ar  265  TRP265     -0.2442
    129  CE2        8.4060  -40.4010  -36.8570 C.ar  265  TRP265      0.0810
    130  CE3        8.2200  -42.8120  -36.9200 C.ar  265  TRP265      0.0012
    131  CZ2        9.6890  -40.4670  -36.3170 C.ar  265  TRP265      0.0191
    132  CZ3        9.4930  -42.8750  -36.3850 C.ar  265  TRP265      0.0001
    133  CH2       10.2130  -41.7100  -36.0880 C.ar  265  TRP265      0.0015
    134  N          6.4890  -47.4300  -40.4060 N.3   268  TYR268     -0.1227
    135  CA         7.1000  -48.0270  -39.2220 C.3   268  TYR268      0.1736
    136  C          6.0330  -48.5600  -38.2740 C.2   268  TYR268      0.2595
    137  O          6.1400  -49.6790  -37.7730 O.2   268  TYR268     -0.2718
    138  CB         7.9900  -47.0130  -38.4960 C.3   268  TYR268      0.0548
    139  CG         9.4690  -47.2250  -38.7310 C.ar  268  TYR268     -0.0200
    140  CD1       10.0200  -48.5010  -38.7090 C.ar  268  TYR268     -0.0009
    141  CD2       10.3140  -46.1500  -38.9860 C.ar  268  TYR268     -0.0009
    142  CE1       11.3710  -48.7020  -38.9250 C.ar  268  TYR268      0.0417
    143  CE2       11.6650  -46.3410  -39.2060 C.ar  268  TYR268      0.0417
    144  CZ        12.1890  -47.6190  -39.1730 C.ar  268  TYR268      0.1957
    145  OH        13.5350  -47.8110  -39.3920 O.3   268  TYR268     -0.2866
    146  N          5.0020  -47.7560  -38.0370 N.am  269  ALA269     -0.1980
    147  CA         3.9110  -48.1650  -37.1640 C.3   269  ALA269      0.1597
    148  C          3.1840  -49.3690  -37.7540 C.2   269  ALA269      0.2287
    149  O          2.8110  -50.2930  -37.0320 O.2   269  ALA269     -0.2864
    150  CB         2.9450  -47.0130  -36.9370 C.3   269  ALA269      0.0319
    151  N          5.6010  -52.5750  -37.6510 N.3   272  ALA272     -0.1245
    152  CA         5.7180  -53.0050  -36.2610 C.3   272  ALA272      0.1562
    153  C          4.4380  -53.6780  -35.7910 C.2   272  ALA272      0.2260
    154  O          4.4770  -54.7260  -35.1470 O.2   272  ALA272     -0.2867
    155  CB         6.0520  -51.8270  -35.3620 C.3   272  ALA272      0.0290
    156  N         12.1460  -47.5650  -43.1050 N.3   292  ALA292     -0.1245
    157  CA        13.3100  -46.7240  -42.8410 C.3   292  ALA292      0.1562
    158  C         13.4740  -45.6790  -43.9390 C.2   292  ALA292      0.2260
    159  O         13.8240  -44.5300  -43.6680 O.2   292  ALA292     -0.2867
    160  CB        14.5660  -47.5730  -42.7210 C.3   292  ALA292      0.0290
    161  N         10.9270  -42.8650  -43.2690 N.3   295  ALA295     -0.1231
    162  CA        11.2510  -42.1180  -42.0560 C.3   295  ALA295      0.1694
    163  C         12.5040  -41.2430  -42.2030 C.2   295  ALA295      0.2591
    164  O         12.5210  -40.1010  -41.7430 O.2   295  ALA295     -0.2718
    165  CB        11.4160  -43.0760  -40.8850 C.3   295  ALA295      0.0304
    166  N         13.5440  -41.7760  -42.8420 N.am  296  LYS296     -0.1980
    167  CA        14.8190  -41.0700  -42.9800 C.3   296  LYS296      0.1596
    168  C         14.7380  -39.9020  -43.9590 C.2   296  LYS296      0.2287
    169  O         15.3600  -38.8580  -43.7530 O.2   296  LYS296     -0.2864
    170  CB        15.9190  -42.0360  -43.4290 C.3   296  LYS296      0.0298
    171  CG        16.3830  -43.0190  -42.3660 C.3   296  LYS296      0.0038
    172  CD        17.4540  -43.9490  -42.9260 C.3   296  LYS296      0.0206
    173  CE        17.8070  -45.0670  -41.9540 C.3   296  LYS296      0.1093
    174  NZ        18.8150  -46.0040  -42.5350 N.3   296  LYS296     -0.1314
@<TRIPOS>BOND
     1   168   169    2
     2   168   167    1
     3   158   159    2
     4   158   157    1
     5   170   167    1
     6   170   171    1
     7   161   162    1
     8   156   157    1
     9   167   166    1
    10   172   171    1
    11   172   173    1
    12   166   163   am
    13   157   160    1
    14   174   173    1
    15   163   162    1
    16   163   164    2
    17   162   165    1
    18    37    36    2
    19    36    35    1
    20   120   121    1
    21   134   135    1
    22     4     3    2
    23     8     7    1
    24     3     2    1
    25    39    40    1
    26    39    38    1
    27    42    40   ar
    28   122   121    1
    29   122   123    2
    30   121   124    1
    31    40    41   ar
    32   145   144    1
    33    35    38    1
    34    35    34    1
    35   135   138    1
    36   135   136    1
    37     5     2    1
    38     5     6    1
    39   143   144   ar
    40   143   141   ar
    41   144   142   ar
    42    72    71    1
    43   141   139   ar
    44   142   140   ar
    45     7     6    1
    46   139   140   ar
    47   139   138    1
    48     2     1    1
    49   136   146   am
    50   136   137    2
    51   124   125    1
    52   146   147    1
    53    43    44    1
    54   148   147    1
    55   148   149    2
    56   125   126   ar
    57   125   127   ar
    58   126   128   ar
    59    71    70   ar
    60    71    69   ar
    61   151   152    1
    62    70    68   ar
    63   128   129   ar
    64   127   130   ar
    65   127   129   ar
    66   147   150    1
    67   130   132   ar
    68   129   131   ar
    69    69    67   ar
    70   119   117   ar
    71   119   118   ar
    72   117   115   ar
    73    44    45    1
    74    44    47    1
    75   132   133   ar
    76   131   133   ar
    77    46    45    2
    78   152   153    1
    79   152   155    1
    80    13    10    1
    81    45    49   am
    82    68    66   ar
    83   153   154    2
    84    48    47    1
    85    22    21    1
    86    22    23    1
    87   118   116   ar
    88    67    66   ar
    89    49    50    1
    90   115   114   ar
    91    12    11    2
    92    10    11    1
    93    10     9    1
    94    66    65    1
    95    24    23    2
    96    50    51    1
    97    11    14   am
    98    23    25   am
    99   116   114   ar
   100   114   113    1
   101    96    98   ar
   102    96    94   ar
   103    56    55    2
   104    64    63    2
   105    51    52    2
   106    51    53   am
   107    14    15    1
   108    63    62    1
   109    98    97   ar
   110    65    62    1
   111    53    54    1
   112    25    26    1
   113    15    16    1
   114    15    18    1
   115    94    93   ar
   116    61    62    1
   117   113   110    1
   118   112   111    2
   119    55    54    1
   120    19    18    1
   121    17    16    2
   122    33    31   ar
   123   110   111    1
   124   110   109    1
   125    54    57    1
   126    26    27    1
   127    26    29    1
   128    97    95   ar
   129    18    20    1
   130   102   101    2
   131    57    58    1
   132    57    59    1
   133    27    28    2
   134    93    95   ar
   135    93    92    1
   136    31    30    1
   137    31    32   ar
   138    30    29    1
   139    58    60    1
   140    78    77    1
   141   109   101   am
   142    87    86    1
   143   101   100    1
   144    92    89    1
   145    91    90    2
   146    89    90    1
   147    89    88    1
   148    79    77    1
   149    77    74    1
   150    88    82   am
   151    83    82    2
   152    84    85    1
   153    84    81    1
   154   100   103    1
   155   100    99    1
   156   103   104    1
   157    76    75    2
   158    82    81    1
   159    86    85    1
   160    74    75    1
   161    74    73    1
   162    81    80    1
   163   104   105   ar
   164   104   106   ar
   165   105   107   ar
   166   106   108   ar
   167   107   108   ar
