@<TRIPOS>MOLECULE
tmp/4x1hA04.pdb
 92 86 0 0 0
SMALL
GASTEIGER

@<TRIPOS>ATOM
      1  N         19.4420  -17.9780  -39.8870 N.3    62  THR62      -0.1218
      2  CA        18.9200  -17.5340  -38.6040 C.3    62  THR62       0.1862
      3  C         19.9770  -16.6990  -37.8860 C.2    62  THR62       0.2287
      4  O         19.6550  -15.7750  -37.1400 O.2    62  THR62      -0.2866
      5  CB        18.4820  -18.7320  -37.7410 C.3    62  THR62       0.1770
      6  OG1       17.4670  -19.4610  -38.4400 O.3    62  THR62      -0.2211
      7  CG2       17.9230  -18.2710  -36.4080 C.3    62  THR62       0.0375
      8  N         18.0150  -11.3020  -38.1660 N.3    66  LYS66      -0.1245
      9  CA        17.5780  -11.2050  -36.7740 C.3    66  LYS66       0.1561
     10  C         16.0690  -11.3520  -36.6020 C.2    66  LYS66       0.2260
     11  O         15.5980  -11.7000  -35.5210 O.2    66  LYS66      -0.2867
     12  CB        18.0400   -9.8800  -36.1600 C.3    66  LYS66       0.0271
     13  CG        17.3440   -8.6420  -36.6860 C.3    66  LYS66       0.0035
     14  CD        17.8840   -7.4110  -35.9750 C.3    66  LYS66       0.0206
     15  CE        17.3670   -6.1240  -36.5850 C.3    66  LYS66       0.1093
     16  NZ        18.0130   -4.9340  -35.9640 N.3    66  LYS66      -0.1314
     17  N         14.9100  -14.7860  -35.4200 N.3    69  ARG69      -0.1245
     18  CA        15.1420  -15.1870  -34.0350 C.3    69  ARG69       0.1563
     19  C         13.9850  -14.8290  -33.1170 C.2    69  ARG69       0.2260
     20  O         14.1460  -14.0590  -32.1730 O.2    69  ARG69      -0.2867
     21  CB        16.4270  -14.5570  -33.5120 C.3    69  ARG69       0.0307
     22  CG        17.6680  -15.0950  -34.1870 C.3    69  ARG69       0.0489
     23  CD        18.9060  -14.3700  -33.7000 C.3    69  ARG69       0.2205
     24  NE        19.7430  -13.9850  -34.8270 N.pl3  69  ARG69      -0.0865
     25  CZ        20.1510  -12.7460  -35.0670 C.cat  69  ARG69       0.5346
     26  NH1       19.8170  -11.7640  -34.2430 N.pl3  69  ARG69       0.1354
     27  NH2       20.9070  -12.4950  -36.1250 N.pl3  69  ARG69       0.1354
     28  N         11.9010  -21.0100  -32.5840 N.3    74  TYR74      -0.1241
     29  CA        12.8500  -21.8530  -31.8570 C.3    74  TYR74       0.1605
     30  C         12.6720  -23.3310  -32.1920 C.2    74  TYR74       0.2264
     31  O         13.6520  -24.0510  -32.3950 O.2    74  TYR74      -0.2867
     32  CB        12.7120  -21.6650  -30.3400 C.3    74  TYR74       0.0534
     33  CG        13.2390  -20.3570  -29.7870 C.ar   74  TYR74      -0.0201
     34  CD1       13.5840  -19.3040  -30.6250 C.ar   74  TYR74      -0.0009
     35  CD2       13.3940  -20.1810  -28.4160 C.ar   74  TYR74      -0.0009
     36  CE1       14.0560  -18.1050  -30.1110 C.ar   74  TYR74       0.0417
     37  CE2       13.8690  -18.9910  -27.8950 C.ar   74  TYR74       0.0417
     38  CZ        14.1990  -17.9580  -28.7460 C.ar   74  TYR74       0.1957
     39  OH        14.6730  -16.7740  -28.2270 O.3    74  TYR74      -0.2866
     40  N         14.1020  -24.3700  -35.4350 N.3    77  LEU77      -0.1231
     41  CA        15.5460  -24.5160  -35.3700 C.3    77  LEU77       0.1693
     42  C         15.8590  -25.8680  -34.7600 C.2    77  LEU77       0.2592
     43  O         16.7830  -26.5630  -35.1890 O.2    77  LEU77      -0.2718
     44  CB        16.1790  -23.3890  -34.5510 C.3    77  LEU77       0.0284
     45  CG        16.0360  -21.9900  -35.1480 C.3    77  LEU77       0.0019
     46  CD1       16.6180  -20.9520  -34.2050 C.3    77  LEU77       0.0001
     47  CD2       16.7150  -21.9300  -36.5080 C.3    77  LEU77       0.0001
     48  N         15.0700  -26.2300  -33.7560 N.am   78  ASN78      -0.1974
     49  CA        15.1940  -27.5230  -33.1070 C.3    78  ASN78       0.1688
     50  C         15.0320  -28.6460  -34.1220 C.2    78  ASN78       0.2292
     51  O         15.7570  -29.6390  -34.0880 O.2    78  ASN78      -0.2864
     52  CB        14.1610  -27.6600  -31.9920 C.3    78  ASN78       0.1181
     53  CG        14.4800  -28.7880  -31.0460 C.2    78  ASN78       0.2629
     54  OD1       15.6130  -28.9210  -30.5870 O.2    78  ASN78      -0.2716
     55  ND2       13.4860  -29.6210  -30.7570 N.am   78  ASN78      -0.0877
     56  N         18.2560  -28.8830  -36.3100 N.3    81  VAL81      -0.1245
     57  CA        19.3190  -29.5560  -35.5760 C.3    81  VAL81       0.1561
     58  C         19.0630  -31.0650  -35.5230 C.2    81  VAL81       0.2260
     59  O         19.9820  -31.8650  -35.7120 O.2    81  VAL81      -0.2867
     60  CB        19.4550  -29.0030  -34.1400 C.3    81  VAL81       0.0252
     61  CG1       20.4530  -29.8340  -33.3370 C.3    81  VAL81       0.0019
     62  CG2       19.8780  -27.5460  -34.1710 C.3    81  VAL81       0.0019
     63  N          9.4050  -16.1920  -24.8890 N.3   150  GLU150     -0.1245
     64  CA        10.6620  -16.9220  -25.0000 C.3   150  GLU150      0.1567
     65  C         10.7150  -18.1310  -24.0690 C.2   150  GLU150      0.2260
     66  O         11.1660  -19.2050  -24.4660 O.2   150  GLU150     -0.2867
     67  CB        11.8430  -15.9910  -24.7080 C.3   150  GLU150      0.0388
     68  CG        13.2030  -16.6090  -25.0030 C.3   150  GLU150      0.1160
     69  CD        14.3550  -15.7190  -24.5870 C.2   150  GLU150      0.3649
     70  OE1       15.4350  -15.8160  -25.2060 O.co2 150  GLU150     -0.2457
     71  OE2       14.1840  -14.9260  -23.6380 O.co2 150  GLU150     -0.2457
     72  N         11.0740  -26.7630  -26.5420 N.3   157  VAL157     -0.1245
     73  CA        12.2640  -27.4160  -27.0760 C.3   157  VAL157      0.1561
     74  C         12.7980  -28.4600  -26.0970 C.2   157  VAL157      0.2260
     75  O         13.1190  -29.5870  -26.4870 O.2   157  VAL157     -0.2867
     76  CB        13.3670  -26.3950  -27.3930 C.3   157  VAL157      0.0252
     77  CG1       14.7020  -27.0990  -27.6460 C.3   157  VAL157      0.0019
     78  CG2       12.9650  -25.5530  -28.5880 C.3   157  VAL157      0.0019
     79  N         13.4480  -32.8170  -26.2770 N.3   161  TRP161     -0.1241
     80  CA        14.6830  -33.4760  -25.8660 C.3   161  TRP161      0.1605
     81  C         14.3940  -34.6000  -24.8790 C.2   161  TRP161      0.2264
     82  O         14.9040  -35.7110  -25.0180 O.2   161  TRP161     -0.2867
     83  CB        15.6520  -32.4680  -25.2360 C.3   161  TRP161      0.0550
     84  CG        16.1660  -31.4230  -26.1850 C.ar  161  TRP161      0.0003
     85  CD1       15.8740  -31.3030  -27.5130 C.ar  161  TRP161      0.0946
     86  CD2       17.0670  -30.3510  -25.8740 C.ar  161  TRP161      0.0152
     87  NE1       16.5360  -30.2240  -28.0470 N.ar  161  TRP161     -0.2442
     88  CE2       17.2740  -29.6230  -27.0610 C.ar  161  TRP161      0.0810
     89  CE3       17.7170  -29.9390  -24.7070 C.ar  161  TRP161      0.0012
     90  CZ2       18.1050  -28.5040  -27.1160 C.ar  161  TRP161      0.0191
     91  CZ3       18.5420  -28.8290  -24.7640 C.ar  161  TRP161      0.0001
     92  CH2       18.7280  -28.1240  -25.9590 C.ar  161  TRP161      0.0015
@<TRIPOS>BOND
     1     1     2    1
     2     2     3    1
     3     2     5    1
     4     6     5    1
     5     8     9    1
     6     3     4    2
     7     5     7    1
     8     9    10    1
     9     9    12    1
    10    13    12    1
    11    13    14    1
    12    10    11    2
    13    15    14    1
    14    15    16    1
    15    47    45    1
    16    56    57    1
    17    27    25    1
    18    59    58    2
    19    57    58    1
    20    57    60    1
    21    40    41    1
    22    17    18    1
    23    41    42    1
    24    41    44    1
    25    43    42    2
    26    45    44    1
    27    45    46    1
    28    25    24    2
    29    25    26    1
    30    24    23    1
    31    42    48   am
    32    22    23    1
    33    22    21    1
    34    62    60    1
    35    60    61    1
    36    50    51    2
    37    50    49    1
    38    18    21    1
    39    18    19    1
    40    48    49    1
    41    19    20    2
    42    49    52    1
    43    28    29    1
    44    31    30    2
    45    30    29    1
    46    52    53    1
    47    29    32    1
    48    53    55   am
    49    53    54    2
    50    34    36   ar
    51    34    33   ar
    52    32    33    1
    53    36    38   ar
    54    33    35   ar
    55    38    39    1
    56    38    37   ar
    57    78    76    1
    58    35    37   ar
    59    87    85   ar
    60    87    88   ar
    61    77    76    1
    62    85    84   ar
    63    76    73    1
    64    90    88   ar
    65    90    92   ar
    66    73    72    1
    67    73    74    1
    68    88    86   ar
    69    75    74    2
    70    79    80    1
    71    84    86   ar
    72    84    83    1
    73    92    91   ar
    74    86    89   ar
    75    80    83    1
    76    80    81    1
    77    70    69   ar
    78    82    81    2
    79    68    67    1
    80    68    69    1
    81    64    63    1
    82    64    67    1
    83    64    65    1
    84    91    89   ar
    85    69    71   ar
    86    66    65    2
