@<TRIPOS>MOLECULE
tmp/4x1iD02.pdb
 147 141 0 0 0
SMALL
GASTEIGER

@<TRIPOS>ATOM
      1  N        -38.5480  156.6700  116.3510 N.3    10  GLN10      -0.1231
      2  CA       -37.6650  157.5900  117.0230 C.3    10  GLN10       0.1698
      3  C        -36.3940  156.8770  117.5000 C.2    10  GLN10       0.2592
      4  O        -35.2780  157.3050  117.1900 O.2    10  GLN10      -0.2718
      5  CB       -38.4290  158.2940  118.1570 C.3    10  GLN10       0.0381
      6  CG       -37.6050  158.5400  119.4300 C.3    10  GLN10       0.0905
      7  CD       -37.7270  159.9450  119.9050 C.2    10  GLN10       0.2608
      8  OE1      -36.8450  160.7910  119.6530 O.2    10  GLN10      -0.2717
      9  NE2      -38.8430  160.2150  120.5740 N.am   10  GLN10      -0.0878
     10  N        -36.5850  155.7630  118.2010 N.am   11  CYS11      -0.1970
     11  CA       -35.5030  154.9930  118.7760 C.3    11  CYS11       0.1712
     12  C        -34.7490  154.1870  117.7210 C.2    11  CYS11       0.2296
     13  O        -33.5190  154.1260  117.7530 O.2    11  CYS11      -0.2864
     14  CB       -36.0310  154.1190  119.9040 C.3    11  CYS11       0.0983
     15  SG       -34.7710  153.1200  120.7060 S.3    11  CYS11      -0.0798
     16  N        -32.7470  156.5860  115.9080 N.3    14  GLN14      -0.1245
     17  CA       -31.7540  157.1450  116.7920 C.3    14  GLN14       0.1566
     18  C        -30.6110  156.1810  117.0310 C.2    14  GLN14       0.2260
     19  O        -29.4490  156.5630  116.8330 O.2    14  GLN14      -0.2867
     20  CB       -32.3610  157.7150  118.0810 C.3    14  GLN14       0.0367
     21  CG       -32.7030  159.1960  117.9650 C.3    14  GLN14       0.0905
     22  CD       -31.4890  160.0990  117.7820 C.2    14  GLN14       0.2608
     23  OE1      -30.3180  159.6570  117.7630 O.2    14  GLN14      -0.2717
     24  NE2      -31.7500  161.4000  117.6210 N.am   14  GLN14      -0.0878
     25  N        -26.6190  156.0200  115.0910 N.3    18  LYS18      -0.1245
     26  CA       -25.3570  155.8900  115.8070 C.3    18  LYS18       0.1561
     27  C        -24.5940  154.6470  115.3910 C.2    18  LYS18       0.2260
     28  O        -23.3770  154.7530  115.2000 O.2    18  LYS18      -0.2867
     29  CB       -25.4480  156.0800  117.3150 C.3    18  LYS18       0.0271
     30  CG       -24.5050  157.2120  117.7840 C.3    18  LYS18       0.0035
     31  CD       -23.4020  156.7520  118.7780 C.3    18  LYS18       0.0206
     32  CE       -22.5160  157.8880  119.2960 C.3    18  LYS18       0.1093
     33  NZ       -21.5560  157.4450  120.3600 N.3    18  LYS18      -0.1314
     34  N        -37.5430  162.8460  113.8970 N.3    71  THR71      -0.1218
     35  CA       -36.2180  162.2060  114.0350 C.3    71  THR71       0.1862
     36  C        -35.5310  162.0420  112.6850 C.2    71  THR71       0.2287
     37  O        -34.3040  162.1600  112.5840 O.2    71  THR71      -0.2866
     38  CB       -36.3360  160.8660  114.7540 C.3    71  THR71       0.1770
     39  OG1      -37.1540  160.0090  113.9600 O.3    71  THR71      -0.2211
     40  CG2      -36.9250  161.0100  116.1400 C.3    71  THR71       0.0375
     41  N        -39.6220  152.1980  133.3080 N.3   172  PRO172     -0.2102
     42  CA       -40.1840  153.4200  133.9120 C.3   172  PRO172      0.1504
     43  C        -39.0630  154.3870  134.2680 C.2   172  PRO172      0.2576
     44  O        -39.2360  155.5840  134.0950 O.2   172  PRO172     -0.2718
     45  CB       -40.9320  152.9030  135.1480 C.3   172  PRO172      0.0282
     46  CG       -41.0310  151.4080  134.9410 C.3   172  PRO172      0.0208
     47  CD       -39.7620  151.0560  134.2300 C.3   172  PRO172      0.0893
     48  N        -37.8860  153.8370  134.6640 N.am  173  LYS173     -0.1966
     49  CA       -36.6150  154.5060  134.9460 C.3   173  LYS173      0.1728
     50  C        -36.3200  155.5050  133.8390 C.2   173  LYS173      0.2616
     51  O        -35.7870  156.5810  134.1500 O.2   173  LYS173     -0.2715
     52  CB       -35.4610  153.4930  135.0630 C.3   173  LYS173      0.0311
     53  CG       -34.9620  153.2670  136.4990 C.3   173  LYS173      0.0038
     54  CD       -34.4600  151.8170  136.7760 C.3   173  LYS173      0.0206
     55  CE       -34.2090  151.5270  138.2510 C.3   173  LYS173      0.1093
     56  NZ       -33.6360  150.1610  138.4760 N.3   173  LYS173     -0.1314
     57  N        -36.7500  155.1910  132.5650 N.am  174  VAL174     -0.1977
     58  CA       -36.6020  156.0990  131.4110 C.3   174  VAL174      0.1596
     59  C        -37.8910  156.7980  130.8480 C.2   174  VAL174      0.2287
     60  O        -37.8370  157.9870  130.5080 O.2   174  VAL174     -0.2864
     61  CB       -35.6390  155.6320  130.2880 C.3   174  VAL174      0.0276
     62  CG1      -34.3250  155.1140  130.8710 C.3   174  VAL174      0.0022
     63  CG2      -36.2960  154.5940  129.3770 C.3   174  VAL174      0.0022
     64  N        -42.0070  157.7130  131.3430 N.3   176  ASP176     -0.1239
     65  CA       -43.2960  157.8560  132.0280 C.3   176  ASP176      0.1674
     66  C        -44.5290  157.7770  131.0580 C.2   176  ASP176      0.2266
     67  O        -45.5520  158.4350  131.3100 O.2   176  ASP176     -0.2867
     68  CB       -43.3220  159.1700  132.8680 C.3   176  ASP176      0.1410
     69  CG       -42.2850  159.3380  134.0000 C.2   176  ASP176      0.3668
     70  OD1      -41.7100  158.3000  134.4600 O.co2 176  ASP176     -0.2456
     71  OD2      -42.0890  160.5010  134.4640 O.co2 176  ASP176     -0.2456
     72  N        -30.0530  152.6870  131.7610 N.3   207  TYR207     -0.1241
     73  CA       -30.1530  153.7880  132.7240 C.3   207  TYR207      0.1605
     74  C        -29.2500  153.4740  133.9430 C.2   207  TYR207      0.2264
     75  O        -28.4050  154.2870  134.3520 O.2   207  TYR207     -0.2867
     76  CB       -31.6410  154.0390  133.1570 C.3   207  TYR207      0.0534
     77  CG       -31.7710  155.1180  134.2170 C.ar  207  TYR207     -0.0201
     78  CD1      -31.6950  154.8050  135.5740 C.ar  207  TYR207     -0.0009
     79  CD2      -31.8240  156.4640  133.8660 C.ar  207  TYR207     -0.0009
     80  CE1      -31.6540  155.8020  136.5510 C.ar  207  TYR207      0.0417
     81  CE2      -31.8060  157.4710  134.8380 C.ar  207  TYR207      0.0417
     82  CZ       -31.7250  157.1330  136.1810 C.ar  207  TYR207      0.1957
     83  OH       -31.7490  158.1120  137.1490 O.3   207  TYR207     -0.2866
     84  N        -28.0050  162.5560  135.8100 N.3   218  THR218     -0.1204
     85  CA       -29.1630  162.6420  134.9370 C.3   218  THR218      0.1979
     86  C        -28.7380  162.1460  133.5600 C.2   218  THR218      0.2460
     87  O        -28.3400  162.9350  132.6990 O.2   218  THR218     -0.2732
     88  CB       -29.7470  164.0440  135.0120 C.3   218  THR218      0.1783
     89  OG1      -28.6960  164.9840  134.7800 O.3   218  THR218     -0.2211
     90  CG2      -30.3870  164.3320  136.3700 C.3   218  THR218      0.0376
     91  N        -28.6790  160.8080  133.3700 N.am  219  PRO219     -0.2717
     92  CA       -28.2110  160.2860  132.0750 C.3   219  PRO219      0.1536
     93  C        -29.1810  160.6200  130.9500 C.2   219  PRO219      0.2599
     94  O        -30.3900  160.6030  131.1630 O.2   219  PRO219     -0.2715
     95  CB       -28.0680  158.7660  132.3200 C.3   219  PRO219      0.0310
     96  CG       -28.1090  158.5930  133.8340 C.3   219  PRO219      0.0237
     97  CD       -29.0230  159.6990  134.2900 C.3   219  PRO219      0.0939
     98  N        -28.6350  160.9430  129.7700 N.am  220  THR220     -0.1937
     99  CA       -29.3890  161.2760  128.5700 C.3   220  THR220      0.2028
    100  C        -29.5170  160.0670  127.6270 C.2   220  THR220      0.2642
    101  O        -28.8550  159.0430  127.8200 O.2   220  THR220     -0.2714
    102  CB       -28.8180  162.5240  127.8540 C.3   220  THR220      0.1808
    103  OG1      -27.9740  162.1260  126.7840 O.3   220  THR220     -0.2208
    104  CG2      -28.0650  163.4560  128.7570 C.3   220  THR220      0.0379
    105  N        -30.3600  160.1950  126.5850 N.am  221  TYR221     -0.1959
    106  CA       -30.5140  159.1660  125.5680 C.3   221  TYR221      0.1771
    107  C        -29.2030  158.9520  124.8630 C.2   221  TYR221      0.2620
    108  O        -28.8910  157.8070  124.5560 O.2   221  TYR221     -0.2715
    109  CB       -31.6120  159.5180  124.5830 C.3   221  TYR221      0.0574
    110  CG       -32.9630  159.0410  125.0490 C.ar  221  TYR221     -0.0198
    111  CD1      -34.0520  159.9070  125.0910 C.ar  221  TYR221     -0.0009
    112  CD2      -33.1560  157.7210  125.4590 C.ar  221  TYR221     -0.0009
    113  CE1      -35.3000  159.4770  125.5370 C.ar  221  TYR221      0.0417
    114  CE2      -34.3920  157.2850  125.9260 C.ar  221  TYR221      0.0417
    115  CZ       -35.4640  158.1650  125.9570 C.ar  221  TYR221      0.1957
    116  OH       -36.6780  157.7470  126.4370 O.3   221  TYR221     -0.2866
    117  N        -28.4180  160.0390  124.7150 N.am  222  GLY222     -0.1954
    118  CA       -27.0660  160.0420  124.1660 C.3   222  GLY222      0.1869
    119  C        -26.1670  159.1230  124.9680 C.2   222  GLY222      0.2309
    120  O        -25.3910  158.3450  124.4070 O.2   222  GLY222     -0.2863
    121  N        -27.2960  156.5540  126.9480 N.3   224  LEU224     -0.1231
    122  CA       -27.7340  155.1660  126.7870 C.3   224  LEU224      0.1693
    123  C        -27.3470  154.6590  125.3970 C.2   224  LEU224      0.2592
    124  O        -26.8900  153.5150  125.2680 O.2   224  LEU224     -0.2718
    125  CB       -29.2570  154.9690  127.0020 C.3   224  LEU224      0.0284
    126  CG       -30.0180  155.6840  128.1310 C.3   224  LEU224      0.0019
    127  CD1      -31.2900  154.9550  128.3910 C.3   224  LEU224      0.0001
    128  CD2      -29.2440  155.7700  129.4450 C.3   224  LEU224      0.0001
    129  N        -27.5120  155.5220  124.3710 N.am  225  ASN225     -0.1974
    130  CA       -27.2000  155.1660  123.0000 C.3   225  ASN225      0.1688
    131  C        -25.7900  154.7450  122.7570 C.2   225  ASN225      0.2292
    132  O        -25.5780  153.7650  122.0300 O.2   225  ASN225     -0.2864
    133  CB       -27.7130  156.1590  122.0040 C.3   225  ASN225      0.1181
    134  CG       -29.2160  156.1580  121.9680 C.2   225  ASN225      0.2629
    135  OD1      -29.8770  155.4260  122.7260 O.2   225  ASN225     -0.2716
    136  ND2      -29.7930  157.0000  121.1170 N.am  225  ASN225     -0.0877
    137  N        -19.7850  158.1130  127.2940 N.3   275  ARG275     -0.1245
    138  CA       -19.8970  158.7440  125.9680 C.3   275  ARG275      0.1563
    139  C        -18.7240  159.7320  125.8650 C.2   275  ARG275      0.2260
    140  O        -18.3330  160.3080  126.8770 O.2   275  ARG275     -0.2867
    141  CB       -21.2390  159.5150  125.9200 C.3   275  ARG275      0.0307
    142  CG       -21.9420  159.5400  124.5810 C.3   275  ARG275      0.0489
    143  CD       -22.6200  160.8790  124.2690 C.3   275  ARG275      0.2205
    144  NE       -23.3790  161.4350  125.3960 N.pl3 275  ARG275     -0.0865
    145  CZ       -23.9800  162.6230  125.3820 C.cat 275  ARG275      0.5346
    146  NH1      -23.9290  163.3890  124.2980 N.pl3 275  ARG275      0.1354
    147  NH2      -24.6330  163.0600  126.4580 N.pl3 275  ARG275      0.1354
@<TRIPOS>BOND
     1    37    36    2
     2    36    35    1
     3    34    35    1
     4    39    38    1
     5    35    38    1
     6    38    40    1
     7    25    26    1
     8    28    27    2
     9    27    26    1
    10    26    29    1
    11    16    17    1
    12     1     2    1
    13    17    18    1
    14    17    20    1
    15    19    18    2
    16     2     3    1
    17     2     5    1
    18     4     3    2
    19    29    30    1
    20     3    10   am
    21    24    22   am
    22    12    13    2
    23    12    11    1
    24    23    22    2
    25    22    21    1
    26    30    31    1
    27    21    20    1
    28     5     6    1
    29    10    11    1
    30    11    14    1
    31    31    32    1
    32    32    33    1
    33     6     7    1
    34     8     7    2
    35    14    15    1
    36     7     9   am
    37   136   134   am
    38   134   133    1
    39   134   135    2
    40   133   130    1
    41   132   131    2
    42   131   130    1
    43   130   129    1
    44   118   117    1
    45   118   119    1
    46   143   142    1
    47   143   144    1
    48   146   145    1
    49   129   123   am
    50   120   119    2
    51   108   107    2
    52   142   141    1
    53   109   110    1
    54   109   106    1
    55   117   107   am
    56   107   106    1
    57   110   111   ar
    58   110   112   ar
    59   111   113   ar
    60   124   123    2
    61   145   144    2
    62   145   147    1
    63   123   122    1
    64   112   114   ar
    65   113   115   ar
    66   106   105    1
    67   139   138    1
    68   139   140    2
    69   141   138    1
    70   114   115   ar
    71   115   116    1
    72   138   137    1
    73   105   100   am
    74   103   102    1
    75   122   121    1
    76   122   125    1
    77   125   126    1
    78   100   101    2
    79   100    99    1
    80   102    99    1
    81   102   104    1
    82   126   127    1
    83   126   128    1
    84    99    98    1
    85    63    61    1
    86    98    93   am
    87    61    62    1
    88    61    58    1
    89    60    59    2
    90    59    58    1
    91    93    94    2
    92    93    92    1
    93    66    67    2
    94    66    65    1
    95    64    65    1
    96    58    57    1
    97    72    73    1
    98    65    68    1
    99    92    95    1
   100    92    91    1
   101    95    96    1
   102    57    50   am
   103    87    86    2
   104    73    76    1
   105    73    74    1
   106    68    69    1
   107    76    77    1
   108    41    42    1
   109    41    47    1
   110    91    86   am
   111    91    97    1
   112    86    85    1
   113    96    97    1
   114    50    51    2
   115    50    49    1
   116    79    77   ar
   117    79    81   ar
   118    42    43    1
   119    42    45    1
   120    74    75    2
   121    69    70   ar
   122    69    71   ar
   123    44    43    2
   124    77    78   ar
   125    47    46    1
   126    43    48   am
   127    48    49    1
   128    89    88    1
   129    81    82   ar
   130    85    88    1
   131    85    84    1
   132    46    45    1
   133    49    52    1
   134    88    90    1
   135    52    53    1
   136    78    80   ar
   137    82    80   ar
   138    82    83    1
   139    53    54    1
   140    54    55    1
   141    55    56    1
