@<TRIPOS>MOLECULE
tmp/4x1iC00.pdb
 99 94 0 0 0
SMALL
GASTEIGER

@<TRIPOS>ATOM
      1  N          9.7050   97.4140   94.5590 N.3   239  ALA239     -0.1231
      2  CA         9.8620   95.9650   94.6970 C.3   239  ALA239      0.1694
      3  C          9.7370   95.6670   96.1920 C.2   239  ALA239      0.2592
      4  O          8.9700   94.7770   96.5930 O.2   239  ALA239     -0.2718
      5  CB        11.2280   95.5390   94.1780 C.3   239  ALA239      0.0304
      6  N         10.4310   96.5240   97.0080 N.am  240  LEU240     -0.1966
      7  CA        10.4850   96.5580   98.4730 C.3   240  LEU240      0.1728
      8  C          9.1300   96.1220   99.0070 C.2   240  LEU240      0.2616
      9  O          9.0480   95.0330   99.5830 O.2   240  LEU240     -0.2715
     10  CB        10.8400   97.9870   98.9790 C.3   240  LEU240      0.0311
     11  CG        12.3030   98.3060   99.3590 C.3   240  LEU240      0.0022
     12  CD1       12.5230   99.7960   99.4150 C.3   240  LEU240      0.0001
     13  CD2       12.6770   97.7310  100.7270 C.3   240  LEU240      0.0001
     14  N          8.0620   96.9310   98.7060 N.am  241  ASN241     -0.1972
     15  CA         6.6540   96.7070   99.0510 C.3   241  ASN241      0.1688
     16  C          5.7350   97.7770   98.4590 C.2   241  ASN241      0.2292
     17  O          5.7750   98.0160   97.2690 O.2   241  ASN241     -0.2864
     18  CB         6.4370   96.5660  100.5610 C.3   241  ASN241      0.1181
     19  CG         6.4160   95.1580  101.1100 C.2   241  ASN241      0.2629
     20  OD1        5.4010   94.4550  101.0500 O.2   241  ASN241     -0.2716
     21  ND2        7.5140   94.7430  101.7340 N.am  241  ASN241     -0.0877
     22  N         13.7560   94.5890  105.9010 N.3   317  PRO317     -0.2116
     23  CA        13.0110   93.5600  106.6570 C.3   317  PRO317      0.1372
     24  C         13.7170   92.9650  107.8690 C.2   317  PRO317      0.2244
     25  O         13.0750   92.7900  108.9030 O.2   317  PRO317     -0.2868
     26  CB        12.7090   92.5020  105.6000 C.3   317  PRO317      0.0268
     27  CG        12.6160   93.2620  104.3470 C.3   317  PRO317      0.0207
     28  CD        13.6270   94.3650  104.4460 C.3   317  PRO317      0.0892
     29  N         12.8020   94.8400  110.7120 N.3   320  VAL320     -0.1231
     30  CA        11.3410   95.0060  110.8510 C.3   320  VAL320      0.1692
     31  C         10.8840   93.7750  111.6750 C.2   320  VAL320      0.2592
     32  O         10.2230   93.9230  112.7190 O.2   320  VAL320     -0.2718
     33  CB        10.6070   95.0980  109.4820 C.3   320  VAL320      0.0266
     34  CG1        9.1250   94.7840  109.6140 C.3   320  VAL320      0.0020
     35  CG2       10.8120   96.4550  108.8410 C.3   320  VAL320      0.0020
     36  N         11.3270   92.5680  111.2160 N.am  321  ASN321     -0.1974
     37  CA        11.0630   91.2670  111.8190 C.3   321  ASN321      0.1688
     38  C         11.4800   91.2710  113.2540 C.2   321  ASN321      0.2292
     39  O         10.6530   91.0090  114.1320 O.2   321  ASN321     -0.2864
     40  CB        11.7970   90.1920  111.0600 C.3   321  ASN321      0.1181
     41  CG        11.2610   89.9980  109.6690 C.2   321  ASN321      0.2629
     42  OD1       10.2200   90.5700  109.3000 O.2   321  ASN321     -0.2716
     43  ND2       11.9540   89.1640  108.8730 N.am  321  ASN321     -0.0877
     44  N          9.0560   93.4640  115.1800 N.3   324  ILE324     -0.1245
     45  CA         7.7580   92.7730  115.2280 C.3   324  ILE324      0.1561
     46  C          7.7140   91.6300  116.2570 C.2   324  ILE324      0.2260
     47  O          6.7200   91.5050  116.9850 O.2   324  ILE324     -0.2867
     48  CB         7.2900   92.3980  113.7910 C.3   324  ILE324      0.0252
     49  CG1        6.2000   93.3720  113.3030 C.3   324  ILE324      0.0019
     50  CG2        6.8590   90.9230  113.6190 C.3   324  ILE324      0.0019
     51  CD1        6.7020   94.7260  112.7520 C.3   324  ILE324      0.0001
     52  N          5.4130   91.0810  119.6350 N.3   328  LYS328     -0.1245
     53  CA         4.5720   89.8810  119.7300 C.3   328  LYS328      0.1561
     54  C          4.7570   89.0410  121.0020 C.2   328  LYS328      0.2260
     55  O          3.8990   88.2040  121.2980 O.2   328  LYS328     -0.2867
     56  CB         4.6510   89.0160  118.4590 C.3   328  LYS328      0.0271
     57  CG         3.8330   89.5600  117.2880 C.3   328  LYS328      0.0035
     58  CD         3.4230   88.4450  116.3320 C.3   328  LYS328      0.0206
     59  CE         3.4260   88.8880  114.8900 C.3   328  LYS328      0.1093
     60  NZ         3.2930   87.7320  113.9620 N.3   328  LYS328     -0.1314
     61  N         -0.4650   87.6730  112.9910 N.3   342  GLY342     -0.1210
     62  CA         0.5400   88.3180  112.1570 C.3   342  GLY342      0.1956
     63  C          0.2190   89.7620  111.8200 C.2   342  GLY342      0.2612
     64  O         -0.9530   90.1720  111.7800 O.2   342  GLY342     -0.2717
     65  N          1.2680   90.5570  111.5950 N.am  343  PHE343     -0.1962
     66  CA         1.0980   91.9600  111.2270 C.3   343  PHE343      0.1771
     67  C          1.4810   92.0780  109.7560 C.2   343  PHE343      0.2619
     68  O          2.5950   91.6890  109.3890 O.2   343  PHE343     -0.2715
     69  CB         1.9800   92.8900  112.0830 C.3   343  PHE343      0.0574
     70  CG         1.9290   92.8060  113.5960 C.ar  343  PHE343     -0.0200
     71  CD1        2.6800   93.6760  114.3790 C.ar  343  PHE343     -0.0042
     72  CD2        1.1450   91.8540  114.2380 C.ar  343  PHE343     -0.0042
     73  CE1        2.6500   93.5930  115.7760 C.ar  343  PHE343     -0.0003
     74  CE2        1.1270   91.7610  115.6330 C.ar  343  PHE343     -0.0003
     75  CZ         1.8760   92.6330  116.3930 C.ar  343  PHE343     -0.0000
     76  N          0.5560   92.5710  108.9060 N.am  344  LYS344     -0.1963
     77  CA         0.8230   92.7170  107.4670 C.3   344  LYS344      0.1728
     78  C          1.7690   93.9080  107.2260 C.2   344  LYS344      0.2616
     79  O          1.4240   95.0240  107.5970 O.2   344  LYS344     -0.2715
     80  CB        -0.4960   92.8520  106.6810 C.3   344  LYS344      0.0311
     81  CG        -0.6260   91.8600  105.5380 C.3   344  LYS344      0.0038
     82  CD        -0.3320   92.4960  104.2020 C.3   344  LYS344      0.0206
     83  CE        -0.1180   91.4540  103.1370 C.3   344  LYS344      0.1093
     84  NZ        -1.3210   91.3160  102.2810 N.3   344  LYS344     -0.1314
     85  N          2.9730   93.6690  106.6600 N.am  345  VAL345     -0.1977
     86  CA         3.9650   94.7330  106.4890 C.3   345  VAL345      0.1596
     87  C          4.2380   95.1400  105.0600 C.2   345  VAL345      0.2287
     88  O          4.4920   94.2830  104.2310 O.2   345  VAL345     -0.2864
     89  CB         5.2630   94.4330  107.2930 C.3   345  VAL345      0.0276
     90  CG1        6.4050   95.3630  106.9020 C.3   345  VAL345      0.0022
     91  CG2        5.0060   94.5050  108.7970 C.3   345  VAL345      0.0022
     92  N          6.6870   98.1800  102.8550 N.3   347  ILE347     -0.1245
     93  CA         7.8500   99.0820  102.9180 C.3   347  ILE347      0.1561
     94  C          8.0590   99.9100  101.6490 C.2   347  ILE347      0.2260
     95  O          8.1830   99.3670  100.5540 O.2   347  ILE347     -0.2867
     96  CB         9.1470   98.3280  103.3260 C.3   347  ILE347      0.0252
     97  CG1        8.9610   97.5800  104.6740 C.3   347  ILE347      0.0019
     98  CG2       10.3640   99.2800  103.3580 C.3   347  ILE347      0.0019
     99  CD1        9.8730   96.3510  104.9340 C.3   347  ILE347      0.0001
@<TRIPOS>BOND
     1     5     2    1
     2     1     2    1
     3     2     3    1
     4     3     4    2
     5     3     6   am
     6     6     7    1
     7    17    16    2
     8    16    15    1
     9     7    10    1
    10     7     8    1
    11    14     8   am
    12    14    15    1
    13    10    11    1
    14     8     9    2
    15    15    18    1
    16    11    12    1
    17    11    13    1
    18    95    94    2
    19    18    19    1
    20    20    19    2
    21    19    21   am
    22    94    93    1
    23    84    83    1
    24    92    93    1
    25    93    96    1
    26    83    82    1
    27    96    98    1
    28    96    97    1
    29    82    81    1
    30    88    87    2
    31    27    28    1
    32    27    26    1
    33    28    22    1
    34    97    99    1
    35    87    86    1
    36    81    80    1
    37    26    23    1
    38    22    23    1
    39    86    85    1
    40    86    89    1
    41    23    24    1
    42    85    78   am
    43    80    77    1
    44    90    89    1
    45    78    77    1
    46    78    79    2
    47    89    91    1
    48    77    76    1
    49    24    25    2
    50    35    33    1
    51    43    41   am
    52    76    67   am
    53    42    41    2
    54    68    67    2
    55    33    34    1
    56    33    30    1
    57    41    40    1
    58    67    66    1
    59    29    30    1
    60    30    31    1
    61    40    37    1
    62    36    31   am
    63    36    37    1
    64    66    65    1
    65    66    69    1
    66    65    63   am
    67    31    32    2
    68    64    63    2
    69    37    38    1
    70    63    62    1
    71    69    70    1
    72    62    61    1
    73    51    49    1
    74    38    39    2
    75    49    48    1
    76    70    72   ar
    77    70    71   ar
    78    50    48    1
    79    48    45    1
    80    60    59    1
    81    72    74   ar
    82    71    73   ar
    83    59    58    1
    84    44    45    1
    85    45    46    1
    86    74    75   ar
    87    73    75   ar
    88    46    47    2
    89    58    57    1
    90    57    56    1
    91    56    53    1
    92    52    53    1
    93    53    54    1
    94    54    55    2
