@<TRIPOS>MOLECULE
tmp/4x1rB01.pdb
 118 118 0 0 0
SMALL
GASTEIGER

@<TRIPOS>ATOM
      1  N        -21.5620  -19.9940  -11.1450 N.3   192  ASP192     -0.1225
      2  CA       -22.7070  -19.1520  -10.8300 C.3   192  ASP192      0.1805
      3  C        -23.8000  -19.8880  -10.0560 C.2   192  ASP192      0.2598
      4  O        -23.8290  -21.1190  -10.0100 O.2   192  ASP192     -0.2718
      5  CB       -23.3200  -18.6630  -12.1530 C.3   192  ASP192      0.1424
      6  CG       -23.6980  -17.2040  -12.1270 C.2   192  ASP192      0.3668
      7  OD1      -23.9350  -16.6310  -11.0360 O.co2 192  ASP192     -0.2456
      8  OD2      -23.7630  -16.6300  -13.2380 O.co2 192  ASP192     -0.2456
      9  N        -24.7170  -19.1260   -9.4730 N.am  193  SER193     -0.1938
     10  CA       -26.0000  -19.6910   -9.0730 C.3   193  SER193      0.2055
     11  C        -26.8650  -19.8820  -10.3330 C.2   193  SER193      0.2643
     12  O        -26.5600  -19.3230  -11.3900 O.2   193  SER193     -0.2714
     13  CB       -26.7000  -18.7970   -8.0540 C.3   193  SER193      0.2130
     14  OG       -26.9930  -17.5150   -8.5790 O.3   193  SER193     -0.2179
     15  N        -27.9310  -20.6690  -10.2260 N.am  194  CYS194     -0.1953
     16  CA       -28.8120  -20.8820  -11.3670 C.3   194  CYS194      0.1843
     17  C        -30.2010  -21.2550  -10.9120 C.2   194  CYS194      0.2625
     18  O        -30.5070  -21.1890   -9.7070 O.2   194  CYS194     -0.2714
     19  CB       -28.2130  -21.9330  -12.3160 C.3   194  CYS194      0.0997
     20  SG       -28.8610  -21.8900  -14.0180 S.3   194  CYS194     -0.0797
     21  N        -31.0580  -21.6290  -11.8660 N.am  195  GLN195     -0.1963
     22  CA       -32.4290  -21.9640  -11.5450 C.3   195  GLN195      0.1733
     23  C        -32.4590  -23.0870  -10.5270 C.2   195  GLN195      0.2616
     24  O        -31.7580  -24.0630  -10.6960 O.2   195  GLN195     -0.2715
     25  CB       -33.2030  -22.3850  -12.8010 C.3   195  GLN195      0.0408
     26  CG       -34.7180  -22.3300  -12.6370 C.3   195  GLN195      0.0908
     27  CD       -35.4760  -22.8640  -13.8460 C.2   195  GLN195      0.2608
     28  OE1      -34.8840  -23.1740  -14.8820 O.2   195  GLN195     -0.2717
     29  NE2      -36.7920  -22.9900  -13.7100 N.am  195  GLN195     -0.0878
     30  N        -33.2710  -22.9280   -9.4850 N.am  196  GLY196     -0.1955
     31  CA       -33.3680  -23.9030   -8.4190 C.3   196  GLY196      0.1869
     32  C        -32.4830  -23.6070   -7.2070 C.2   196  GLY196      0.2309
     33  O        -32.6090  -24.2800   -6.1780 O.2   196  GLY196     -0.2863
     34  N        -32.4670  -20.5050   -5.8740 N.3   198  SER198     -0.1217
     35  CA       -33.0640  -19.3540   -5.2140 C.3   198  SER198      0.1889
     36  C        -33.4270  -19.6120   -3.7480 C.2   198  SER198      0.2288
     37  O        -33.7300  -20.7300   -3.3750 O.2   198  SER198     -0.2866
     38  CB       -34.2670  -18.8370   -6.0060 C.3   198  SER198      0.2089
     39  OG       -35.3630  -19.7270   -5.9840 O.3   198  SER198     -0.2183
     40  N        -30.0390  -15.8600   -2.6450 N.3   216  VAL216     -0.1231
     41  CA       -30.0980  -15.9880   -4.0800 C.3   216  VAL216      0.1692
     42  C        -31.4610  -15.4710   -4.5580 C.2   216  VAL216      0.2593
     43  O        -32.4950  -15.9300   -4.0690 O.2   216  VAL216     -0.2718
     44  CB       -29.9280  -17.4610   -4.5350 C.3   216  VAL216      0.0266
     45  CG1      -29.9620  -17.5450   -6.0440 C.3   216  VAL216      0.0020
     46  CG2      -28.6210  -18.0780   -4.0240 C.3   216  VAL216      0.0020
     47  N        -31.4570  -14.5420   -5.5160 N.am  217  SER217     -0.1938
     48  CA       -32.6890  -13.8850   -5.9910 C.3   217  SER217      0.2055
     49  C        -32.8860  -13.9810   -7.5040 C.2   217  SER217      0.2643
     50  O        -33.8240  -14.6080   -7.9630 O.2   217  SER217     -0.2714
     51  CB       -32.7250  -12.4130   -5.5550 C.3   217  SER217      0.2130
     52  OG       -34.0180  -11.8400   -5.7350 O.3   217  SER217     -0.2179
     53  N        -32.0040  -13.3660   -8.2800 N.am  218  TRP218     -0.1959
     54  CA       -32.1830  -13.3460   -9.7270 C.3   218  TRP218      0.1771
     55  C        -30.8980  -13.0340  -10.4150 C.2   218  TRP218      0.2620
     56  O        -29.9320  -12.6360   -9.7790 O.2   218  TRP218     -0.2715
     57  CB       -33.2300  -12.2980  -10.1340 C.3   218  TRP218      0.0590
     58  CG       -32.8910  -10.9220   -9.6800 C.ar  218  TRP218      0.0006
     59  CD1      -33.1360  -10.3940   -8.4690 C.ar  218  TRP218      0.0946
     60  CD2      -32.2420   -9.9000  -10.4410 C.ar  218  TRP218      0.0152
     61  NE1      -32.6930   -9.1020   -8.4130 N.ar  218  TRP218     -0.2442
     62  CE2      -32.1410   -8.7720   -9.6160 C.ar  218  TRP218      0.0810
     63  CE3      -31.7430   -9.8330  -11.7400 C.ar  218  TRP218      0.0012
     64  CZ2      -31.5570   -7.5740  -10.0430 C.ar  218  TRP218      0.0191
     65  CZ3      -31.1550   -8.6510  -12.1690 C.ar  218  TRP218      0.0001
     66  CH2      -31.0720   -7.5330  -11.3230 C.ar  218  TRP218      0.0015
     67  N        -30.8440  -13.4000  -11.6810 N.am  219  GLY219     -0.1940
     68  CA       -29.7580  -13.0810  -12.5640 C.3   219  GLY219      0.2014
     69  C        -30.1050  -13.4640  -13.9780 C.2   219  GLY219      0.2639
     70  O        -30.9560  -14.2910  -14.1850 O.2   219  GLY219     -0.2714
     71  N        -29.3820  -12.9440  -14.9450 N.am  220  ARG220     -0.1963
     72  CA       -29.6840  -13.2420  -16.3270 C.3   220  ARG220      0.1729
     73  C        -28.8330  -14.3830  -16.7660 C.2   220  ARG220      0.2617
     74  O        -27.6430  -14.3090  -16.6410 O.2   220  ARG220     -0.2715
     75  CB       -29.3630  -12.0160  -17.1640 C.3   220  ARG220      0.0348
     76  CG       -29.7380  -12.0980  -18.6170 C.3   220  ARG220      0.0492
     77  CD       -29.5660  -10.7530  -19.2990 C.3   220  ARG220      0.2205
     78  NE       -30.1960  -10.7580  -20.6060 N.pl3 220  ARG220     -0.0865
     79  CZ       -30.0110   -9.8450  -21.5510 C.cat 220  ARG220      0.5346
     80  NH1      -30.6400   -9.9650  -22.6990 N.pl3 220  ARG220      0.1354
     81  NH2      -29.2110   -8.8170  -21.3530 N.pl3 220  ARG220      0.1354
     82  N        -29.4310  -15.4440  -17.2790 N.am  221  GLY221     -0.1940
     83  CA       -28.6800  -16.6340  -17.6490 C.3   221  GLY221      0.2014
     84  C        -27.9210  -17.2220  -16.4680 C.2   221  GLY221      0.2639
     85  O        -28.1570  -16.8020  -15.3700 O.2   221  GLY221     -0.2714
     86  N        -27.0130  -18.1700  -16.6840 N.am  222  CYS222     -0.1967
     87  CA       -26.1840  -18.6210  -15.5840 C.3   222  CYS222      0.1712
     88  C        -24.7580  -18.7180  -16.0970 C.2   222  CYS222      0.2296
     89  O        -24.5310  -19.2860  -17.1650 O.2   222  CYS222     -0.2864
     90  CB       -26.6720  -19.9840  -15.0750 C.3   222  CYS222      0.0983
     91  SG       -28.4330  -19.9950  -14.7110 S.3   222  CYS222     -0.0798
     92  N        -22.9440  -10.8410  -16.8210 N.3   227  LYS227     -0.1231
     93  CA       -24.2270  -10.9060  -16.1430 C.3   227  LYS227      0.1678
     94  C        -24.1760  -11.7170  -14.8430 C.2   227  LYS227      0.2434
     95  O        -24.3440  -12.9160  -14.8210 O.2   227  LYS227     -0.2733
     96  CB       -25.2920  -11.3770  -17.1150 C.3   227  LYS227      0.0284
     97  CG       -25.5930  -10.3510  -18.2080 C.3   227  LYS227      0.0035
     98  CD       -26.1590   -9.0560  -17.6280 C.3   227  LYS227      0.0206
     99  CE       -26.0260   -7.8110  -18.5200 C.3   227  LYS227      0.1093
    100  NZ       -26.2040   -6.5030  -17.7810 N.3   227  LYS227     -0.1314
    101  N        -23.8900  -10.9460  -13.7130 N.am  228  PRO228     -0.2718
    102  CA       -23.6800  -11.7280  -12.4910 C.3   228  PRO228      0.1535
    103  C        -24.9190  -12.1270  -11.7070 C.2   228  PRO228      0.2599
    104  O        -25.9700  -11.6490  -12.0070 O.2   228  PRO228     -0.2715
    105  CB       -22.7960  -10.8300  -11.6680 C.3   228  PRO228      0.0310
    106  CG       -23.3680   -9.5130  -11.8770 C.3   228  PRO228      0.0237
    107  CD       -23.6690   -9.4630  -13.3240 C.3   228  PRO228      0.0939
    108  N        -24.7810  -12.9990  -10.7140 N.am  229  GLY229     -0.1941
    109  CA       -25.8850  -13.3200   -9.8200 C.3   229  GLY229      0.2014
    110  C        -26.2420  -12.1090   -8.9720 C.2   229  GLY229      0.2638
    111  O        -25.3690  -11.3070   -8.6290 O.2   229  GLY229     -0.2714
    112  N        -27.5290  -11.9640   -8.6520 N.am  230  VAL230     -0.1977
    113  CA       -27.9960  -10.8930   -7.7930 C.3   230  VAL230      0.1596
    114  C        -28.6270  -11.5310   -6.5780 C.2   230  VAL230      0.2287
    115  O        -29.3140  -12.5420   -6.6880 O.2   230  VAL230     -0.2864
    116  CB       -29.0380   -9.9930   -8.5070 C.3   230  VAL230      0.0276
    117  CG1      -29.3940   -8.8000   -7.6330 C.3   230  VAL230      0.0022
    118  CG2      -28.4960   -9.5490   -9.8530 C.3   230  VAL230      0.0022
@<TRIPOS>BOND
     1    80    79    1
     2    79    81    1
     3    79    78    2
     4    78    77    1
     5    77    76    1
     6    76    75    1
     7    99   100    1
     8    99    98    1
     9    97    98    1
    10    97    96    1
    11    83    82    1
    12    83    84    1
    13    82    73   am
    14    89    88    2
    15    75    72    1
    16    96    93    1
    17    92    93    1
    18    73    74    2
    19    73    72    1
    20    86    84   am
    21    86    87    1
    22    84    85    2
    23    72    71    1
    24    93    94    1
    25    88    87    1
    26    87    90    1
    27    90    91    1
    28    71    69   am
    29    28    27    2
    30    94    95    2
    31    94   101   am
    32    91    20    1
    33    70    69    2
    34    20    19    1
    35    69    68    1
    36    27    29   am
    37    27    26    1
    38   101   107    1
    39   101   102    1
    40   107   106    1
    41     8     6   ar
    42    25    26    1
    43    25    22    1
    44    68    67    1
    45   102   103    1
    46   102   105    1
    47    19    16    1
    48    65    63   ar
    49    65    66   ar
    50     5     6    1
    51     5     2    1
    52     6     7   ar
    53   104   103    2
    54   106   105    1
    55    21    22    1
    56    21    17   am
    57    63    60   ar
    58   103   108   am
    59    67    55   am
    60    22    23    1
    61    12    11    2
    62    16    17    1
    63    16    15    1
    64    66    64   ar
    65     1     2    1
    66    17    18    2
    67     2     3    1
    68   108   109    1
    69    24    23    2
    70    23    30   am
    71    60    58   ar
    72    60    62   ar
    73    55    56    2
    74    55    54    1
    75    11    15   am
    76    11    10    1
    77    57    54    1
    78    57    58    1
    79     3     4    2
    80     3     9   am
    81    64    62   ar
    82   118   116    1
    83   109   110    1
    84    54    53    1
    85    58    59   ar
    86    62    61   ar
    87    30    31    1
    88     9    10    1
    89    10    13    1
    90   110   112   am
    91   110   111    2
    92   112   113    1
    93    14    13    1
    94   116   113    1
    95   116   117    1
    96    59    61   ar
    97    31    32    1
    98    53    49   am
    99    50    49    2
   100   113   114    1
   101    49    48    1
   102    32    33    2
   103   115   114    2
   104    45    44    1
   105    38    39    1
   106    38    35    1
   107    48    51    1
   108    48    47    1
   109    34    35    1
   110    52    51    1
   111    47    42   am
   112    35    36    1
   113    42    41    1
   114    42    43    2
   115    44    41    1
   116    44    46    1
   117    41    40    1
   118    36    37    2
