@<TRIPOS>MOLECULE
tmp/4x1tA00.pdb
 181 169 0 0 0
SMALL
GASTEIGER

@<TRIPOS>ATOM
      1  N        -40.6460   10.7340   15.0120 N.3    11  GLY11      -0.1210
      2  CA       -42.0680   10.9940   15.1090 C.3    11  GLY11       0.1956
      3  C        -42.5260   12.3880   14.7660 C.2    11  GLY11       0.2612
      4  O        -43.3800   12.5750   13.9130 O.2    11  GLY11      -0.2717
      5  N        -41.9620   13.3670   15.4520 N.am   12  GLY12      -0.1956
      6  CA       -42.4540   14.7230   15.3690 C.3    12  GLY12       0.1869
      7  C        -41.8810   15.6210   14.2960 C.2    12  GLY12       0.2309
      8  O        -42.2410   16.7740   14.2110 O.2    12  GLY12      -0.2863
      9  N        -41.0140   18.0540   11.6440 N.3    14  HIS14      -0.1226
     10  CA       -42.1850   17.7010   10.9230 C.3    14  HIS14       0.1752
     11  C        -41.8740   17.3350    9.4630 C.2    14  HIS14       0.2596
     12  O        -41.6210   18.2070    8.6600 O.2    14  HIS14      -0.2718
     13  CB       -43.0540   18.9510   11.0510 C.3    14  HIS14       0.0759
     14  CG       -44.4990   18.7410   10.8270 C.ar   14  HIS14       0.0818
     15  ND1      -45.1670   19.3270    9.7850 N.ar   14  HIS14      -0.2268
     16  CD2      -45.4170   18.0440   11.5250 C.ar   14  HIS14       0.1154
     17  CE1      -46.4300   18.9670    9.8260 C.ar   14  HIS14       0.1986
     18  NE2      -46.6070   18.1830   10.8690 N.ar   14  HIS14      -0.2212
     19  N        -41.9190   16.0610    9.0960 N.am   15  ARG15      -0.1966
     20  CA       -41.6840   15.6800    7.7060 C.3    15  ARG15       0.1729
     21  C        -42.5440   16.4690    6.7230 C.2    15  ARG15       0.2616
     22  O        -42.0310   17.0430    5.7600 O.2    15  ARG15      -0.2715
     23  CB       -41.9480   14.1860    7.5110 C.3    15  ARG15       0.0348
     24  CG       -41.7510   13.7200    6.0760 C.3    15  ARG15       0.0492
     25  CD       -40.6510   12.6760    5.9310 C.3    15  ARG15       0.2205
     26  NE       -39.4260   13.0300    6.6470 N.pl3  15  ARG15      -0.0865
     27  CZ       -38.1890   12.8240    6.1980 C.cat  15  ARG15       0.5346
     28  NH1      -37.1530   13.1820    6.9430 N.pl3  15  ARG15       0.1354
     29  NH2      -37.9730   12.2700    5.0120 N.pl3  15  ARG15       0.1354
     30  N        -43.8510   16.4860    6.9680 N.am   16  ALA16      -0.1977
     31  CA       -44.8010   17.1260    6.0600 C.3    16  ALA16       0.1597
     32  C        -44.3500   18.5330    5.6600 C.2    16  ALA16       0.2287
     33  O        -44.4810   18.9300    4.5010 O.2    16  ALA16      -0.2864
     34  CB       -46.1870   17.1720    6.6980 C.3    16  ALA16       0.0319
     35  N        -47.9210   21.7600    1.0980 N.3   120  ARG120     -0.1245
     36  CA       -47.3680   21.3210   -0.1780 C.3   120  ARG120      0.1563
     37  C        -47.8850   22.1660   -1.3380 C.2   120  ARG120      0.2260
     38  O        -49.0910   22.3920   -1.4550 O.2   120  ARG120     -0.2867
     39  CB       -47.7210   19.8540   -0.4370 C.3   120  ARG120      0.0307
     40  CG       -47.1770   18.8810    0.5940 C.3   120  ARG120      0.0489
     41  CD       -47.4550   17.4420    0.1890 C.3   120  ARG120      0.2205
     42  NE       -48.8860   17.1450    0.1390 N.pl3 120  ARG120     -0.0865
     43  CZ       -49.5970   16.6540    1.1520 C.cat 120  ARG120      0.5346
     44  NH1      -50.8930   16.4220    0.9950 N.pl3 120  ARG120      0.1354
     45  NH2      -49.0250   16.3930    2.3220 N.pl3 120  ARG120      0.1354
     46  N        -59.6510   10.4690    8.9030 N.3   149  MET149     -0.1245
     47  CA       -58.2610   10.0510    8.7590 C.3   149  MET149      0.1570
     48  C        -57.4860   10.2480   10.0570 C.2   149  MET149      0.2261
     49  O        -58.0350   10.7060   11.0550 O.2   149  MET149     -0.2867
     50  CB       -57.5890   10.8180    7.6170 C.3   149  MET149      0.0387
     51  CG       -57.6560   12.3260    7.7570 C.3   149  MET149      0.0595
     52  SD       -56.9380   13.1890    6.3420 S.3   149  MET149     -0.1393
     53  CE       -55.1890   12.9710    6.6500 C.3   149  MET149      0.0692
     54  N        -53.5490   11.0710   10.0390 N.3   151  GLY151     -0.1210
     55  CA       -52.1720   11.2770    9.6250 C.3   151  GLY151      0.1956
     56  C        -51.6710   10.1950    8.6860 C.2   151  GLY151      0.2612
     57  O        -52.4580    9.4310    8.1260 O.2   151  GLY151     -0.2717
     58  N        -50.3530   10.1260    8.5200 N.am  152  GLY152     -0.1956
     59  CA       -49.7450    9.1870    7.5940 C.3   152  GLY152      0.1869
     60  C        -49.8680    7.7260    7.9950 C.2   152  GLY152      0.2309
     61  O        -49.8240    6.8440    7.1380 O.2   152  GLY152     -0.2863
     62  N        -53.7690    6.6640   12.6130 N.3   155  MET155     -0.1245
     63  CA       -53.9620    6.5210   14.0530 C.3   155  MET155      0.1570
     64  C        -55.3670    6.9700   14.4350 C.2   155  MET155      0.2261
     65  O        -56.0600    7.6030   13.6410 O.2   155  MET155     -0.2867
     66  CB       -52.9410    7.3640   14.8180 C.3   155  MET155      0.0387
     67  CG       -51.5520    7.3780   14.2040 C.3   155  MET155      0.0595
     68  SD       -50.3600    8.2830   15.2110 S.3   155  MET155     -0.1393
     69  CE       -48.8610    8.0140   14.2710 C.3   155  MET155      0.0692
     70  N        -59.3780    7.6830    4.8710 N.3   184  ILE184     -0.1245
     71  CA       -57.9980    7.5850    4.4140 C.3   184  ILE184      0.1561
     72  C        -57.1410    6.9710    5.5150 C.2   184  ILE184      0.2260
     73  O        -56.9210    7.5850    6.5550 O.2   184  ILE184     -0.2867
     74  CB       -57.4450    8.9640    4.0180 C.3   184  ILE184      0.0252
     75  CG1      -58.2940    9.5540    2.8890 C.3   184  ILE184      0.0019
     76  CG2      -55.9850    8.8560    3.5950 C.3   184  ILE184      0.0019
     77  CD1      -57.8700   10.9350    2.4550 C.3   184  ILE184      0.0001
     78  N        -53.9930    6.0250    5.2330 N.3   186  GLY186     -0.1225
     79  CA       -52.5810    6.2930    5.0470 C.3   186  GLY186      0.1811
     80  C        -51.8100    5.0160    4.7760 C.2   186  GLY186      0.2280
     81  O        -52.0900    4.3040    3.8110 O.2   186  GLY186     -0.2866
     82  N        -52.9200    5.0590    1.1640 N.3   209  PHE209     -0.1227
     83  CA       -52.1690    6.3040    1.1850 C.3   209  PHE209      0.1736
     84  C        -52.5190    7.1640   -0.0210 C.2   209  PHE209      0.2595
     85  O        -52.4080    6.7300   -1.1640 O.2   209  PHE209     -0.2718
     86  CB       -50.6630    6.0580    1.2360 C.3   209  PHE209      0.0547
     87  CG       -49.8730    7.2980    1.5420 C.ar  209  PHE209     -0.0202
     88  CD1      -49.6370    7.6790    2.8520 C.ar  209  PHE209     -0.0042
     89  CD2      -49.3910    8.0990    0.5200 C.ar  209  PHE209     -0.0042
     90  CE1      -48.9220    8.8260    3.1370 C.ar  209  PHE209     -0.0003
     91  CE2      -48.6760    9.2490    0.8000 C.ar  209  PHE209     -0.0003
     92  CZ       -48.4410    9.6120    2.1100 C.ar  209  PHE209     -0.0000
     93  N        -52.9450    8.3890    0.2590 N.am  210  ILE210     -0.1966
     94  CA       -53.3600    9.3320   -0.7700 C.3   210  ILE210      0.1727
     95  C        -52.2760   10.3800   -0.9980 C.2   210  ILE210      0.2616
     96  O        -51.7110   10.9110   -0.0420 O.2   210  ILE210     -0.2715
     97  CB       -54.6610   10.0460   -0.3500 C.3   210  ILE210      0.0290
     98  CG1      -55.8350    9.0620   -0.3580 C.3   210  ILE210      0.0022
     99  CG2      -54.9420   11.2340   -1.2590 C.3   210  ILE210      0.0023
    100  CD1      -56.3060    8.6580   -1.7460 C.3   210  ILE210      0.0001
    101  N        -51.9820   10.6750   -2.2610 N.am  211  THR211     -0.1951
    102  CA       -51.0220   11.7270   -2.5900 C.3   211  THR211      0.1897
    103  C        -51.7370   13.0130   -2.9940 C.2   211  THR211      0.2313
    104  O        -51.2260   14.1110   -2.7750 O.2   211  THR211     -0.2863
    105  CB       -50.0550   11.3020   -3.7160 C.3   211  THR211      0.1794
    106  OG1      -50.7830   10.6510   -4.7640 O.3   211  THR211     -0.2208
    107  CG2      -48.9900   10.3580   -3.1760 C.3   211  THR211      0.0378
    108  N        -54.2880   14.6390   -1.6720 N.3   213  MET213     -0.1245
    109  CA       -55.1640   14.9890   -0.5550 C.3   213  MET213      0.1570
    110  C        -56.0870   16.1290   -0.9710 C.2   213  MET213      0.2261
    111  O        -57.2720   16.1410   -0.6360 O.2   213  MET213     -0.2867
    112  CB       -54.3360   15.4060    0.6630 C.3   213  MET213      0.0387
    113  CG       -55.1560   15.6260    1.9230 C.3   213  MET213      0.0595
    114  SD       -56.0240   14.1410    2.4780 S.3   213  MET213     -0.1393
    115  CE       -54.6650   12.9960    2.7080 C.3   213  MET213      0.0692
    116  N        -56.9660   13.4880   14.1060 N.3   226  LYS226     -0.1245
    117  CA       -56.1530   13.9010   15.2420 C.3   226  LYS226      0.1561
    118  C        -55.5430   15.2590   14.9180 C.2   226  LYS226      0.2260
    119  O        -55.4460   15.6380   13.7500 O.2   226  LYS226     -0.2867
    120  CB       -55.0530   12.8790   15.5300 C.3   226  LYS226      0.0271
    121  CG       -53.9690   12.8150   14.4650 C.3   226  LYS226      0.0035
    122  CD       -52.8190   11.9250   14.9080 C.3   226  LYS226      0.0206
    123  CE       -51.6930   11.9020   13.8890 C.3   226  LYS226      0.1093
    124  NZ       -51.0770   13.2460   13.7060 N.3   226  LYS226     -0.1314
    125  N        -53.0970   16.9390   14.0170 N.3   228  GLY228     -0.1210
    126  CA       -51.8720   17.1680   13.2740 C.3   228  GLY228      0.1940
    127  C        -51.9120   18.5280   12.5910 C.2   228  GLY228      0.2454
    128  O        -52.8950   18.8590   11.9270 O.2   228  GLY228     -0.2732
    129  N        -50.8430   19.3280   12.7500 N.am  229  PRO229     -0.2717
    130  CA       -50.7830   20.6850   12.1880 C.3   229  PRO229      0.1536
    131  C        -50.9270   20.7190   10.6710 C.2   229  PRO229      0.2599
    132  O        -51.6200   21.5890   10.1420 O.2   229  PRO229     -0.2715
    133  CB       -49.3940   21.1830   12.6060 C.3   229  PRO229      0.0310
    134  CG       -48.6270   19.9620   12.9820 C.3   229  PRO229      0.0237
    135  CD       -49.6230   18.9870   13.4970 C.3   229  PRO229      0.0939
    136  N        -50.2820   19.7820    9.9850 N.am  230  GLY230     -0.1941
    137  CA       -50.3650   19.7040    8.5390 C.3   230  GLY230      0.2014
    138  C        -51.7900   19.5140    8.0560 C.2   230  GLY230      0.2639
    139  O        -52.2640   20.2420    7.1840 O.2   230  GLY230     -0.2714
    140  N        -52.4770   18.5310    8.6310 N.am  231  THR231     -0.1950
    141  CA       -53.8440   18.2100    8.2330 C.3   231  THR231      0.1897
    142  C        -54.7780   19.3700    8.5480 C.2   231  THR231      0.2313
    143  O        -55.6560   19.7040    7.7530 O.2   231  THR231     -0.2863
    144  CB       -54.3590   16.9290    8.9350 C.3   231  THR231      0.1794
    145  OG1      -53.5780   15.8040    8.5180 O.3   231  THR231     -0.2208
    146  CG2      -55.8170   16.6700    8.5880 C.3   231  THR231      0.0378
    147  N        -54.2400   22.0860    5.9810 N.3   234  GLU234     -0.1245
    148  CA       -54.7770   21.6230    4.7100 C.3   234  GLU234      0.1567
    149  C        -56.3000   21.6810    4.7050 C.2   234  GLU234      0.2260
    150  O        -56.9100   22.0900    3.7160 O.2   234  GLU234     -0.2867
    151  CB       -54.3050   20.1950    4.4400 C.3   234  GLU234      0.0388
    152  CG       -52.8120   20.0930    4.1820 C.3   234  GLU234      0.1160
    153  CD       -52.3010   18.6680    4.2510 C.2   234  GLU234      0.3649
    154  OE1      -53.1090   17.7550    4.5130 O.co2 234  GLU234     -0.2457
    155  OE2      -51.0870   18.4610    4.0500 O.co2 234  GLU234     -0.2457
    156  N        -51.4340   13.8910   19.6220 N.3   248  ILE248     -0.1245
    157  CA       -50.2350   13.2350   20.1280 C.3   248  ILE248      0.1561
    158  C        -49.6650   14.0530   21.2830 C.2   248  ILE248      0.2260
    159  O        -49.4880   15.2660   21.1690 O.2   248  ILE248     -0.2867
    160  CB       -49.1860   13.0690   19.0140 C.3   248  ILE248      0.0252
    161  CG1      -49.6700   12.0240   18.0070 C.3   248  ILE248      0.0019
    162  CG2      -47.8430   12.6510   19.5970 C.3   248  ILE248      0.0019
    163  CD1      -49.0180   12.1230   16.6490 C.3   248  ILE248      0.0001
    164  N        -46.5620   17.0020   21.3100 N.3   251  GLN251     -0.1231
    165  CA       -46.4270   17.5300   19.9540 C.3   251  GLN251      0.1698
    166  C        -47.6200   18.3540   19.4540 C.2   251  GLN251      0.2592
    167  O        -47.4320   19.3950   18.8230 O.2   251  GLN251     -0.2718
    168  CB       -46.1730   16.3780   18.9760 C.3   251  GLN251      0.0381
    169  CG       -44.8360   15.6840   19.1650 C.3   251  GLN251      0.0905
    170  CD       -44.6960   14.4470   18.2990 C.2   251  GLN251      0.2608
    171  OE1      -45.2700   14.3680   17.2120 O.2   251  GLN251     -0.2717
    172  NE2      -43.9390   13.4680   18.7810 N.am  251  GLN251     -0.0878
    173  N        -48.8370   17.8960   19.7360 N.am  252  GLU252     -0.1979
    174  CA       -50.0230   18.4170   19.0540 C.3   252  GLU252      0.1602
    175  C        -51.0780   19.0570   19.9620 C.2   252  GLU252      0.2287
    176  O        -52.1810   19.3590   19.5060 O.2   252  GLU252     -0.2864
    177  CB       -50.6870   17.2870   18.2630 C.3   252  GLU252      0.0415
    178  CG       -49.8000   16.6610   17.2030 C.3   252  GLU252      0.1163
    179  CD       -50.5250   15.6130   16.3790 C.2   252  GLU252      0.3649
    180  OE1      -51.5850   15.1280   16.8290 O.co2 252  GLU252     -0.2457
    181  OE2      -50.0340   15.2740   15.2810 O.co2 252  GLU252     -0.2457
@<TRIPOS>BOND
     1   106   105    1
     2   105   107    1
     3   105   102    1
     4   103   104    2
     5   103   102    1
     6   102   101    1
     7   101    95   am
     8   100    98    1
     9   108   109    1
    10    38    37    2
    11    37    36    1
    12    99    97    1
    13    85    84    2
    14    95    94    1
    15    95    96    2
    16   110   111    2
    17   110   109    1
    18    94    97    1
    19    94    93    1
    20   109   112    1
    21    39    36    1
    22    39    40    1
    23    98    97    1
    24    36    35    1
    25    84    93   am
    26    84    83    1
    27    42    41    1
    28    42    43    2
    29    41    40    1
    30    89    91   ar
    31    89    87   ar
    32   112   113    1
    33    91    92   ar
    34    44    43    1
    35    43    45    1
    36    82    83    1
    37    83    86    1
    38    86    87    1
    39    87    88   ar
    40   113   114    1
    41    92    90   ar
    42    77    75    1
    43   114   115    1
    44    88    90   ar
    45    75    74    1
    46    76    74    1
    47   150   149    2
    48    81    80    2
    49    74    71    1
    50   155   153   ar
    51   152   153    1
    52   152   151    1
    53   153   154   ar
    54    71    70    1
    55    71    72    1
    56   151   148    1
    57    33    32    2
    58   149   148    1
    59   148   147    1
    60    80    79    1
    61    29    27    1
    62    79    78    1
    63    72    73    2
    64    32    31    1
    65    22    21    2
    66    25    24    1
    67    25    26    1
    68    31    34    1
    69    31    30    1
    70    24    23    1
    71    27    26    2
    72    27    28    1
    73    52    53    1
    74    52    51    1
    75    21    30   am
    76    21    20    1
    77    61    60    2
    78   139   138    2
    79    23    20    1
    80    59    60    1
    81    59    58    1
    82    50    51    1
    83    50    47    1
    84    20    19    1
    85   143   142    2
    86   138   137    1
    87   138   140   am
    88    57    56    2
    89   141   142    1
    90   141   140    1
    91   141   144    1
    92   145   144    1
    93    58    56   am
    94   137   136    1
    95   146   144    1
    96    12    11    2
    97    56    55    1
    98    47    46    1
    99    47    48    1
   100    19    11   am
   101    11    10    1
   102    55    54    1
   103    15    17   ar
   104    15    14   ar
   105    17    18   ar
   106   136   131   am
   107    48    49    2
   108   132   131    2
   109   131   130    1
   110    14    13    1
   111    14    16   ar
   112    18    16   ar
   113    10    13    1
   114    10     9    1
   115   128   127    2
   116   130   133    1
   117   130   129    1
   118   127   129   am
   119   127   126    1
   120   133   134    1
   121    62    63    1
   122   129   135    1
   123   134   135    1
   124   126   125    1
   125    65    64    2
   126   124   123    1
   127   119   118    2
   128   123   122    1
   129     4     3    2
   130    63    64    1
   131    63    66    1
   132   116   117    1
   133    67    66    1
   134    67    68    1
   135     8     7    2
   136    69    68    1
   137     7     6    1
   138   121   122    1
   139   121   120    1
   140     3     2    1
   141     3     5   am
   142   118   117    1
   143     1     2    1
   144   117   120    1
   145   181   179   ar
   146     6     5    1
   147   179   180   ar
   148   179   178    1
   149   163   161    1
   150   178   177    1
   151   171   170    2
   152   161   160    1
   153   177   174    1
   154   170   172   am
   155   170   169    1
   156   167   166    2
   157   168   169    1
   158   168   165    1
   159   160   162    1
   160   160   157    1
   161   174   173    1
   162   174   175    1
   163   166   173   am
   164   166   165    1
   165   176   175    2
   166   156   157    1
   167   165   164    1
   168   157   158    1
   169   159   158    2
