@<TRIPOS>MOLECULE
tmp/4x1yD02.pdb
 159 153 0 0 0
SMALL
GASTEIGER

@<TRIPOS>ATOM
      1  N        -38.7630  156.2000  116.4970 N.3    10  GLN10      -0.1231
      2  CA       -37.8230  157.1320  117.0530 C.3    10  GLN10       0.1698
      3  C        -36.6090  156.3740  117.5080 C.2    10  GLN10       0.2592
      4  O        -35.5290  156.5800  116.9440 O.2    10  GLN10      -0.2718
      5  CB       -38.4230  157.9310  118.2010 C.3    10  GLN10       0.0381
      6  CG       -37.3310  158.5920  119.0300 C.3    10  GLN10       0.0905
      7  CD       -37.8780  159.5660  119.9880 C.2    10  GLN10       0.2608
      8  OE1      -37.6480  160.7770  119.8610 O.2    10  GLN10      -0.2717
      9  NE2      -38.5770  159.0400  120.9800 N.am   10  GLN10      -0.0878
     10  N        -36.7850  155.4870  118.5020 N.am   11  CYS11      -0.1970
     11  CA       -35.6920  154.6890  119.0430 C.3    11  CYS11       0.1712
     12  C        -34.9610  153.9230  117.9460 C.2    11  CYS11       0.2296
     13  O        -33.7330  153.9440  117.8880 O.2    11  CYS11      -0.2864
     14  CB       -36.2030  153.7500  120.1170 C.3    11  CYS11       0.0983
     15  SG       -34.9180  152.7080  120.8230 S.3    11  CYS11      -0.0798
     16  N        -32.9780  156.1500  116.0350 N.3    14  GLN14      -0.1245
     17  CA       -31.9880  156.7360  116.9230 C.3    14  GLN14       0.1566
     18  C        -30.7700  155.8490  117.1170 C.2    14  GLN14       0.2260
     19  O        -29.6540  156.2760  116.8070 O.2    14  GLN14      -0.2867
     20  CB       -32.6030  157.2600  118.2330 C.3    14  GLN14       0.0367
     21  CG       -33.0180  158.7390  118.1610 C.3    14  GLN14       0.0905
     22  CD       -31.8550  159.6930  117.8680 C.2    14  GLN14       0.2608
     23  OE1      -30.6600  159.3770  118.0870 O.2    14  GLN14      -0.2717
     24  NE2      -32.1770  160.8760  117.3230 N.am   14  GLN14      -0.0878
     25  N        -26.7320  155.8330  115.0660 N.3    18  LYS18      -0.1245
     26  CA       -25.5000  155.6200  115.8060 C.3    18  LYS18       0.1561
     27  C        -24.7550  154.3470  115.3850 C.2    18  LYS18       0.2260
     28  O        -23.5530  154.4330  115.1660 O.2    18  LYS18      -0.2867
     29  CB       -25.6420  155.8290  117.3200 C.3    18  LYS18       0.0271
     30  CG       -24.9500  157.1220  117.7920 C.3    18  LYS18       0.0035
     31  CD       -23.4670  156.9040  118.2680 C.3    18  LYS18       0.0206
     32  CE       -22.7230  158.1820  118.6680 C.3    18  LYS18       0.1093
     33  NZ       -21.4060  157.9390  119.3460 N.3    18  LYS18      -0.1314
     34  N        -37.6800  162.4420  113.9000 N.3    71  THR71      -0.1218
     35  CA       -36.3840  161.7590  114.0600 C.3    71  THR71       0.1862
     36  C        -35.5960  161.5870  112.7720 C.2    71  THR71       0.2287
     37  O        -34.3670  161.6520  112.8150 O.2    71  THR71      -0.2866
     38  CB       -36.4690  160.5020  114.9280 C.3    71  THR71       0.1770
     39  OG1      -37.7150  159.8430  114.6970 O.3    71  THR71      -0.2211
     40  CG2      -36.3000  160.8110  116.4020 C.3    71  THR71       0.0375
     41  N        -33.8130  164.7930  112.3410 N.3    74  SER74      -0.1217
     42  CA       -32.7100  164.8010  113.3050 C.3    74  SER74       0.1889
     43  C        -31.5240  164.0480  112.6790 C.2    74  SER74       0.2288
     44  O        -30.4270  164.5920  112.5980 O.2    74  SER74      -0.2866
     45  CB       -33.1620  164.1790  114.6350 C.3    74  SER74       0.2089
     46  OG       -32.2340  163.3370  115.3100 O.3    74  SER74      -0.2183
     47  N        -39.9640  151.4740  133.2260 N.3   172  PRO172     -0.2102
     48  CA       -40.6260  152.7060  133.7390 C.3   172  PRO172      0.1504
     49  C        -39.6020  153.6850  134.3130 C.2   172  PRO172      0.2576
     50  O        -39.8970  154.8650  134.4190 O.2   172  PRO172     -0.2718
     51  CB       -41.5880  152.2070  134.8250 C.3   172  PRO172      0.0282
     52  CG       -41.3750  150.7020  134.9020 C.3   172  PRO172      0.0208
     53  CD       -40.1360  150.3330  134.1530 C.3   172  PRO172      0.0893
     54  N        -38.3830  153.1830  134.6340 N.am  173  LYS173     -0.1966
     55  CA       -37.2300  153.9150  135.1340 C.3   173  LYS173      0.1728
     56  C        -36.8500  154.9570  134.1110 C.2   173  LYS173      0.2616
     57  O        -36.3420  156.0120  134.4970 O.2   173  LYS173     -0.2715
     58  CB       -36.0330  152.9700  135.3850 C.3   173  LYS173      0.0311
     59  CG       -35.9650  152.3870  136.8120 C.3   173  LYS173      0.0038
     60  CD       -34.8800  151.2790  137.0100 C.3   173  LYS173      0.0206
     61  CE       -34.8960  150.6260  138.3950 C.3   173  LYS173      0.1093
     62  NZ       -34.1320  149.3320  138.4510 N.3   173  LYS173     -0.1314
     63  N        -37.1400  154.6840  132.8140 N.am  174  VAL174     -0.1963
     64  CA       -36.7970  155.5720  131.7000 C.3   174  VAL174      0.1727
     65  C        -37.9520  156.3070  130.9760 C.2   174  VAL174      0.2617
     66  O        -37.7050  157.3350  130.3330 O.2   174  VAL174     -0.2715
     67  CB       -35.7510  154.9630  130.7210 C.3   174  VAL174      0.0290
     68  CG1      -34.8700  153.9350  131.4210 C.3   174  VAL174      0.0023
     69  CG2      -36.4090  154.3660  129.4800 C.3   174  VAL174      0.0023
     70  N        -39.1850  155.7480  131.0240 N.am  175  SER175     -0.1936
     71  CA       -40.3330  156.3350  130.3290 C.3   175  SER175      0.2055
     72  C        -41.6460  156.2010  131.0620 C.2   175  SER175      0.2643
     73  O        -41.9910  155.1220  131.5340 O.2   175  SER175     -0.2714
     74  CB       -40.4580  155.7910  128.9160 C.3   175  SER175      0.2130
     75  OG       -41.6860  156.2030  128.3490 O.3   175  SER175     -0.2179
     76  N        -42.3900  157.3220  131.1090 N.am  176  ASP176     -0.1971
     77  CA       -43.6970  157.4850  131.7550 C.3   176  ASP176      0.1709
     78  C        -44.9050  156.9340  130.9820 C.2   176  ASP176      0.2293
     79  O        -45.9040  156.6210  131.6330 O.2   176  ASP176     -0.2864
     80  CB       -43.9330  158.9500  132.1760 C.3   176  ASP176      0.1436
     81  CG       -43.2360  159.3540  133.4640 C.2   176  ASP176      0.3671
     82  OD1      -43.0070  158.4610  134.3270 O.co2 176  ASP176     -0.2456
     83  OD2      -42.9450  160.5690  133.6290 O.co2 176  ASP176     -0.2456
     84  N        -30.2060  152.2250  131.8690 N.3   207  TYR207     -0.1241
     85  CA       -30.3100  153.2910  132.8580 C.3   207  TYR207      0.1605
     86  C        -29.4250  152.9780  134.0760 C.2   207  TYR207      0.2264
     87  O        -28.5620  153.7660  134.4460 O.2   207  TYR207     -0.2867
     88  CB       -31.7940  153.5110  133.2730 C.3   207  TYR207      0.0534
     89  CG       -31.9570  154.6560  134.2480 C.ar  207  TYR207     -0.0201
     90  CD1      -31.8440  154.4470  135.6230 C.ar  207  TYR207     -0.0009
     91  CD2      -32.0810  155.9720  133.7960 C.ar  207  TYR207     -0.0009
     92  CE1      -31.8460  155.5110  136.5210 C.ar  207  TYR207      0.0417
     93  CE2      -32.0970  157.0450  134.6880 C.ar  207  TYR207      0.0417
     94  CZ       -31.9890  156.8080  136.0530 C.ar  207  TYR207      0.1957
     95  OH       -32.0230  157.8500  136.9580 O.3   207  TYR207     -0.2866
     96  N        -28.0830  162.2650  135.6390 N.3   218  THR218     -0.1204
     97  CA       -29.2310  162.3780  134.7590 C.3   218  THR218      0.1979
     98  C        -28.8230  161.8760  133.3910 C.2   218  THR218      0.2460
     99  O        -28.3210  162.6390  132.5570 O.2   218  THR218     -0.2732
    100  CB       -29.8260  163.7920  134.8200 C.3   218  THR218      0.1783
    101  OG1      -28.9010  164.7240  134.2530 O.3   218  THR218     -0.2211
    102  CG2      -30.2350  164.2080  136.2550 C.3   218  THR218      0.0376
    103  N        -28.9430  160.5560  133.1660 N.am  219  PRO219     -0.2717
    104  CA       -28.4570  160.0060  131.9080 C.3   219  PRO219      0.1536
    105  C        -29.3490  160.3330  130.7270 C.2   219  PRO219      0.2599
    106  O        -30.5500  160.1470  130.8220 O.2   219  PRO219     -0.2715
    107  CB       -28.3430  158.5000  132.2020 C.3   219  PRO219      0.0310
    108  CG       -28.5440  158.3450  133.6940 C.3   219  PRO219      0.0237
    109  CD       -29.4300  159.4800  134.0480 C.3   219  PRO219      0.0939
    110  N        -28.7730  160.8510  129.6390 N.am  220  THR220     -0.1937
    111  CA       -29.5630  161.1300  128.4550 C.3   220  THR220      0.2028
    112  C        -29.6660  159.9040  127.5650 C.2   220  THR220      0.2642
    113  O        -29.1590  158.8370  127.9180 O.2   220  THR220     -0.2714
    114  CB       -29.1530  162.4280  127.7170 C.3   220  THR220      0.1808
    115  OG1      -27.7660  162.4250  127.3960 O.3   220  THR220     -0.2208
    116  CG2      -29.5410  163.6760  128.4720 C.3   220  THR220      0.0379
    117  N        -30.3450  160.0440  126.4190 N.am  221  TYR221     -0.1959
    118  CA       -30.4840  158.9400  125.4940 C.3   221  TYR221      0.1771
    119  C        -29.1850  158.7030  124.8110 C.2   221  TYR221      0.2620
    120  O        -28.8330  157.5450  124.6100 O.2   221  TYR221     -0.2715
    121  CB       -31.6350  159.1460  124.5060 C.3   221  TYR221      0.0574
    122  CG       -32.9520  158.6500  125.0630 C.ar  221  TYR221     -0.0198
    123  CD1      -34.0380  159.5070  125.2030 C.ar  221  TYR221     -0.0009
    124  CD2      -33.0920  157.3390  125.5160 C.ar  221  TYR221     -0.0009
    125  CE1      -35.2400  159.0660  125.7490 C.ar  221  TYR221      0.0417
    126  CE2      -34.2830  156.8900  126.0710 C.ar  221  TYR221      0.0417
    127  CZ       -35.3590  157.7550  126.1800 C.ar  221  TYR221      0.1957
    128  OH       -36.5340  157.3250  126.7490 O.3   221  TYR221     -0.2866
    129  N        -28.4400  159.7870  124.5660 N.am  222  GLY222     -0.1954
    130  CA       -27.1040  159.7420  123.9880 C.3   222  GLY222      0.1869
    131  C        -26.1770  158.8760  124.8140 C.2   222  GLY222      0.2309
    132  O        -25.3530  158.1470  124.2670 O.2   222  GLY222     -0.2863
    133  N        -27.2980  156.3420  126.7900 N.3   224  LEU224     -0.1231
    134  CA       -27.8010  154.9540  126.6970 C.3   224  LEU224      0.1693
    135  C        -27.4870  154.3490  125.3280 C.2   224  LEU224      0.2592
    136  O        -27.0300  153.2150  125.2530 O.2   224  LEU224     -0.2718
    137  CB       -29.3190  154.8330  126.9990 C.3   224  LEU224      0.0284
    138  CG       -29.8940  155.5070  128.2630 C.3   224  LEU224      0.0019
    139  CD1      -31.3980  155.4750  128.2330 C.3   224  LEU224      0.0001
    140  CD2      -29.4540  154.8180  129.5240 C.3   224  LEU224      0.0001
    141  N        -27.7060  155.1220  124.2540 N.am  225  ASN225     -0.1974
    142  CA       -27.4220  154.7100  122.8840 C.3   225  ASN225      0.1688
    143  C        -25.9610  154.3640  122.6660 C.2   225  ASN225      0.2292
    144  O        -25.6570  153.4980  121.8440 O.2   225  ASN225     -0.2864
    145  CB       -27.9240  155.7340  121.8920 C.3   225  ASN225      0.1181
    146  CG       -29.4160  155.8820  121.9420 C.2   225  ASN225      0.2629
    147  OD1      -30.0790  155.2920  122.8090 O.2   225  ASN225     -0.2716
    148  ND2      -29.9740  156.6870  121.0320 N.am  225  ASN225     -0.0877
    149  N        -19.9490  157.8860  127.2840 N.3   275  ARG275     -0.1245
    150  CA       -20.0370  158.4320  125.9160 C.3   275  ARG275      0.1563
    151  C        -18.8700  159.3990  125.6850 C.2   275  ARG275      0.2260
    152  O        -18.5930  160.2170  126.5540 O.2   275  ARG275     -0.2867
    153  CB       -21.4040  159.1450  125.7300 C.3   275  ARG275      0.0307
    154  CG       -21.6760  159.7300  124.3330 C.3   275  ARG275      0.0489
    155  CD       -23.0240  160.4530  124.1830 C.3   275  ARG275      0.2205
    156  NE       -23.4710  161.1360  125.4070 N.pl3 275  ARG275     -0.0865
    157  CZ       -24.3980  162.0940  125.4540 C.cat 275  ARG275      0.5346
    158  NH1      -24.9920  162.5110  124.3380 N.pl3 275  ARG275      0.1354
    159  NH2      -24.7270  162.6520  126.6140 N.pl3 275  ARG275      0.1354
@<TRIPOS>BOND
     1    41    42    1
     2    44    43    2
     3    43    42    1
     4    36    37    2
     5    36    35    1
     6    42    45    1
     7    34    35    1
     8    35    38    1
     9    45    46    1
    10    39    38    1
    11    38    40    1
    12    25    26    1
    13    28    27    2
    14    27    26    1
    15    26    29    1
    16    16    17    1
    17     1     2    1
    18    19    18    2
    19    17    18    1
    20    17    20    1
    21     4     3    2
    22     2     3    1
    23     2     5    1
    24    29    30    1
    25    24    22   am
    26     3    10   am
    27    30    31    1
    28    22    23    2
    29    22    21    1
    30    13    12    2
    31    12    11    1
    32    21    20    1
    33     5     6    1
    34    31    32    1
    35    10    11    1
    36    32    33    1
    37     6     7    1
    38    11    14    1
    39     8     7    2
    40     7     9   am
    41    14    15    1
    42   148   146   am
    43   144   143    2
    44   145   146    1
    45   145   142    1
    46   146   147    2
    47   143   142    1
    48   142   141    1
    49   130   129    1
    50   130   131    1
    51   155   154    1
    52   155   156    1
    53   141   135   am
    54   132   131    2
    55   154   153    1
    56   158   157    1
    57   121   122    1
    58   121   118    1
    59   129   119   am
    60   120   119    2
    61   119   118    1
    62   122   123   ar
    63   122   124   ar
    64   123   125   ar
    65   136   135    2
    66   135   134    1
    67   156   157    2
    68   157   159    1
    69   118   117    1
    70   124   126   ar
    71   151   150    1
    72   151   152    2
    73   153   150    1
    74   125   127   ar
    75   150   149    1
    76   126   127   ar
    77   127   128    1
    78   117   112   am
    79   134   133    1
    80   134   137    1
    81   137   138    1
    82   115   114    1
    83   112   113    2
    84   112   111    1
    85   114   111    1
    86   114   116    1
    87   139   138    1
    88   138   140    1
    89    75    74    1
    90   111   110    1
    91    74    71    1
    92    69    67    1
    93   110   105   am
    94    71    70    1
    95    71    72    1
    96    66    65    2
    97    67    68    1
    98    67    64    1
    99   105   106    2
   100   105   104    1
   101    65    70   am
   102    65    64    1
   103    78    79    2
   104    78    77    1
   105    72    76   am
   106    72    73    2
   107    76    77    1
   108    64    63    1
   109    77    80    1
   110    84    85    1
   111   104   107    1
   112   104   103    1
   113    80    81    1
   114   107   108    1
   115    99    98    2
   116    63    56   am
   117    85    88    1
   118    85    86    1
   119   103    98   am
   120   103   109    1
   121    47    48    1
   122    47    53    1
   123    88    89    1
   124    98    97    1
   125    81    83   ar
   126    81    82   ar
   127   108   109    1
   128    48    49    1
   129    48    51    1
   130    91    89   ar
   131    91    93   ar
   132    86    87    2
   133    56    57    2
   134    56    55    1
   135    53    52    1
   136    89    90   ar
   137   101   100    1
   138    49    50    2
   139    49    54   am
   140    54    55    1
   141    93    94   ar
   142    97   100    1
   143    97    96    1
   144   100   102    1
   145    51    52    1
   146    55    58    1
   147    58    59    1
   148    90    92   ar
   149    94    92   ar
   150    94    95    1
   151    59    60    1
   152    60    61    1
   153    61    62    1
