@<TRIPOS>MOLECULE
tmp/4x1yC00.pdb
 90 84 0 0 0
SMALL
GASTEIGER

@<TRIPOS>ATOM
      1  N         10.0540   97.3430   94.8190 N.3   239  ALA239     -0.1231
      2  CA        10.2270   95.8930   94.9490 C.3   239  ALA239      0.1694
      3  C         10.0120   95.5010   96.4090 C.2   239  ALA239      0.2592
      4  O          9.2900   94.5370   96.6970 O.2   239  ALA239     -0.2718
      5  CB        11.6300   95.5030   94.5030 C.3   239  ALA239      0.0304
      6  N         10.6000   96.3390   97.3190 N.am  240  LEU240     -0.1966
      7  CA        10.6040   96.3040   98.7890 C.3   240  LEU240      0.1728
      8  C          9.2910   95.7480   99.3680 C.2   240  LEU240      0.2616
      9  O          9.3350   94.8260  100.1930 O.2   240  LEU240     -0.2715
     10  CB        10.8970   97.7250   99.3420 C.3   240  LEU240      0.0311
     11  CG        12.3620   98.1860   99.3690 C.3   240  LEU240      0.0022
     12  CD1       12.5140   99.5280   98.7200 C.3   240  LEU240      0.0001
     13  CD2       12.9180   98.2210  100.8020 C.3   240  LEU240      0.0001
     14  N          8.1380   96.3190   98.8950 N.am  241  ASN241     -0.1972
     15  CA         6.7360   95.9930   99.1840 C.3   241  ASN241      0.1688
     16  C          5.7640   97.0130   98.5710 C.2   241  ASN241      0.2292
     17  O          5.5920   97.0080   97.3600 O.2   241  ASN241     -0.2864
     18  CB         6.4620   95.7480  100.6760 C.3   241  ASN241      0.1181
     19  CG         6.2910   94.2940  101.0570 C.2   241  ASN241      0.2629
     20  OD1        5.2700   93.6580  100.7640 O.2   241  ASN241     -0.2716
     21  ND2        7.2740   93.7450  101.7570 N.am  241  ASN241     -0.0877
     22  N         13.8460   94.1570  106.0380 N.3   317  PRO317     -0.2116
     23  CA        13.1330   93.0610  106.7380 C.3   317  PRO317      0.1372
     24  C         13.7020   92.4930  108.0470 C.2   317  PRO317      0.2244
     25  O         12.9130   92.1390  108.9200 O.2   317  PRO317     -0.2868
     26  CB        13.0030   91.9940  105.6570 C.3   317  PRO317      0.0268
     27  CG        12.8890   92.7700  104.4110 C.3   317  PRO317      0.0207
     28  CD        13.7960   93.9590  104.5740 C.3   317  PRO317      0.0892
     29  N         12.6720   94.6700  110.9200 N.3   320  VAL320     -0.1231
     30  CA        11.1990   94.6790  110.9070 C.3   320  VAL320      0.1692
     31  C         10.6840   93.4390  111.6550 C.2   320  VAL320      0.2592
     32  O          9.8990   93.5630  112.6010 O.2   320  VAL320     -0.2718
     33  CB        10.6150   94.7680  109.4760 C.3   320  VAL320      0.0266
     34  CG1        9.0950   94.6690  109.4930 C.3   320  VAL320      0.0020
     35  CG2       11.0610   96.0420  108.7770 C.3   320  VAL320      0.0020
     36  N         11.1810   92.2510  111.2300 N.am  321  ASN321     -0.1974
     37  CA        10.8880   90.9290  111.7830 C.3   321  ASN321      0.1688
     38  C         11.3600   90.8490  113.2250 C.2   321  ASN321      0.2292
     39  O         10.6130   90.3690  114.0840 O.2   321  ASN321     -0.2864
     40  CB        11.5700   89.8540  110.9460 C.3   321  ASN321      0.1181
     41  CG        10.9540   89.6300  109.5810 C.2   321  ASN321      0.2629
     42  OD1        9.9330   90.2280  109.2020 O.2   321  ASN321     -0.2716
     43  ND2       11.5500   88.7150  108.8230 N.am  321  ASN321     -0.0877
     44  N          8.8940   93.0790  115.1280 N.3   324  ILE324     -0.1245
     45  CA         7.6300   92.3120  115.1620 C.3   324  ILE324      0.1561
     46  C          7.6300   91.2130  116.2410 C.2   324  ILE324      0.2260
     47  O          6.6110   91.0020  116.9000 O.2   324  ILE324     -0.2867
     48  CB         7.2580   91.8080  113.7240 C.3   324  ILE324      0.0252
     49  CG1        6.1240   92.6540  113.1040 C.3   324  ILE324      0.0019
     50  CG2        6.9800   90.2910  113.6140 C.3   324  ILE324      0.0019
     51  CD1        6.5880   93.7460  112.1300 C.3   324  ILE324      0.0001
     52  N          5.3270   90.8350  119.4660 N.3   328  LYS328     -0.1245
     53  CA         4.5760   89.5650  119.4670 C.3   328  LYS328      0.1561
     54  C          4.7230   88.6750  120.7080 C.2   328  LYS328      0.2260
     55  O          3.9650   87.7050  120.8540 O.2   328  LYS328     -0.2867
     56  CB         4.7210   88.7800  118.1480 C.3   328  LYS328      0.0271
     57  CG         3.7320   89.2300  117.0610 C.3   328  LYS328      0.0035
     58  CD         2.7100   88.1400  116.6910 C.3   328  LYS328      0.0206
     59  CE         3.1730   87.2630  115.5420 C.3   328  LYS328      0.1093
     60  NZ         2.1190   86.3190  115.0720 N.3   328  LYS328     -0.1314
     61  N         -0.8030   87.4650  112.7780 N.3   342  GLY342     -0.1210
     62  CA         0.2620   88.0060  111.9490 C.3   342  GLY342      0.1956
     63  C          0.0680   89.4770  111.6430 C.2   342  GLY342      0.2611
     64  O         -1.0710   89.9640  111.5840 O.2   342  GLY342     -0.2717
     65  N          1.1860   90.1960  111.4460 N.am  343  PHE343     -0.1976
     66  CA         1.1400   91.6200  111.1110 C.3   343  PHE343      0.1639
     67  C          1.5200   91.7890  109.6390 C.2   343  PHE343      0.2290
     68  O          2.6660   91.5090  109.2740 O.2   343  PHE343     -0.2864
     69  CB         2.0970   92.4510  111.9980 C.3   343  PHE343      0.0560
     70  CG         1.9380   92.4630  113.5040 C.ar  343  PHE343     -0.0200
     71  CD1        2.7220   93.2960  114.2920 C.ar  343  PHE343     -0.0042
     72  CD2        1.0400   91.6060  114.1410 C.ar  343  PHE343     -0.0042
     73  CE1        2.5950   93.2940  115.6870 C.ar  343  PHE343     -0.0003
     74  CE2        0.9260   91.5880  115.5390 C.ar  343  PHE343     -0.0003
     75  CZ         1.7030   92.4330  116.3020 C.ar  343  PHE343     -0.0000
     76  N          2.9420   93.4910  106.6170 N.3   345  VAL345     -0.1245
     77  CA         3.9330   94.5650  106.4690 C.3   345  VAL345      0.1561
     78  C          4.0810   94.9930  105.0050 C.2   345  VAL345      0.2260
     79  O          4.0150   94.1480  104.1180 O.2   345  VAL345     -0.2867
     80  CB         5.2920   94.1590  107.0940 C.3   345  VAL345      0.0252
     81  CG1        6.2940   95.3060  107.0500 C.3   345  VAL345      0.0019
     82  CG2        5.1100   93.6520  108.5230 C.3   345  VAL345      0.0019
     83  N          6.6210   98.0530  102.7250 N.3   347  ILE347     -0.1245
     84  CA         7.8170   98.9180  102.8260 C.3   347  ILE347      0.1561
     85  C          8.0770   99.7430  101.5560 C.2   347  ILE347      0.2260
     86  O          8.0850   99.1850  100.4660 O.2   347  ILE347     -0.2867
     87  CB         9.0870   98.1220  103.2670 C.3   347  ILE347      0.0252
     88  CG1        8.8640   97.3990  104.6270 C.3   347  ILE347      0.0019
     89  CG2       10.3480   99.0220  103.2800 C.3   347  ILE347      0.0019
     90  CD1        9.8520   96.3550  105.0460 C.3   347  ILE347      0.0001
@<TRIPOS>BOND
     1     5     2    1
     2     1     2    1
     3     2     3    1
     4     3     4    2
     5     3     6   am
     6     6     7    1
     7    17    16    2
     8    16    15    1
     9    12    11    1
    10     7    10    1
    11     7     8    1
    12    14    15    1
    13    14     8   am
    14    15    18    1
    15    10    11    1
    16     8     9    2
    17    11    13    1
    18    86    85    2
    19    18    19    1
    20    20    19    2
    21    19    21   am
    22    85    84    1
    23    83    84    1
    24    84    87    1
    25    87    89    1
    26    87    88    1
    27    79    78    2
    28    27    28    1
    29    27    26    1
    30    28    22    1
    31    88    90    1
    32    78    77    1
    33    26    23    1
    34    22    23    1
    35    77    76    1
    36    77    80    1
    37    23    24    1
    38    81    80    1
    39    80    82    1
    40    24    25    2
    41    35    33    1
    42    43    41   am
    43    42    41    2
    44    68    67    2
    45    33    34    1
    46    33    30    1
    47    41    40    1
    48    67    66    1
    49    30    29    1
    50    30    31    1
    51    40    37    1
    52    66    65    1
    53    66    69    1
    54    36    31   am
    55    36    37    1
    56    65    63   am
    57    64    63    2
    58    63    62    1
    59    31    32    2
    60    37    38    1
    61    62    61    1
    62    69    70    1
    63    51    49    1
    64    49    48    1
    65    38    39    2
    66    70    72   ar
    67    70    71   ar
    68    50    48    1
    69    48    45    1
    70    72    74   ar
    71    71    73   ar
    72    60    59    1
    73    44    45    1
    74    45    46    1
    75    74    75   ar
    76    59    58    1
    77    73    75   ar
    78    46    47    2
    79    58    57    1
    80    57    56    1
    81    56    53    1
    82    52    53    1
    83    53    54    1
    84    54    55    2
