@<TRIPOS>MOLECULE
tmp/4x20C00.pdb
 81 76 0 0 0
SMALL
GASTEIGER

@<TRIPOS>ATOM
      1  N          9.2650   98.0970   94.3150 N.3   239  ALA239     -0.1231
      2  CA         9.5400   96.6460   94.3730 C.3   239  ALA239      0.1694
      3  C          9.5850   96.0770   95.7960 C.2   239  ALA239      0.2592
      4  O          9.1180   94.9510   96.0440 O.2   239  ALA239     -0.2718
      5  CB        10.8550   96.3550   93.6640 C.3   239  ALA239      0.0304
      6  N         10.1540   96.9050   96.7210 N.am  240  LEU240     -0.1966
      7  CA        10.3390   96.7590   98.1770 C.3   240  LEU240      0.1728
      8  C          9.1290   96.0530   98.7910 C.2   240  LEU240      0.2616
      9  O          9.2890   95.0290   99.4670 O.2   240  LEU240     -0.2715
     10  CB        10.5090   98.1680   98.8200 C.3   240  LEU240      0.0311
     11  CG        11.6770   99.0500   98.3530 C.3   240  LEU240      0.0022
     12  CD1       11.2860   99.8820   97.1590 C.3   240  LEU240      0.0001
     13  CD2       12.1650   99.9660   99.4800 C.3   240  LEU240      0.0001
     14  N          7.9220   96.6360   98.5060 N.am  241  ASN241     -0.1972
     15  CA         6.5450   96.2460   98.8070 C.3   241  ASN241      0.1688
     16  C          5.5620   97.2800   98.2080 C.2   241  ASN241      0.2292
     17  O          5.3690   97.2740   97.0000 O.2   241  ASN241     -0.2864
     18  CB         6.2990   95.9860  100.2960 C.3   241  ASN241      0.1181
     19  CG         6.5500   94.5690  100.7760 C.2   241  ASN241      0.2629
     20  OD1        5.6410   93.7280  100.8370 O.2   241  ASN241     -0.2716
     21  ND2        7.7740   94.2930  101.2090 N.am  241  ASN241     -0.0877
     22  N         13.8270   94.3200  105.6800 N.3   317  PRO317     -0.2116
     23  CA        13.0750   93.2670  106.3840 C.3   317  PRO317      0.1372
     24  C         13.6670   92.7960  107.7010 C.2   317  PRO317      0.2244
     25  O         12.9440   92.8050  108.6890 O.2   317  PRO317     -0.2868
     26  CB        12.9980   92.1540  105.3550 C.3   317  PRO317      0.0268
     27  CG        12.9590   92.8620  104.0780 C.3   317  PRO317      0.0207
     28  CD        13.7740   94.1100  104.2200 C.3   317  PRO317      0.0892
     29  N         12.6620   94.8170  110.5940 N.3   320  VAL320     -0.1231
     30  CA        11.1970   94.9620  110.6360 C.3   320  VAL320      0.1692
     31  C         10.6370   93.6930  111.3010 C.2   320  VAL320      0.2592
     32  O          9.7410   93.7550  112.1490 O.2   320  VAL320     -0.2718
     33  CB        10.5980   95.1950  109.2330 C.3   320  VAL320      0.0266
     34  CG1        9.0900   95.3640  109.2970 C.3   320  VAL320      0.0020
     35  CG2       11.2330   96.3990  108.5710 C.3   320  VAL320      0.0020
     36  N         11.2400   92.5490  110.9390 N.am  321  ASN321     -0.1974
     37  CA        10.9340   91.2210  111.4380 C.3   321  ASN321      0.1688
     38  C         11.3720   91.1440  112.8770 C.2   321  ASN321      0.2292
     39  O         10.6660   90.5490  113.6930 O.2   321  ASN321     -0.2864
     40  CB        11.6850   90.1800  110.6090 C.3   321  ASN321      0.1181
     41  CG        11.3060   90.1300  109.1440 C.2   321  ASN321      0.2629
     42  OD1       10.4380   90.8750  108.6520 O.2   321  ASN321     -0.2716
     43  ND2       11.9720   89.2440  108.4090 N.am  321  ASN321     -0.0877
     44  N          8.7760   93.4440  114.7110 N.3   324  ILE324     -0.1245
     45  CA         7.5490   92.6360  114.8290 C.3   324  ILE324      0.1561
     46  C          7.7090   91.4980  115.8660 C.2   324  ILE324      0.2260
     47  O          6.7370   91.1500  116.5370 O.2   324  ILE324     -0.2867
     48  CB         7.0730   92.1620  113.4180 C.3   324  ILE324      0.0252
     49  CG1        6.1540   93.2180  112.7890 C.3   324  ILE324      0.0019
     50  CG2        6.3930   90.7800  113.4300 C.3   324  ILE324      0.0019
     51  CD1        6.6390   93.7660  111.5490 C.3   324  ILE324      0.0001
     52  N         -1.0390   87.9500  112.5080 N.3   342  GLY342     -0.1210
     53  CA        -0.0400   88.4320  111.5640 C.3   342  GLY342      0.1956
     54  C         -0.0900   89.9160  111.2950 C.2   342  GLY342      0.2611
     55  O         -1.1010   90.5730  111.5760 O.2   342  GLY342     -0.2717
     56  N          1.0180   90.4560  110.7530 N.am  343  PHE343     -0.1976
     57  CA         1.1200   91.8850  110.4260 C.3   343  PHE343      0.1639
     58  C          1.4810   92.0810  108.9310 C.2   343  PHE343      0.2290
     59  O          2.5950   91.7320  108.5370 O.2   343  PHE343     -0.2864
     60  CB         2.1600   92.5970  111.3390 C.3   343  PHE343      0.0560
     61  CG         1.9570   92.6420  112.8460 C.ar  343  PHE343     -0.0200
     62  CD1        2.5140   93.6640  113.6060 C.ar  343  PHE343     -0.0042
     63  CD2        1.2970   91.6080  113.5160 C.ar  343  PHE343     -0.0042
     64  CE1        2.3620   93.6870  114.9960 C.ar  343  PHE343     -0.0003
     65  CE2        1.1400   91.6300  114.9080 C.ar  343  PHE343     -0.0003
     66  CZ         1.6740   92.6680  115.6390 C.ar  343  PHE343     -0.0000
     67  N          2.9940   93.8210  106.0940 N.3   345  VAL345     -0.1245
     68  CA         3.9570   94.9090  106.0290 C.3   345  VAL345      0.1561
     69  C          4.2890   95.2850  104.6150 C.2   345  VAL345      0.2260
     70  O          4.6330   94.4140  103.8220 O.2   345  VAL345     -0.2867
     71  CB         5.2210   94.5980  106.8490 C.3   345  VAL345      0.0252
     72  CG1        6.1660   95.7870  106.8610 C.3   345  VAL345      0.0019
     73  CG2        4.8670   94.1930  108.2760 C.3   345  VAL345      0.0019
     74  N          6.6250   98.2170  102.2990 N.3   347  ILE347     -0.1245
     75  CA         7.7250   99.1890  102.3800 C.3   347  ILE347      0.1561
     76  C          7.8470  100.0210  101.0830 C.2   347  ILE347      0.2260
     77  O          7.7140   99.4700   99.9830 O.2   347  ILE347     -0.2867
     78  CB         9.0710   98.5190  102.8340 C.3   347  ILE347      0.0252
     79  CG1        8.9810   97.9510  104.2700 C.3   347  ILE347      0.0019
     80  CG2       10.2800   99.4660  102.7240 C.3   347  ILE347      0.0019
     81  CD1        8.6660   96.4990  104.4040 C.3   347  ILE347      0.0001
@<TRIPOS>BOND
     1     5     2    1
     2     1     2    1
     3     2     3    1
     4     3     4    2
     5     3     6   am
     6     6     7    1
     7    17    16    2
     8    12    11    1
     9     7     8    1
    10     7    10    1
    11    16    15    1
    12    11    10    1
    13    11    13    1
    14    14     8   am
    15    14    15    1
    16     8     9    2
    17    15    18    1
    18    77    76    2
    19    18    19    1
    20    19    20    2
    21    19    21   am
    22    76    75    1
    23    74    75    1
    24    75    78    1
    25    80    78    1
    26    78    79    1
    27    70    69    2
    28    27    28    1
    29    27    26    1
    30    28    22    1
    31    79    81    1
    32    69    68    1
    33    26    23    1
    34    22    23    1
    35    68    67    1
    36    68    71    1
    37    23    24    1
    38    71    72    1
    39    71    73    1
    40    24    25    2
    41    43    41   am
    42    59    58    2
    43    35    33    1
    44    42    41    2
    45    58    57    1
    46    41    40    1
    47    33    34    1
    48    33    30    1
    49    57    56    1
    50    57    60    1
    51    29    30    1
    52    40    37    1
    53    30    31    1
    54    56    54   am
    55    36    31   am
    56    36    37    1
    57    54    53    1
    58    54    55    2
    59    31    32    2
    60    60    61    1
    61    37    38    1
    62    51    49    1
    63    53    52    1
    64    49    48    1
    65    61    63   ar
    66    61    62   ar
    67    38    39    2
    68    48    50    1
    69    48    45    1
    70    63    65   ar
    71    62    64   ar
    72    44    45    1
    73    45    46    1
    74    65    66   ar
    75    64    66   ar
    76    46    47    2
