@<TRIPOS>MOLECULE
tmp/4x20D02.pdb
 150 145 0 0 0
SMALL
GASTEIGER

@<TRIPOS>ATOM
      1  N        -38.6410  156.6270  116.2080 N.3    10  GLN10      -0.1231
      2  CA       -37.6720  157.5690  116.7480 C.3    10  GLN10       0.1698
      3  C        -36.4120  156.8300  117.1090 C.2    10  GLN10       0.2592
      4  O        -35.3650  157.0720  116.4960 O.2    10  GLN10      -0.2718
      5  CB       -38.2480  158.3470  117.9530 C.3    10  GLN10       0.0381
      6  CG       -37.1900  158.9320  118.8950 C.3    10  GLN10       0.0905
      7  CD       -37.7280  160.0940  119.6460 C.2    10  GLN10       0.2608
      8  OE1      -37.6270  161.2420  119.2010 O.2    10  GLN10      -0.2717
      9  NE2      -38.2960  159.8260  120.8030 N.am   10  GLN10      -0.0878
     10  N        -36.5320  155.9110  118.0900 N.am   11  CYS11      -0.1970
     11  CA       -35.4430  155.1090  118.6020 C.3    11  CYS11       0.1712
     12  C        -34.7690  154.3900  117.4580 C.2    11  CYS11       0.2296
     13  O        -33.5570  154.4930  117.2910 O.2    11  CYS11      -0.2864
     14  CB       -35.9580  154.1390  119.6510 C.3    11  CYS11       0.0983
     15  SG       -34.6610  153.2080  120.4850 S.3    11  CYS11      -0.0798
     16  N        -32.7880  156.7190  115.6370 N.3    14  GLN14      -0.1245
     17  CA       -31.7470  157.2450  116.5120 C.3    14  GLN14       0.1566
     18  C        -30.6100  156.2520  116.6680 C.2    14  GLN14       0.2260
     19  O        -29.4540  156.6190  116.4240 O.2    14  GLN14      -0.2867
     20  CB       -32.2920  157.7470  117.8660 C.3    14  GLN14       0.0367
     21  CG       -33.0600  159.0550  117.7730 C.3    14  GLN14       0.0905
     22  CD       -32.2050  160.2390  117.3600 C.2    14  GLN14       0.2608
     23  OE1      -30.9590  160.1930  117.3580 O.2    14  GLN14      -0.2717
     24  NE2      -32.8600  161.3510  117.0340 N.am   14  GLN14      -0.0878
     25  N        -37.5540  162.9390  113.6290 N.3    71  THR71      -0.1218
     26  CA       -36.2310  162.2970  113.7080 C.3    71  THR71       0.1862
     27  C        -35.6040  162.1990  112.3330 C.2    71  THR71       0.2287
     28  O        -34.4050  162.4220  112.1920 O.2    71  THR71      -0.2866
     29  CB       -36.2970  160.9250  114.4030 C.3    71  THR71       0.1770
     30  OG1      -37.3590  160.1450  113.8440 O.3    71  THR71      -0.2211
     31  CG2      -36.4380  161.0400  115.9100 C.3    71  THR71       0.0375
     32  N        -33.8720  165.2760  111.6780 N.3    74  SER74      -0.1217
     33  CA       -32.7470  165.3780  112.6160 C.3    74  SER74       0.1889
     34  C        -31.5470  164.5600  112.1010 C.2    74  SER74       0.2288
     35  O        -30.3960  164.9550  112.2850 O.2    74  SER74      -0.2866
     36  CB       -33.1770  164.9020  114.0080 C.3    74  SER74       0.2089
     37  OG       -32.1230  164.4360  114.8410 O.3    74  SER74      -0.2183
     38  N        -39.8780  151.7760  132.8150 N.3   172  PRO172     -0.2102
     39  CA       -40.6440  152.8580  133.4760 C.3   172  PRO172      0.1504
     40  C        -39.7150  153.9700  133.9710 C.2   172  PRO172      0.2576
     41  O        -40.1450  155.1000  134.1780 O.2   172  PRO172     -0.2718
     42  CB       -41.3300  152.1440  134.6450 C.3   172  PRO172      0.0282
     43  CG       -40.5090  150.8910  134.8800 C.3   172  PRO172      0.0208
     44  CD       -39.9460  150.4980  133.5680 C.3   172  PRO172      0.0893
     45  N        -38.4180  153.6040  134.1290 N.am  173  LYS173     -0.1966
     46  CA       -37.2650  154.3800  134.5690 C.3   173  LYS173      0.1728
     47  C        -36.8110  155.2950  133.4860 C.2   173  LYS173      0.2616
     48  O        -36.0240  156.1810  133.7740 O.2   173  LYS173     -0.2715
     49  CB       -36.0890  153.4560  134.9660 C.3   173  LYS173      0.0311
     50  CG       -36.2070  152.8100  136.3570 C.3   173  LYS173      0.0038
     51  CD       -35.1070  151.7550  136.6110 C.3   173  LYS173      0.0206
     52  CE       -35.2250  151.0810  137.9670 C.3   173  LYS173      0.1093
     53  NZ       -34.1670  150.0540  138.1940 N.3   173  LYS173     -0.1314
     54  N        -37.2590  155.0890  132.2420 N.am  174  VAL174     -0.1963
     55  CA       -36.8610  155.9710  131.1360 C.3   174  VAL174      0.1727
     56  C        -38.0300  156.6650  130.4000 C.2   174  VAL174      0.2617
     57  O        -37.7850  157.5160  129.5310 O.2   174  VAL174     -0.2715
     58  CB       -35.8510  155.3360  130.1500 C.3   174  VAL174      0.0290
     59  CG1      -34.7100  154.6380  130.8900 C.3   174  VAL174      0.0023
     60  CG2      -36.5560  154.3890  129.1780 C.3   174  VAL174      0.0023
     61  N        -39.2900  156.2690  130.7130 N.am  175  SER175     -0.1936
     62  CA       -40.4750  156.8050  130.0410 C.3   175  SER175      0.2055
     63  C        -41.7660  156.7570  130.8620 C.2   175  SER175      0.2643
     64  O        -42.0010  155.8140  131.6220 O.2   175  SER175     -0.2714
     65  CB       -40.6800  156.1100  128.7030 C.3   175  SER175      0.2130
     66  OG       -41.7950  156.6450  128.0180 O.3   175  SER175     -0.2179
     67  N        -42.6040  157.8030  130.6730 N.am  176  ASP176     -0.1971
     68  CA       -43.9170  158.0060  131.2910 C.3   176  ASP176      0.1709
     69  C        -45.0760  157.7590  130.3300 C.2   176  ASP176      0.2293
     70  O        -46.2170  158.0650  130.7010 O.2   176  ASP176     -0.2864
     71  CB       -44.0420  159.3920  131.9440 C.3   176  ASP176      0.1436
     72  CG       -43.3780  159.4420  133.3000 C.2   176  ASP176      0.3671
     73  OD1      -44.0300  159.0370  134.3010 O.co2 176  ASP176     -0.2456
     74  OD2      -42.1890  159.8260  133.3620 O.co2 176  ASP176     -0.2456
     75  N        -30.0120  152.5150  131.2450 N.3   207  TYR207     -0.1241
     76  CA       -30.0720  153.6080  132.2090 C.3   207  TYR207      0.1605
     77  C        -29.2030  153.3220  133.4080 C.2   207  TYR207      0.2264
     78  O        -28.2850  154.0790  133.6900 O.2   207  TYR207     -0.2867
     79  CB       -31.5240  153.9150  132.6190 C.3   207  TYR207      0.0534
     80  CG       -31.6690  155.0360  133.6340 C.ar  207  TYR207     -0.0201
     81  CD1      -31.5180  154.7930  135.0000 C.ar  207  TYR207     -0.0009
     82  CD2      -31.9940  156.3290  133.2350 C.ar  207  TYR207     -0.0009
     83  CE1      -31.6670  155.8130  135.9400 C.ar  207  TYR207      0.0417
     84  CE2      -32.1460  157.3580  134.1660 C.ar  207  TYR207      0.0417
     85  CZ       -31.9870  157.0930  135.5200 C.ar  207  TYR207      0.1957
     86  OH       -32.1300  158.0890  136.4600 O.3   207  TYR207     -0.2866
     87  N        -28.1740  162.5700  135.1790 N.3   218  THR218     -0.1204
     88  CA       -29.3540  162.6900  134.3560 C.3   218  THR218      0.1979
     89  C        -28.9620  162.2150  132.9740 C.2   218  THR218      0.2460
     90  O        -28.4980  163.0110  132.1370 O.2   218  THR218     -0.2732
     91  CB       -29.8680  164.1030  134.4590 C.3   218  THR218      0.1783
     92  OG1      -28.7680  164.9740  134.1900 O.3   218  THR218     -0.2211
     93  CG2      -30.4500  164.4030  135.8410 C.3   218  THR218      0.0376
     94  N        -29.0220  160.8790  132.7460 N.am  219  PRO219     -0.2717
     95  CA       -28.5710  160.3590  131.4600 C.3   219  PRO219      0.1536
     96  C        -29.4510  160.8150  130.3130 C.2   219  PRO219      0.2599
     97  O        -30.6720  160.7890  130.4190 O.2   219  PRO219     -0.2715
     98  CB       -28.5590  158.8390  131.6670 C.3   219  PRO219      0.0310
     99  CG       -28.6750  158.6340  133.1440 C.3   219  PRO219      0.0237
    100  CD       -29.4820  159.7790  133.6180 C.3   219  PRO219      0.0939
    101  N        -28.8080  161.3130  129.2570 N.am  220  THR220     -0.1937
    102  CA       -29.4400  161.7340  128.0110 C.3   220  THR220      0.2028
    103  C        -29.5970  160.4880  127.0890 C.2   220  THR220      0.2642
    104  O        -29.1280  159.3900  127.4290 O.2   220  THR220     -0.2714
    105  CB       -28.7580  163.0060  127.4080 C.3   220  THR220      0.1808
    106  OG1      -28.5430  162.8280  126.0280 O.3   220  THR220     -0.2208
    107  CG2      -27.4140  163.3410  128.0320 C.3   220  THR220      0.0379
    108  N        -30.2980  160.6360  125.9600 N.am  221  TYR221     -0.1959
    109  CA       -30.4460  159.5140  125.0440 C.3   221  TYR221      0.1771
    110  C        -29.1350  159.2040  124.4250 C.2   221  TYR221      0.2620
    111  O        -28.7800  158.0340  124.3460 O.2   221  TYR221     -0.2715
    112  CB       -31.5340  159.7250  123.9890 C.3   221  TYR221      0.0574
    113  CG       -32.8510  159.1930  124.4850 C.ar  221  TYR221     -0.0198
    114  CD1      -33.9610  160.0220  124.5870 C.ar  221  TYR221     -0.0009
    115  CD2      -32.9510  157.9010  124.9990 C.ar  221  TYR221     -0.0009
    116  CE1      -35.1570  159.5650  125.1290 C.ar  221  TYR221      0.0417
    117  CE2      -34.1310  157.4410  125.5700 C.ar  221  TYR221      0.0417
    118  CZ       -35.2380  158.2730  125.6230 C.ar  221  TYR221      0.1957
    119  OH       -36.4160  157.8240  126.1710 O.3   221  TYR221     -0.2866
    120  N        -28.3850  160.2550  124.0980 N.am  222  GLY222     -0.1954
    121  CA       -27.0350  160.1550  123.5660 C.3   222  GLY222      0.1869
    122  C        -26.1670  159.2740  124.4300 C.2   222  GLY222      0.2309
    123  O        -25.4270  158.4350  123.9150 O.2   222  GLY222     -0.2863
    124  N        -27.2750  156.8040  126.3550 N.3   224  LEU224     -0.1231
    125  CA       -27.7840  155.4320  126.1960 C.3   224  LEU224      0.1693
    126  C        -27.4210  154.8920  124.8170 C.2   224  LEU224      0.2592
    127  O        -26.6910  153.9140  124.7210 O.2   224  LEU224     -0.2718
    128  CB       -29.3120  155.3370  126.4120 C.3   224  LEU224      0.0284
    129  CG       -29.9510  156.0040  127.6410 C.3   224  LEU224      0.0019
    130  CD1      -31.4290  155.8090  127.6060 C.3   224  LEU224      0.0001
    131  CD2      -29.4430  155.4310  128.9590 C.3   224  LEU224      0.0001
    132  N        -27.9010  155.5540  123.7570 N.am  225  ASN225     -0.1974
    133  CA       -27.6560  155.2280  122.3540 C.3   225  ASN225      0.1688
    134  C        -26.2320  154.8360  122.0600 C.2   225  ASN225      0.2292
    135  O        -26.0140  153.9280  121.2650 O.2   225  ASN225     -0.2864
    136  CB       -28.0860  156.3790  121.4820 C.3   225  ASN225      0.1181
    137  CG       -29.5730  156.5840  121.5170 C.2   225  ASN225      0.2629
    138  OD1      -30.2940  155.9290  122.2890 O.2   225  ASN225     -0.2716
    139  ND2      -30.0620  157.4870  120.6690 N.am  225  ASN225     -0.0877
    140  N        -20.0940  158.2540  126.8120 N.3   275  ARG275     -0.1245
    141  CA       -20.1060  158.7640  125.4320 C.3   275  ARG275      0.1563
    142  C        -19.0300  159.8150  125.2500 C.2   275  ARG275      0.2260
    143  O        -18.9120  160.6960  126.0980 O.2   275  ARG275     -0.2867
    144  CB       -21.5040  159.3200  125.0930 C.3   275  ARG275      0.0307
    145  CG       -21.6720  160.0270  123.7460 C.3   275  ARG275      0.0489
    146  CD       -23.0070  160.7770  123.6490 C.3   275  ARG275      0.2205
    147  NE       -23.4160  161.4290  124.9080 N.pl3 275  ARG275     -0.0865
    148  CZ       -24.2560  162.4620  124.9950 C.cat 275  ARG275      0.5346
    149  NH1      -24.7870  162.9920  123.8970 N.pl3 275  ARG275      0.1354
    150  NH2      -24.5560  162.9840  126.1780 N.pl3 275  ARG275      0.1354
@<TRIPOS>BOND
     1    32    33    1
     2    34    35    2
     3    34    33    1
     4    28    27    2
     5    27    26    1
     6    33    36    1
     7    25    26    1
     8    26    29    1
     9    30    29    1
    10    36    37    1
    11    29    31    1
    12    16    17    1
    13     1     2    1
    14    19    18    2
    15     4     3    2
    16    17    18    1
    17    17    20    1
    18     2     3    1
    19     2     5    1
    20    24    22   am
    21     3    10   am
    22    13    12    2
    23    23    22    2
    24    22    21    1
    25    12    11    1
    26    21    20    1
    27     5     6    1
    28    10    11    1
    29    11    14    1
    30     6     7    1
    31     8     7    2
    32     7     9   am
    33    14    15    1
    34   139   137   am
    35   135   134    2
    36   136   137    1
    37   136   133    1
    38   137   138    2
    39   134   133    1
    40   133   132    1
    41   121   120    1
    42   121   122    1
    43   146   145    1
    44   146   147    1
    45   145   144    1
    46   132   126   am
    47   149   148    1
    48   123   122    2
    49   112   113    1
    50   112   109    1
    51   120   110   am
    52   111   110    2
    53   110   109    1
    54   113   114   ar
    55   113   115   ar
    56   114   116   ar
    57   127   126    2
    58   126   125    1
    59   147   148    2
    60   148   150    1
    61   115   117   ar
    62   109   108    1
    63   144   141    1
    64   116   118   ar
    65   142   141    1
    66   142   143    2
    67   141   140    1
    68   117   118   ar
    69   118   119    1
    70   108   103   am
    71   106   105    1
    72   125   124    1
    73   125   128    1
    74   128   129    1
    75   103   104    2
    76   103   102    1
    77   105   102    1
    78   105   107    1
    79   130   129    1
    80   129   131    1
    81   102   101    1
    82    66    65    1
    83    65    62    1
    84    60    58    1
    85   101    96   am
    86    57    56    2
    87    62    61    1
    88    62    63    1
    89    58    59    1
    90    58    55    1
    91    96    97    2
    92    96    95    1
    93    69    70    2
    94    69    68    1
    95    56    61   am
    96    56    55    1
    97    67    63   am
    98    67    68    1
    99    63    64    2
   100    55    54    1
   101    75    76    1
   102    68    71    1
   103    95    98    1
   104    95    94    1
   105    98    99    1
   106    71    72    1
   107    90    89    2
   108    76    79    1
   109    76    77    1
   110    54    47   am
   111    79    80    1
   112    94    89   am
   113    94   100    1
   114    38    39    1
   115    38    44    1
   116    89    88    1
   117    99   100    1
   118    82    80   ar
   119    82    84   ar
   120    72    74   ar
   121    72    73   ar
   122    77    78    2
   123    39    40    1
   124    39    42    1
   125    47    48    2
   126    47    46    1
   127    44    43    1
   128    80    81   ar
   129    40    45   am
   130    40    41    2
   131    45    46    1
   132    84    85   ar
   133    92    91    1
   134    88    91    1
   135    88    87    1
   136    91    93    1
   137    46    49    1
   138    42    43    1
   139    49    50    1
   140    81    83   ar
   141    85    83   ar
   142    85    86    1
   143    50    51    1
   144    51    52    1
   145    52    53    1
