@<TRIPOS>MOLECULE
tmp/4x28A00.pdb
 180 172 0 0 0
SMALL
GASTEIGER

@<TRIPOS>ATOM
      1  N         77.0520  101.0740   13.5450 N.3    82  LEU82      -0.1245
      2  CA        76.2660  102.2610   13.3350 C.3    82  LEU82       0.1561
      3  C         77.0130  103.2140   12.3980 C.2    82  LEU82       0.2260
      4  O         76.3970  103.9050   11.6200 O.2    82  LEU82      -0.2867
      5  CB        75.9070  102.9360   14.6480 C.3    82  LEU82       0.0270
      6  CG        74.9740  102.0500   15.4940 C.3    82  LEU82       0.0019
      7  CD1       74.7220  102.6630   16.8690 C.3    82  LEU82       0.0001
      8  CD2       73.7080  101.7670   14.7150 C.3    82  LEU82       0.0001
      9  N         77.3290  108.1160   18.1260 N.3   115  ILE115     -0.1245
     10  CA        75.9710  108.5250   17.8370 C.3   115  ILE115      0.1561
     11  C         75.4230  109.3600   19.0030 C.2   115  ILE115      0.2260
     12  O         75.2380  108.8680   20.1330 O.2   115  ILE115     -0.2867
     13  CB        75.0820  107.3030   17.6470 C.3   115  ILE115      0.0252
     14  CG1       75.6200  106.3980   16.5370 C.3   115  ILE115      0.0019
     15  CG2       73.6280  107.7550   17.4200 C.3   115  ILE115      0.0019
     16  CD1       75.8320  107.0600   15.1860 C.3   115  ILE115      0.0001
     17  N         72.2960  110.7500   19.7480 N.3   117  TYR117     -0.1227
     18  CA        70.8390  110.9500   19.6720 C.3   117  TYR117      0.1736
     19  C         70.1070  111.2050   20.9980 C.2   117  TYR117      0.2596
     20  O         69.5110  112.2650   21.2010 O.2   117  TYR117     -0.2718
     21  CB        70.1870  109.7600   18.9760 C.3   117  TYR117      0.0548
     22  CG        70.5460  109.5000   17.5080 C.ar  117  TYR117     -0.0200
     23  CD1       71.1430  110.4730   16.7050 C.ar  117  TYR117     -0.0009
     24  CD2       70.1910  108.3150   16.9040 C.ar  117  TYR117     -0.0009
     25  CE1       71.4450  110.2210   15.4000 C.ar  117  TYR117      0.0417
     26  CE2       70.4510  108.0910   15.5610 C.ar  117  TYR117      0.0417
     27  CZ        71.1080  109.0520   14.8280 C.ar  117  TYR117      0.1957
     28  OH        71.3740  108.8520   13.4880 O.3   117  TYR117     -0.2866
     29  N         70.1880  110.2300   21.9070 N.am  118  SER118     -0.1938
     30  CA        69.4770  110.2370   23.1570 C.3   118  SER118      0.2055
     31  C         69.9130  111.3000   24.1450 C.2   118  SER118      0.2643
     32  O         71.0400  111.7390   24.1690 O.2   118  SER118     -0.2714
     33  CB        69.5990  108.8810   23.8560 C.3   118  SER118      0.2130
     34  OG        69.4330  107.8680   22.9320 O.3   118  SER118     -0.2179
     35  N         68.9450  111.7300   24.9240 N.am  119  GLU119     -0.1963
     36  CA        69.1590  112.6260   26.0500 C.3   119  GLU119      0.1718
     37  C         68.4900  112.1160   27.3130 C.2   119  GLU119      0.2458
     38  O         67.6190  111.2470   27.2150 O.2   119  GLU119     -0.2730
     39  CB        68.5390  113.9970   25.6750 C.3   119  GLU119      0.0428
     40  CG        69.0920  114.5320   24.3430 C.3   119  GLU119      0.1163
     41  CD        68.6400  115.9470   23.9450 C.2   119  GLU119      0.3649
     42  OE1       67.7410  116.4890   24.6020 O.co2 119  GLU119     -0.2457
     43  OE2       69.1720  116.4980   22.9320 O.co2 119  GLU119     -0.2457
     44  N         68.7550  112.7710   28.4650 N.am  120  PRO120     -0.2727
     45  CA        68.0580  112.4200   29.6970 C.3   120  PRO120      0.1402
     46  C         66.5530  112.5200   29.5500 C.2   120  PRO120      0.2269
     47  O         65.8520  111.6130   29.9920 O.2   120  PRO120     -0.2865
     48  CB        68.5840  113.4370   30.7220 C.3   120  PRO120      0.0296
     49  CG        69.9680  113.7500   30.2100 C.3   120  PRO120      0.0237
     50  CD        69.8200  113.7720   28.7210 C.3   120  PRO120      0.0939
     51  N         64.5260  109.4760   25.3340 N.3   123  GLY123     -0.1210
     52  CA        65.0300  108.1190   25.2240 C.3   123  GLY123      0.1956
     53  C         64.2450  107.4490   24.1380 C.2   123  GLY123      0.2613
     54  O         64.5210  107.6630   22.9920 O.2   123  GLY123     -0.2717
     55  N         63.1870  106.7260   24.5180 N.am  124  THR124     -0.1938
     56  CA        62.2720  106.1870   23.5660 C.3   124  THR124      0.2028
     57  C         61.6320  107.2730   22.7340 C.2   124  THR124      0.2642
     58  O         61.4110  107.0980   21.5500 O.2   124  THR124     -0.2714
     59  CB        61.1490  105.3810   24.3150 C.3   124  THR124      0.1808
     60  OG1       61.7950  104.3470   25.0580 O.3   124  THR124     -0.2208
     61  CG2       60.1800  104.8080   23.3170 C.3   124  THR124      0.0379
     62  N         61.3000  108.3920   23.3600 N.am  125  ASP125     -0.1971
     63  CA        60.6960  109.5050   22.6550 C.3   125  ASP125      0.1709
     64  C         61.7770  110.4510   22.1280 C.2   125  ASP125      0.2293
     65  O         62.0360  111.5300   22.7080 O.2   125  ASP125     -0.2864
     66  CB        59.7690  110.2530   23.6040 C.3   125  ASP125      0.1436
     67  CG        58.9870  111.3670   22.9370 C.2   125  ASP125      0.3671
     68  OD1       59.0470  111.5400   21.7070 O.co2 125  ASP125     -0.2456
     69  OD2       58.3470  112.1300   23.6930 O.co2 125  ASP125     -0.2456
     70  N         74.1430  108.3850   26.9270 N.3   147  TRP147     -0.1241
     71  CA        74.4250  107.0570   26.3430 C.3   147  TRP147      0.1605
     72  C         75.2180  107.2240   25.0520 C.2   147  TRP147      0.2264
     73  O         75.0960  106.4150   24.1030 O.2   147  TRP147     -0.2867
     74  CB        73.1500  106.2460   26.0570 C.3   147  TRP147      0.0550
     75  CG        72.0190  106.4080   27.0990 C.ar  147  TRP147      0.0003
     76  CD1       70.8120  106.9930   26.8990 C.ar  147  TRP147      0.0946
     77  CD2       71.9930  105.9000   28.4380 C.ar  147  TRP147      0.0152
     78  NE1       70.0620  106.9290   28.0500 N.ar  147  TRP147     -0.2442
     79  CE2       70.7680  106.2460   28.9960 C.ar  147  TRP147      0.0810
     80  CE3       72.8870  105.1790   29.2050 C.ar  147  TRP147      0.0012
     81  CZ2       70.4270  105.9550   30.3260 C.ar  147  TRP147      0.0191
     82  CZ3       72.5510  104.8690   30.4810 C.ar  147  TRP147      0.0001
     83  CH2       71.3200  105.2940   31.0480 C.ar  147  TRP147      0.0015
     84  N         77.8730  106.2180   23.1770 N.3   149  SER149     -0.1217
     85  CA        78.7950  105.1180   23.2190 C.3   149  SER149      0.1889
     86  C         80.0410  105.3270   22.3410 C.2   149  SER149      0.2288
     87  O         79.9660  106.0250   21.3000 O.2   149  SER149     -0.2866
     88  CB        78.0670  103.8210   22.8300 C.3   149  SER149      0.2089
     89  OG        77.0310  103.5750   23.7740 O.3   149  SER149     -0.2183
     90  N         77.7290  100.3590   33.0620 N.3   195  THR195     -0.1218
     91  CA        76.4990   99.5890   33.1320 C.3   195  THR195      0.1862
     92  C         76.7620   98.1800   33.6590 C.2   195  THR195      0.2287
     93  O         77.8580   97.6590   33.5030 O.2   195  THR195     -0.2866
     94  CB        75.7790   99.5130   31.7580 C.3   195  THR195      0.1770
     95  OG1       76.4020   98.5190   30.9380 O.3   195  THR195     -0.2211
     96  CG2       75.8000  100.8600   31.0450 C.3   195  THR195      0.0375
     97  N         78.7910   96.8330   28.6570 N.3   198  PRO198     -0.2116
     98  CA        79.4560   97.9820   27.9810 C.3   198  PRO198      0.1372
     99  C         79.4350   99.2770   28.7860 C.2   198  PRO198      0.2244
    100  O         78.4730   99.5540   29.5440 O.2   198  PRO198     -0.2868
    101  CB        78.6430   98.1750   26.6520 C.3   198  PRO198      0.0268
    102  CG        77.4460   97.3080   26.7570 C.3   198  PRO198      0.0207
    103  CD        77.6660   96.2880   27.8780 C.3   198  PRO198      0.0892
    104  N         79.5780  103.4710   28.4490 N.3   200  THR200     -0.1218
    105  CA        79.0750  104.4720   27.5110 C.3   200  THR200      0.1862
    106  C         79.3980  105.8440   28.1520 C.2   200  THR200      0.2287
    107  O         80.3150  105.9320   28.9880 O.2   200  THR200     -0.2866
    108  CB        77.5770  104.2300   27.1520 C.3   200  THR200      0.1770
    109  OG1       77.1270  105.2090   26.2240 O.3   200  THR200     -0.2211
    110  CG2       76.7040  104.3040   28.3550 C.3   200  THR200      0.0375
    111  N         70.1680   95.2760   27.3920 N.3   351  ILE351     -0.1245
    112  CA        70.0860   96.5920   26.7260 C.3   351  ILE351      0.1561
    113  C         69.2430   96.5410   25.4530 C.2   351  ILE351      0.2260
    114  O         68.7310   97.5320   25.0880 O.2   351  ILE351     -0.2867
    115  CB        71.4880   97.0330   26.3220 C.3   351  ILE351      0.0252
    116  CG1       72.3080   97.2900   27.5780 C.3   351  ILE351      0.0019
    117  CG2       71.4240   98.2960   25.5080 C.3   351  ILE351      0.0019
    118  CD1       73.7900   97.2210   27.2170 C.3   351  ILE351      0.0001
    119  N         64.9650   97.3100   25.4210 N.3   354  PHE354     -0.1227
    120  CA        64.5130   98.7450   25.4390 C.3   354  PHE354      0.1736
    121  C         65.3170   99.6340   24.4260 C.2   354  PHE354      0.2596
    122  O         64.8790  100.6940   24.0910 O.2   354  PHE354     -0.2718
    123  CB        64.5670   99.3330   26.8280 C.3   354  PHE354      0.0547
    124  CG        65.9630   99.3550   27.4470 C.ar  354  PHE354     -0.0202
    125  CD1       66.8610  100.3830   27.1440 C.ar  354  PHE354     -0.0042
    126  CD2       66.3320   98.4210   28.3980 C.ar  354  PHE354     -0.0042
    127  CE1       68.0950  100.4440   27.7190 C.ar  354  PHE354     -0.0003
    128  CE2       67.5900   98.4920   29.0020 C.ar  354  PHE354     -0.0003
    129  CZ        68.4830   99.4970   28.6460 C.ar  354  PHE354     -0.0000
    130  N         66.4920   99.1800   24.0220 N.am  355  GLY355     -0.1942
    131  CA        67.3310   99.8420   22.9760 C.3   355  GLY355      0.2014
    132  C         66.7360   99.5940   21.5790 C.2   355  GLY355      0.2639
    133  O         65.9570   98.6400   21.3720 O.2   355  GLY355     -0.2714
    134  N         67.0620  100.4600   20.6300 N.am  356  GLY356     -0.1939
    135  CA        66.7400  100.1980   19.2400 C.3   356  GLY356      0.2014
    136  C         65.2350  100.2790   19.0340 C.2   356  GLY356      0.2639
    137  O         64.7000   99.6330   18.1420 O.2   356  GLY356     -0.2714
    138  N         64.5710  101.0970   19.8490 N.am  357  GLY357     -0.1939
    139  CA        63.1180  101.1980   19.8540 C.3   357  GLY357      0.2014
    140  C         62.5720  100.0810   20.7660 C.2   357  GLY357      0.2639
    141  O         62.5880   98.8950   20.4380 O.2   357  GLY357     -0.2714
    142  N         62.0860  100.4930   21.9280 N.am  358  THR358     -0.1950
    143  CA        61.6080   99.5970   22.9480 C.3   358  THR358      0.1897
    144  C         60.5000   98.6970   22.4750 C.2   358  THR358      0.2313
    145  O         59.6570   99.0660   21.6670 O.2   358  THR358     -0.2863
    146  CB        61.2360  100.3450   24.2580 C.3   358  THR358      0.1794
    147  OG1       61.2270   99.3870   25.3220 O.3   358  THR358     -0.2208
    148  CG2       59.8950  101.0700   24.1510 C.3   358  THR358      0.0378
    149  N         57.6230   97.6320   23.4190 N.3   360  GLU360     -0.1231
    150  CA        56.2320   97.9880   23.4110 C.3   360  GLU360      0.1699
    151  C         55.9030   98.8190   22.1730 C.2   360  GLU360      0.2592
    152  O         54.7920   98.6870   21.5870 O.2   360  GLU360     -0.2718
    153  CB        55.7920   98.7880   24.6570 C.3   360  GLU360      0.0402
    154  CG        55.9240   98.0780   26.0230 C.3   360  GLU360      0.1161
    155  CD        57.2830   98.2430   26.6720 C.2   360  GLU360      0.3649
    156  OE1       58.3300   98.5280   25.9860 O.co2 360  GLU360     -0.2457
    157  OE2       57.3340   98.0250   27.8820 O.co2 360  GLU360     -0.2457
    158  N         56.8090   99.7150   21.8130 N.am  361  VAL361     -0.1980
    159  CA        56.6110  100.5130   20.6320 C.3   361  VAL361      0.1595
    160  C         56.7190   99.6550   19.3380 C.2   361  VAL361      0.2287
    161  O         55.9590   99.8640   18.3670 O.2   361  VAL361     -0.2864
    162  CB        57.5860  101.6770   20.6050 C.3   361  VAL361      0.0276
    163  CG1       57.5280  102.3880   19.2670 C.3   361  VAL361      0.0022
    164  CG2       57.2300  102.6720   21.7140 C.3   361  VAL361      0.0022
    165  N         53.4380   97.9820   18.9400 N.3   364  ASP364     -0.1239
    166  CA        52.4850   98.9460   18.3640 C.3   364  ASP364      0.1674
    167  C         52.6420   99.0460   16.8180 C.2   364  ASP364      0.2266
    168  O         51.6620   99.0860   16.1030 O.2   364  ASP364     -0.2867
    169  CB        52.6660  100.3510   18.9370 C.3   364  ASP364      0.1410
    170  CG        52.2460  100.4670   20.4140 C.2   364  ASP364      0.3668
    171  OD1       51.4200   99.6580   20.8980 O.co2 364  ASP364     -0.2456
    172  OD2       52.7310  101.4290   21.0730 O.co2 364  ASP364     -0.2456
    173  N         46.9970  105.5580   21.7830 N.3   376  ASN376     -0.1240
    174  CA        47.4410  106.6130   22.7210 C.3   376  ASN376      0.1653
    175  C         46.9810  108.0020   22.2970 C.2   376  ASN376      0.2266
    176  O         47.1480  108.3770   21.1420 O.2   376  ASN376     -0.2867
    177  CB        48.9680  106.5760   22.8810 C.3   376  ASN376      0.1155
    178  CG        50.0980  107.1180   22.0890 C.2   376  ASN376      0.2627
    179  OD1       49.6380  106.6440   21.0410 O.2   376  ASN376     -0.2716
    180  ND2       50.7810  107.9120   22.2820 N.am  376  ASN376     -0.0877
@<TRIPOS>BOND
     1     4     3    2
     2     3     2    1
     3     2     1    1
     4     2     5    1
     5    28    27    1
     6     5     6    1
     7     8     6    1
     8    27    25   ar
     9    27    26   ar
    10    16    14    1
    11    25    23   ar
    12     6     7    1
    13    26    24   ar
    14   168   167    2
    15    14    13    1
    16    23    22   ar
    17   167   166    1
    18    24    22   ar
    19    15    13    1
    20    22    21    1
    21    13    10    1
    22    10     9    1
    23    10    11    1
    24   137   136    2
    25   166   169    1
    26   166   165    1
    27   161   160    2
    28   169   170    1
    29    21    18    1
    30    11    12    2
    31   136   135    1
    32   136   138   am
    33   135   134    1
    34   163   162    1
    35   160   159    1
    36    18    17    1
    37    18    19    1
    38   138   139    1
    39   139   140    1
    40   170   171   ar
    41   170   172   ar
    42   141   140    2
    43   162   159    1
    44   162   164    1
    45   134   132   am
    46   159   158    1
    47   140   142   am
    48    19    20    2
    49    19    29   am
    50   179   178    2
    51   176   175    2
    52    87    86    2
    53   133   132    2
    54    58    57    2
    55   132   131    1
    56   152   151    2
    57   145   144    2
    58    68    67   ar
    59   173   174    1
    60   158   151   am
    61    29    30    1
    62   142   143    1
    63   178   180   am
    64   178   177    1
    65    64    63    1
    66    64    65    2
    67   151   150    1
    68   175   174    1
    69    86    85    1
    70   144   143    1
    71    63    62    1
    72    63    66    1
    73   174   177    1
    74    57    62   am
    75    57    56    1
    76    88    85    1
    77    88    89    1
    78    34    33    1
    79    43    41   ar
    80    67    66    1
    81    67    69   ar
    82   143   146    1
    83   131   130    1
    84    54    53    2
    85    30    33    1
    86    30    31    1
    87    84    85    1
    88    61    59    1
    89   150   149    1
    90   150   153    1
    91    56    59    1
    92    56    55    1
    93    41    40    1
    94    41    42   ar
    95   130   121   am
    96   122   121    2
    97    73    72    2
    98    53    55   am
    99    53    52    1
   100    31    32    2
   101    31    35   am
   102   148   146    1
   103   146   147    1
   104    59    60    1
   105    40    39    1
   106   121   120    1
   107   153   154    1
   108    35    36    1
   109    72    71    1
   110   114   113    2
   111    52    51    1
   112   119   120    1
   113   120   123    1
   114   113   112    1
   115   117   115    1
   116    39    36    1
   117   156   155   ar
   118   154   155    1
   119    36    37    1
   120    74    71    1
   121    74    75    1
   122   109   108    1
   123   115   112    1
   124   115   116    1
   125    71    70    1
   126   101   102    1
   127   101    98    1
   128   155   157   ar
   129   112   111    1
   130   102   103    1
   131   123   124    1
   132    76    75   ar
   133    76    78   ar
   134    75    77   ar
   135   125   124   ar
   136   125   127   ar
   137   108   105    1
   138   108   110    1
   139    38    37    2
   140   118   116    1
   141    37    44   am
   142   124   126   ar
   143   105   106    1
   144   105   104    1
   145   127   129   ar
   146   103    97    1
   147    98    97    1
   148    98    99    1
   149    78    79   ar
   150   106   107    2
   151   126   128   ar
   152    77    79   ar
   153    77    80   ar
   154    44    50    1
   155    44    45    1
   156   129   128   ar
   157    50    49    1
   158    99   100    2
   159    79    81   ar
   160    80    82   ar
   161    46    45    1
   162    46    47    2
   163    45    48    1
   164    49    48    1
   165    81    83   ar
   166    82    83   ar
   167    95    94    1
   168    96    94    1
   169    94    91    1
   170    90    91    1
   171    91    92    1
   172    93    92    2
