@<TRIPOS>MOLECULE
tmp/4x28D00.pdb
 123 120 0 0 0
SMALL
GASTEIGER

@<TRIPOS>ATOM
      1  N         37.9030   92.1710   13.8240 N.3   244  TYR244     -0.1241
      2  CA        36.9630   92.4150   14.8930 C.3   244  TYR244      0.1605
      3  C         37.3900   93.5380   15.7940 C.2   244  TYR244      0.2264
      4  O         36.6100   94.4060   16.1750 O.2   244  TYR244     -0.2867
      5  CB        36.7420   91.1530   15.7220 C.3   244  TYR244      0.0534
      6  CG        35.5810   91.2400   16.6540 C.ar  244  TYR244     -0.0201
      7  CD1       34.2890   91.2070   16.1690 C.ar  244  TYR244     -0.0009
      8  CD2       35.7710   91.3620   18.0330 C.ar  244  TYR244     -0.0009
      9  CE1       33.1820   91.2900   17.0350 C.ar  244  TYR244      0.0417
     10  CE2       34.6730   91.4160   18.8950 C.ar  244  TYR244      0.0417
     11  CZ        33.3810   91.3880   18.3780 C.ar  244  TYR244      0.1957
     12  OH        32.3390   91.4800   19.2320 O.3   244  TYR244     -0.2866
     13  N         34.7820   96.4360   16.4940 N.3   248  ARG248     -0.1245
     14  CA        34.0310   96.3040   17.7350 C.3   248  ARG248      0.1563
     15  C         34.4080   97.4580   18.6620 C.2   248  ARG248      0.2260
     16  O         35.5630   97.5870   19.0450 O.2   248  ARG248     -0.2867
     17  CB        34.3670   94.9590   18.4290 C.3   248  ARG248      0.0307
     18  CG        33.9350   94.8130   19.8930 C.3   248  ARG248      0.0489
     19  CD        32.4930   95.1820   20.1160 C.3   248  ARG248      0.2205
     20  NE        31.9470   94.5940   21.3430 N.pl3 248  ARG248     -0.0865
     21  CZ        30.6620   94.6410   21.6570 C.cat 248  ARG248      0.5346
     22  NH1       29.8290   95.2660   20.8400 N.pl3 248  ARG248      0.1354
     23  NH2       30.1980   94.0760   22.7820 N.pl3 248  ARG248      0.1354
     24  N         33.8890   99.4770   22.4240 N.3   250  GLN250     -0.1231
     25  CA        33.4660   99.6110   23.8020 C.3   250  GLN250      0.1698
     26  C         34.1560  100.8710   24.3080 C.2   250  GLN250      0.2592
     27  O         35.2630  101.1710   23.8510 O.2   250  GLN250     -0.2718
     28  CB        33.8670   98.3700   24.6460 C.3   250  GLN250      0.0381
     29  CG        33.0920   97.1050   24.2780 C.3   250  GLN250      0.0905
     30  CD        31.6100   97.1830   24.7020 C.2   250  GLN250      0.2608
     31  OE1       31.2410   96.9150   25.8550 O.2   250  GLN250     -0.2717
     32  NE2       30.7570   97.5190   23.7520 N.am  250  GLN250     -0.0878
     33  N         33.4880  101.6080   25.2060 N.am  251  PHE251     -0.1976
     34  CA        34.0050  102.8980   25.7400 C.3   251  PHE251      0.1639
     35  C         34.2290  103.8850   24.6210 C.2   251  PHE251      0.2290
     36  O         35.1860  104.6520   24.6460 O.2   251  PHE251     -0.2864
     37  CB        35.2690  102.7100   26.5750 C.3   251  PHE251      0.0560
     38  CG        35.0950  101.6970   27.6720 C.ar  251  PHE251     -0.0200
     39  CD1       34.5330  102.0610   28.8840 C.ar  251  PHE251     -0.0042
     40  CD2       35.4170  100.3470   27.4620 C.ar  251  PHE251     -0.0042
     41  CE1       34.3350  101.1400   29.9070 C.ar  251  PHE251     -0.0003
     42  CE2       35.2220   99.4130   28.4820 C.ar  251  PHE251     -0.0003
     43  CZ        34.6650   99.8030   29.6970 C.ar  251  PHE251     -0.0000
     44  N         38.1280   98.2900   20.3640 N.3   255  ILE255     -0.1245
     45  CA        38.8430   97.5410   21.4120 C.3   255  ILE255      0.1561
     46  C         40.2940   97.3560   21.0520 C.2   255  ILE255      0.2260
     47  O         41.1570   97.2700   21.9280 O.2   255  ILE255     -0.2867
     48  CB        38.1880   96.1920   21.7490 C.3   255  ILE255      0.0252
     49  CG1       38.1170   95.3040   20.5230 C.3   255  ILE255      0.0019
     50  CG2       36.8300   96.4600   22.3730 C.3   255  ILE255      0.0019
     51  CD1       37.5410   93.9260   20.8190 C.3   255  ILE255      0.0001
     52  N         42.9440   99.7520   22.5430 N.3   258  PHE258     -0.1241
     53  CA        43.5580   99.5950   23.8430 C.3   258  PHE258      0.1605
     54  C         44.9110   98.9240   23.6670 C.2   258  PHE258      0.2264
     55  O         45.0160   97.7940   23.1180 O.2   258  PHE258     -0.2867
     56  CB        42.6600   98.7730   24.7480 C.3   258  PHE258      0.0534
     57  CG        41.3870   99.4710   25.1110 C.ar  258  PHE258     -0.0203
     58  CD1       41.4270  100.5750   25.9590 C.ar  258  PHE258     -0.0042
     59  CD2       40.1460   99.0440   24.6090 C.ar  258  PHE258     -0.0042
     60  CE1       40.2500  101.2630   26.3050 C.ar  258  PHE258     -0.0003
     61  CE2       38.9610   99.6980   24.9770 C.ar  258  PHE258     -0.0003
     62  CZ        39.0190  100.8370   25.8120 C.ar  258  PHE258     -0.0000
     63  N         46.7560   97.2040   25.4770 N.3   260  ALA260     -0.1231
     64  CA        46.8840   95.7860   25.9310 C.3   260  ALA260      0.1694
     65  C         46.4690   94.8360   24.8390 C.2   260  ALA260      0.2591
     66  O         47.0780   93.7590   24.6930 O.2   260  ALA260     -0.2718
     67  CB        46.0650   95.4900   27.2050 C.3   260  ALA260      0.0304
     68  N         45.4050   95.1860   24.0970 N.am  261  VAL261     -0.1980
     69  CA        44.9270   94.3390   23.0420 C.3   261  VAL261      0.1595
     70  C         45.9150   94.3130   21.9010 C.2   261  VAL261      0.2287
     71  O         46.2330   93.2530   21.3230 O.2   261  VAL261     -0.2864
     72  CB        43.5180   94.7900   22.5690 C.3   261  VAL261      0.0276
     73  CG1       43.0540   94.0090   21.3310 C.3   261  VAL261      0.0022
     74  CG2       42.5020   94.6190   23.6820 C.3   261  VAL261      0.0022
     75  N         39.5560   85.2780   23.4940 N.3   315  HIS315     -0.1226
     76  CA        39.5160   86.2690   24.5420 C.3   315  HIS315      0.1752
     77  C         39.1940   87.6380   23.9630 C.2   315  HIS315      0.2596
     78  O         38.4180   88.4170   24.5370 O.2   315  HIS315     -0.2718
     79  CB        40.8140   86.3220   25.3480 C.3   315  HIS315      0.0759
     80  CG        40.8010   87.3740   26.4130 C.ar  315  HIS315      0.0818
     81  ND1       40.1740   87.1900   27.6150 N.ar  315  HIS315     -0.2268
     82  CD2       41.1790   88.6860   26.3720 C.ar  315  HIS315      0.1154
     83  CE1       40.2410   88.3040   28.3130 C.ar  315  HIS315      0.1986
     84  NE2       40.8520   89.2340   27.5800 N.ar  315  HIS315     -0.2212
     85  N         39.8390   87.9720   22.8760 N.am  316  VAL316     -0.1966
     86  CA        39.5930   89.3060   22.2950 C.3   316  VAL316      0.1727
     87  C         38.2050   89.4260   21.6550 C.2   316  VAL316      0.2616
     88  O         37.6000   90.5190   21.6170 O.2   316  VAL316     -0.2715
     89  CB        40.7030   89.6760   21.3190 C.3   316  VAL316      0.0290
     90  CG1       40.3980   90.9270   20.5320 C.3   316  VAL316      0.0023
     91  CG2       41.9960   89.8590   22.0810 C.3   316  VAL316      0.0023
     92  N         37.6650   88.3200   21.2090 N.am  317  HIS317     -0.1959
     93  CA        36.2730   88.3740   20.7360 C.3   317  HIS317      0.1787
     94  C         35.2360   88.4410   21.8360 C.2   317  HIS317      0.2621
     95  O         34.0750   88.8050   21.5950 O.2   317  HIS317     -0.2715
     96  CB        35.9570   87.1240   19.8880 C.3   317  HIS317      0.0785
     97  CG        36.3390   87.2640   18.4560 C.ar  317  HIS317      0.0821
     98  ND1       37.5440   86.8080   17.9540 N.ar  317  HIS317     -0.2267
     99  CD2       35.6750   87.8120   17.4130 C.ar  317  HIS317      0.1154
    100  CE1       37.6000   87.0780   16.6610 C.ar  317  HIS317      0.1986
    101  NE2       36.4710   87.6690   16.3030 N.ar  317  HIS317     -0.2212
    102  N         35.5810   87.9930   23.0380 N.am  318  GLY318     -0.1940
    103  CA        34.5970   87.8900   24.1060 C.3   318  GLY318      0.2014
    104  C         33.5380   86.8660   23.8160 C.2   318  GLY318      0.2639
    105  O         33.8200   85.8180   23.2530 O.2   318  GLY318     -0.2714
    106  N         32.2810   87.1800   24.1530 N.am  319  GLY319     -0.1939
    107  CA        31.1920   86.2230   23.9640 C.3   319  GLY319      0.2014
    108  C         31.0010   85.6990   22.5660 C.2   319  GLY319      0.2638
    109  O         30.7100   84.5490   22.3790 O.2   319  GLY319     -0.2714
    110  N         31.1720   86.5770   21.5670 N.am  320  VAL320     -0.1977
    111  CA        31.1390   86.2390   20.1840 C.3   320  VAL320      0.1596
    112  C         32.1270   85.1090   19.8690 C.2   320  VAL320      0.2287
    113  O         31.9400   84.3220   18.9520 O.2   320  VAL320     -0.2864
    114  CB        31.4160   87.5430   19.3500 C.3   320  VAL320      0.0276
    115  CG1       31.8750   87.2190   17.9740 C.3   320  VAL320      0.0022
    116  CG2       30.1260   88.3840   19.3090 C.3   320  VAL320      0.0022
    117  N         32.7550   82.4760   21.6260 N.3   322  VAL322     -0.1245
    118  CA        32.2070   81.1590   22.0090 C.3   322  VAL322      0.1561
    119  C         30.7940   80.8630   21.4150 C.2   322  VAL322      0.2260
    120  O         30.3330   79.7190   21.4840 O.2   322  VAL322     -0.2867
    121  CB        32.2140   80.9370   23.5190 C.3   322  VAL322      0.0252
    122  CG1       33.6310   81.0670   24.0290 C.3   322  VAL322      0.0019
    123  CG2       31.2910   81.8680   24.2730 C.3   322  VAL322      0.0019
@<TRIPOS>BOND
     1     1     2    1
     2     2     5    1
     3     2     3    1
     4     5     6    1
     5     3     4    2
     6     7     6   ar
     7     7     9   ar
     8   101   100   ar
     9   101    99   ar
    10    13    14    1
    11     6     8   ar
    12   100    98   ar
    13     9    11   ar
    14    99    97   ar
    15    14    17    1
    16    14    15    1
    17    98    97   ar
    18   115   114    1
    19     8    10   ar
    20    11    10   ar
    21    11    12    1
    22    17    18    1
    23    97    96    1
    24    15    16    2
    25   113   112    2
    26   116   114    1
    27   114   111    1
    28   112   111    1
    29    96    93    1
    30    18    19    1
    31    19    20    1
    32   111   110    1
    33    44    45    1
    34    49    51    1
    35    49    48    1
    36    90    89    1
    37    93    92    1
    38    93    94    1
    39    22    21    1
    40    46    45    1
    41    46    47    2
    42    92    87   am
    43    89    91    1
    44    89    86    1
    45    71    70    2
    46    73    72    1
    47    20    21    2
    48    45    48    1
    49   119   120    2
    50   119   118    1
    51   110   108   am
    52    95    94    2
    53    88    87    2
    54   117   118    1
    55    87    86    1
    56    21    23    1
    57    48    50    1
    58    94   102   am
    59    70    69    1
    60   118   121    1
    61    86    85    1
    62   109   108    2
    63    24    25    1
    64    52    53    1
    65   108   107    1
    66    72    69    1
    67    72    74    1
    68    85    77   am
    69   102   103    1
    70    69    68    1
    71    55    54    2
    72   105   104    2
    73    75    76    1
    74   121   122    1
    75   121   123    1
    76    54    53    1
    77    32    30   am
    78    25    26    1
    79    25    28    1
    80   104   103    1
    81   104   106   am
    82    53    56    1
    83    27    26    2
    84    77    78    2
    85    77    76    1
    86   107   106    1
    87    68    65   am
    88    29    28    1
    89    29    30    1
    90    26    33   am
    91    76    79    1
    92    59    61   ar
    93    59    57   ar
    94    35    36    2
    95    35    34    1
    96    66    65    2
    97    30    31    2
    98    56    57    1
    99    65    64    1
   100    61    62   ar
   101    57    58   ar
   102    33    34    1
   103    79    80    1
   104    63    64    1
   105    34    37    1
   106    62    60   ar
   107    64    67    1
   108    58    60   ar
   109    82    80   ar
   110    82    84   ar
   111    80    81   ar
   112    37    38    1
   113    40    38   ar
   114    40    42   ar
   115    84    83   ar
   116    81    83   ar
   117    38    39   ar
   118    42    43   ar
   119    39    41   ar
   120    43    41   ar
