@<TRIPOS>MOLECULE
tmp/4x2aB01.pdb
 82 77 0 0 0
SMALL
GASTEIGER

@<TRIPOS>ATOM
      1  N         -2.4810   -3.3830    8.6770 N.3   120  HIS120     -0.1241
      2  CA        -3.5700   -2.8560    9.5080 C.3   120  HIS120      0.1621
      3  C         -4.2580   -3.9300   10.3350 C.2   120  HIS120      0.2264
      4  O         -4.0930   -5.1300   10.0850 O.2   120  HIS120     -0.2867
      5  CB        -4.6280   -2.1570    8.6320 C.3   120  HIS120      0.0745
      6  CG        -5.1040   -2.9790    7.4690 C.ar  120  HIS120      0.0817
      7  ND1       -4.5070   -2.9300    6.2320 N.ar  120  HIS120     -0.2268
      8  CD2       -6.1400   -3.8500    7.3510 C.ar  120  HIS120      0.1154
      9  CE1       -5.1500   -3.7310    5.3980 C.ar  120  HIS120      0.1986
     10  NE2       -6.1410   -4.3070    6.0580 N.ar  120  HIS120     -0.2212
     11  N        -13.5350    2.6490   -4.3700 N.3   150  MET150     -0.1245
     12  CA       -13.9920    1.7360   -3.3140 C.3   150  MET150      0.1570
     13  C        -14.8320    2.3940   -2.2370 C.2   150  MET150      0.2261
     14  O        -14.3630    2.5850   -1.1120 O.2   150  MET150     -0.2867
     15  CB       -12.8120    1.0580   -2.6400 C.3   150  MET150      0.0387
     16  CG       -12.5280   -0.2870   -3.2500 C.3   150  MET150      0.0595
     17  SD       -11.0330   -1.0450   -2.6190 S.3   150  MET150     -0.1393
     18  CE       -10.7570   -2.2100   -3.9410 C.3   150  MET150      0.0692
     19  N        -15.8610    1.5310    2.2570 N.3   153  LEU153     -0.1245
     20  CA       -14.7520    0.9690    3.0020 C.3   153  LEU153      0.1561
     21  C        -13.8680    2.1100    3.4870 C.2   153  LEU153      0.2260
     22  O        -13.5650    3.0180    2.7210 O.2   153  LEU153     -0.2867
     23  CB       -13.9750    0.0040    2.1240 C.3   153  LEU153      0.0270
     24  CG       -12.7760   -0.7030    2.7400 C.3   153  LEU153      0.0019
     25  CD1      -13.2560   -1.8140    3.6640 C.3   153  LEU153      0.0001
     26  CD2      -11.9450   -1.2930    1.6130 C.3   153  LEU153      0.0001
     27  N        -10.5300    3.6300    6.2420 N.3   155  PHE155     -0.1241
     28  CA        -9.3520    3.4690    7.0750 C.3   155  PHE155      0.1605
     29  C         -9.2150    4.6680    7.9950 C.2   155  PHE155      0.2264
     30  O         -9.2310    5.8190    7.5300 O.2   155  PHE155     -0.2867
     31  CB        -8.0960    3.3400    6.2170 C.3   155  PHE155      0.0534
     32  CG        -7.9660    2.0260    5.5400 C.ar  155  PHE155     -0.0203
     33  CD1       -7.2870    0.9880    6.1580 C.ar  155  PHE155     -0.0042
     34  CD2       -8.5460    1.8120    4.3000 C.ar  155  PHE155     -0.0042
     35  CE1       -7.1650   -0.2330    5.5460 C.ar  155  PHE155     -0.0003
     36  CE2       -8.4230    0.5820    3.6760 C.ar  155  PHE155     -0.0003
     37  CZ        -7.7360   -0.4350    4.2990 C.ar  155  PHE155     -0.0000
     38  N         -8.8170   -0.6530    9.4500 N.3   165  GLU165     -0.1245
     39  CA        -9.8300   -0.7690    8.4110 C.3   165  GLU165      0.1567
     40  C        -11.2210   -0.8080    9.0160 C.2   165  GLU165      0.2260
     41  O        -11.4170   -1.4310   10.0510 O.2   165  GLU165     -0.2867
     42  CB        -9.5770   -2.0130    7.5700 C.3   165  GLU165      0.0388
     43  CG       -10.4120   -2.0900    6.3300 C.3   165  GLU165      0.1160
     44  CD        -9.9940   -3.2810    5.5020 C.2   165  GLU165      0.3649
     45  OE1       -8.7880   -3.4200    5.2590 O.co2 165  GLU165     -0.2457
     46  OE2      -10.8530   -4.0960    5.1400 O.co2 165  GLU165     -0.2457
     47  N        -15.0160   -1.8430    7.8520 N.3   167  LEU167     -0.1245
     48  CA       -15.6370   -2.5760    6.7540 C.3   167  LEU167      0.1561
     49  C        -17.0010   -3.1420    7.1510 C.2   167  LEU167      0.2260
     50  O        -17.2520   -3.4030    8.3330 O.2   167  LEU167     -0.2867
     51  CB       -14.6970   -3.7040    6.2850 C.3   167  LEU167      0.0270
     52  CG       -14.4780   -4.9210    7.1950 C.3   167  LEU167      0.0019
     53  CD1      -15.3910   -6.0910    6.8610 C.3   167  LEU167      0.0001
     54  CD2      -13.0110   -5.3820    7.1750 C.3   167  LEU167      0.0001
     55  N        -19.4060   -5.4120    1.4050 N.3   172  ILE172     -0.1231
     56  CA       -18.0830   -5.4510    0.7900 C.3   172  ILE172      0.1692
     57  C        -18.1830   -6.2330   -0.5170 C.2   172  ILE172      0.2592
     58  O        -17.3700   -6.0610   -1.4150 O.2   172  ILE172     -0.2718
     59  CB       -17.0060   -6.0720    1.7130 C.3   172  ILE172      0.0266
     60  CG1      -15.6140   -5.7740    1.1650 C.3   172  ILE172      0.0019
     61  CG2      -17.2030   -7.5700    1.8510 C.3   172  ILE172      0.0020
     62  CD1      -14.5750   -5.5460    2.2210 C.3   172  ILE172      0.0001
     63  N        -19.2110   -7.0640   -0.6390 N.am  173  ALA173     -0.1966
     64  CA       -19.4910   -7.7100   -1.9140 C.3   173  ALA173      0.1728
     65  C        -20.1780   -6.7170   -2.8690 C.2   173  ALA173      0.2617
     66  O        -21.2900   -6.9760   -3.3340 O.2   173  ALA173     -0.2715
     67  CB       -20.3620   -8.9560   -1.7080 C.3   173  ALA173      0.0334
     68  N        -19.5220   -5.5790   -3.1320 N.am  174  THR174     -0.1937
     69  CA       -19.9890   -4.5590   -4.0910 C.3   174  THR174      0.2028
     70  C        -18.8490   -3.7530   -4.7100 C.2   174  THR174      0.2642
     71  O        -19.1190   -2.7790   -5.3970 O.2   174  THR174     -0.2714
     72  CB       -20.9310   -3.4940   -3.4430 C.3   174  THR174      0.1808
     73  OG1      -20.2300   -2.8090   -2.3950 O.3   174  THR174     -0.2208
     74  CG2      -22.2380   -4.0940   -2.8830 C.3   174  THR174      0.0379
     75  N        -17.6040   -4.1880   -4.4940 N.am  175  ILE175     -0.1977
     76  CA       -16.4080   -3.3180   -4.3650 C.3   175  ILE175      0.1596
     77  C        -16.7640   -2.0470   -3.5810 C.2   175  ILE175      0.2287
     78  O        -16.8760   -2.0840   -2.3480 O.2   175  ILE175     -0.2864
     79  CB       -15.7180   -2.9230   -5.7350 C.3   175  ILE175      0.0276
     80  CG1      -14.5600   -1.9560   -5.4790 C.3   175  ILE175      0.0022
     81  CG2      -16.6590   -2.2390   -6.7170 C.3   175  ILE175      0.0022
     82  CD1      -13.4270   -2.0440   -6.5060 C.3   175  ILE175      0.0001
@<TRIPOS>BOND
     1    81    79    1
     2    82    80    1
     3    79    80    1
     4    79    76    1
     5    71    70    2
     6    70    75   am
     7    70    69    1
     8    75    76    1
     9    11    12    1
    10    76    77    1
    11    69    72    1
    12    69    68    1
    13    18    17    1
    14    77    78    2
    15    72    74    1
    16    72    73    1
    17    66    65    2
    18    12    15    1
    19    12    13    1
    20    16    15    1
    21    16    17    1
    22    68    65   am
    23    65    64    1
    24    13    14    2
    25    64    67    1
    26    64    63    1
    27    58    57    2
    28    63    57   am
    29    57    56    1
    30    56    55    1
    31    56    59    1
    32    60    59    1
    33    60    62    1
    34    26    24    1
    35    59    61    1
    36    23    24    1
    37    23    20    1
    38    19    20    1
    39    22    21    2
    40    24    25    1
    41    20    21    1
    42    36    37   ar
    43    36    34   ar
    44    37    35   ar
    45    34    32   ar
    46    46    44   ar
    47    45    44   ar
    48     9    10   ar
    49     9     7   ar
    50    44    43    1
    51    32    33   ar
    52    32    31    1
    53    35    33   ar
    54    10     8   ar
    55    31    28    1
    56     7     6   ar
    57    27    28    1
    58    51    48    1
    59    51    52    1
    60    43    42    1
    61    48    49    1
    62    48    47    1
    63    53    52    1
    64    28    29    1
    65    49    50    2
    66    54    52    1
    67     8     6   ar
    68     6     5    1
    69    30    29    2
    70    42    39    1
    71    39    40    1
    72    39    38    1
    73     5     2    1
    74     1     2    1
    75    40    41    2
    76     2     3    1
    77     4     3    2
