@<TRIPOS>MOLECULE
tmp/4x2aB00.pdb
 108 100 0 0 0
SMALL
GASTEIGER

@<TRIPOS>ATOM
      1  N         -4.1480  -13.1010   19.5770 N.3    27  GLN27      -0.1245
      2  CA        -3.7030  -11.7360   19.7680 C.3    27  GLN27       0.1566
      3  C         -2.9440  -11.1810   18.5750 C.2    27  GLN27       0.2260
      4  O         -2.3520  -11.9120   17.7810 O.2    27  GLN27      -0.2867
      5  CB        -2.8090  -11.6390   21.0220 C.3    27  GLN27       0.0367
      6  CG        -1.6540  -12.5910   20.9480 C.3    27  GLN27       0.0905
      7  CD        -0.6550  -12.4310   22.0820 C.2    27  GLN27       0.2608
      8  OE1        0.4910  -12.0790   21.8380 O.2    27  GLN27      -0.2717
      9  NE2       -1.0740  -12.7190   23.3160 N.am   27  GLN27      -0.0878
     10  N         -0.2070   -7.8910   18.4780 N.3    29  MET29      -0.1245
     11  CA         0.4890   -6.9500   19.3680 C.3    29  MET29       0.1570
     12  C          0.9840   -5.7080   18.6280 C.2    29  MET29       0.2261
     13  O          1.6620   -5.8220   17.5970 O.2    29  MET29      -0.2867
     14  CB         1.6720   -7.6470   20.0620 C.3    29  MET29       0.0387
     15  CG         2.3840   -6.8140   21.1570 C.3    29  MET29       0.0595
     16  SD         3.4670   -5.4810   20.5490 S.3    29  MET29      -0.1393
     17  CE         5.0890   -6.1500   20.9030 C.3    29  MET29       0.0692
     18  N         -1.1660   -5.5950   32.5250 N.3    54  LEU54      -0.1245
     19  CA        -0.0510   -6.1570   33.2810 C.3    54  LEU54       0.1561
     20  C          1.1140   -5.1670   33.3320 C.2    54  LEU54       0.2260
     21  O          1.5250   -4.6350   32.3000 O.2    54  LEU54      -0.2867
     22  CB         0.4050   -7.4850   32.6780 C.3    54  LEU54       0.0270
     23  CG        -0.5760   -8.6560   32.5830 C.3    54  LEU54       0.0019
     24  CD1        0.0890   -9.8210   31.8750 C.3    54  LEU54       0.0001
     25  CD2       -1.0480   -9.0840   33.9550 C.3    54  LEU54       0.0001
     26  N          5.1660   -4.4290   34.4980 N.3    56  PHE56      -0.1241
     27  CA         6.4420   -5.0780   34.7600 C.3    56  PHE56       0.1605
     28  C          7.4660   -4.0030   35.1320 C.2    56  PHE56       0.2264
     29  O          8.2420   -3.5520   34.2820 O.2    56  PHE56      -0.2867
     30  CB         6.9100   -5.8760   33.5420 C.3    56  PHE56       0.0534
     31  CG         5.9500   -6.9510   33.1100 C.ar   56  PHE56      -0.0203
     32  CD1        4.8910   -6.6530   32.2660 C.ar   56  PHE56      -0.0042
     33  CD2        6.1130   -8.2580   33.5390 C.ar   56  PHE56      -0.0042
     34  CE1        4.0090   -7.6310   31.8700 C.ar   56  PHE56      -0.0003
     35  CE2        5.2380   -9.2430   33.1370 C.ar   56  PHE56      -0.0003
     36  CZ         4.1790   -8.9250   32.3050 C.ar   56  PHE56      -0.0000
     37  N         11.2240   -4.3110   34.2810 N.3    59  MET59      -0.1245
     38  CA        11.5680   -4.0980   32.8790 C.3    59  MET59       0.1570
     39  C         10.9920   -2.8150   32.2760 C.2    59  MET59       0.2261
     40  O         11.2450   -2.5110   31.1080 O.2    59  MET59      -0.2867
     41  CB        11.1280   -5.3110   32.0690 C.3    59  MET59       0.0387
     42  CG        11.7640   -6.6000   32.5580 C.3    59  MET59       0.0595
     43  SD        11.4040   -8.0280   31.5240 S.3    59  MET59      -0.1393
     44  CE        10.0400   -8.7210   32.4520 C.3    59  MET59       0.0692
     45  N          7.9060   -1.7760   31.3780 N.3    61  PHE61      -0.1241
     46  CA         6.8690   -1.7570   30.3530 C.3    61  PHE61       0.1605
     47  C          5.5480   -2.2860   30.8970 C.2    61  PHE61       0.2264
     48  O          5.5230   -2.9680   31.9220 O.2    61  PHE61      -0.2867
     49  CB         7.3220   -2.5500   29.1130 C.3    61  PHE61       0.0534
     50  CG         7.3340   -4.0470   29.2970 C.ar   61  PHE61      -0.0203
     51  CD1        6.1960   -4.8080   29.0380 C.ar   61  PHE61      -0.0042
     52  CD2        8.4890   -4.7000   29.7230 C.ar   61  PHE61      -0.0042
     53  CE1        6.2120   -6.1950   29.1970 C.ar   61  PHE61      -0.0003
     54  CE2        8.5070   -6.0790   29.8860 C.ar   61  PHE61      -0.0003
     55  CZ         7.3680   -6.8260   29.6240 C.ar   61  PHE61      -0.0000
     56  N          1.5670   -4.0420   29.5290 N.3    63  LEU63      -0.1245
     57  CA         0.7680   -4.6590   28.4660 C.3    63  LEU63       0.1561
     58  C         -0.7280   -4.3990   28.6970 C.2    63  LEU63       0.2260
     59  O         -1.2080   -4.4740   29.8320 O.2    63  LEU63      -0.2867
     60  CB         1.0310   -6.1600   28.3920 C.3    63  LEU63       0.0270
     61  CG         2.4890   -6.5910   28.2660 C.3    63  LEU63       0.0019
     62  CD1        2.5580   -8.0970   28.1690 C.3    63  LEU63       0.0001
     63  CD2        3.2100   -5.9280   27.1030 C.3    63  LEU63       0.0001
     64  N         -4.4940   -5.6870   27.2640 N.3    65  PHE65      -0.1241
     65  CA        -5.2210   -6.6160   26.4120 C.3    65  PHE65       0.1605
     66  C         -6.6670   -6.1540   26.2540 C.2    65  PHE65       0.2264
     67  O         -7.4050   -6.0420   27.2340 O.2    65  PHE65      -0.2867
     68  CB        -5.1190   -8.0220   26.9700 C.3    65  PHE65       0.0534
     69  CG        -3.7500   -8.6150   26.8060 C.ar   65  PHE65      -0.0203
     70  CD1       -2.7530   -8.3540   27.7310 C.ar   65  PHE65      -0.0042
     71  CD2       -3.4450   -9.3870   25.6970 C.ar   65  PHE65      -0.0042
     72  CE1       -1.4840   -8.8790   27.5670 C.ar   65  PHE65      -0.0003
     73  CE2       -2.1870   -9.9260   25.5300 C.ar   65  PHE65      -0.0003
     74  CZ        -1.2060   -9.6710   26.4650 C.ar   65  PHE65      -0.0000
     75  N         -6.4070  -13.9540   34.1590 N.3    82  THR82      -0.1218
     76  CA        -5.3310  -14.1350   33.1790 C.3    82  THR82       0.1862
     77  C         -5.6120  -15.2730   32.1860 C.2    82  THR82       0.2287
     78  O         -5.4290  -15.1150   30.9730 O.2    82  THR82      -0.2866
     79  CB        -3.9560  -14.3730   33.8740 C.3    82  THR82       0.1770
     80  OG1       -3.6530  -13.2670   34.7300 O.3    82  THR82      -0.2211
     81  CG2       -2.8420  -14.4830   32.8470 C.3    82  THR82       0.0375
     82  N         -6.2540  -14.6270   28.1660 N.3    86  PHE86      -0.1241
     83  CA        -5.3750  -15.2550   27.1940 C.3    86  PHE86       0.1605
     84  C         -6.0090  -16.3800   26.3810 C.2    86  PHE86       0.2264
     85  O         -5.3620  -16.9370   25.4960 O.2    86  PHE86      -0.2867
     86  CB        -4.1000  -15.7190   27.8950 C.3    86  PHE86       0.0534
     87  CG        -3.1200  -14.6060   28.0990 C.ar   86  PHE86      -0.0203
     88  CD1       -2.3350  -14.1690   27.0490 C.ar   86  PHE86      -0.0042
     89  CD2       -3.0310  -13.9510   29.3110 C.ar   86  PHE86      -0.0042
     90  CE1       -1.4490  -13.1290   27.2110 C.ar   86  PHE86      -0.0003
     91  CE2       -2.1380  -12.9060   29.4820 C.ar   86  PHE86      -0.0003
     92  CZ        -1.3470  -12.4950   28.4280 C.ar   86  PHE86      -0.0000
     93  N         -3.2670   -6.6440   21.7570 N.3    93  GLU93      -0.1245
     94  CA        -2.2690   -6.4440   22.8070 C.3    93  GLU93       0.1567
     95  C         -1.4980   -5.1510   22.5560 C.2    93  GLU93       0.2260
     96  O         -0.8410   -5.0050   21.5250 O.2    93  GLU93      -0.2867
     97  CB        -1.3040   -7.6190   22.8790 C.3    93  GLU93       0.0388
     98  CG        -0.1830   -7.3880   23.9020 C.3    93  GLU93       0.1160
     99  CD         0.9450   -8.4230   23.8340 C.2    93  GLU93       0.3649
    100  OE1        0.8100   -9.4870   23.1850 O.co2  93  GLU93      -0.2457
    101  OE2        1.9940   -8.1640   24.4450 O.co2  93  GLU93      -0.2457
    102  N          1.5490   -2.7830   23.7150 N.3    95  THR95      -0.1218
    103  CA         2.7720   -2.7960   24.5240 C.3    95  THR95       0.1862
    104  C          3.2840   -1.3690   24.7280 C.2    95  THR95       0.2287
    105  O          3.5530   -0.6480   23.7680 O.2    95  THR95      -0.2866
    106  CB         3.8660   -3.6330   23.8660 C.3    95  THR95       0.1770
    107  OG1        3.4330   -4.9990   23.7910 O.3    95  THR95      -0.2211
    108  CG2        5.1870   -3.5440   24.6670 C.3    95  THR95       0.0375
@<TRIPOS>BOND
     1    13    12    2
     2     4     3    2
     3    10    11    1
     4     3     2    1
     5    12    11    1
     6    11    14    1
     7     1     2    1
     8     2     5    1
     9    14    15    1
    10    16    17    1
    11    16    15    1
    12     6     5    1
    13     6     7    1
    14    96    95    2
    15    93    94    1
    16     8     7    2
    17     7     9   am
    18    95    94    1
    19    94    97    1
    20    97    98    1
    21   100    99   ar
    22   102   103    1
    23   105   104    2
    24   107   106    1
    25    99    98    1
    26    99   101   ar
    27   106   103    1
    28   106   108    1
    29   103   104    1
    30    85    84    2
    31    73    71   ar
    32    73    74   ar
    33    71    69   ar
    34    66    65    1
    35    66    67    2
    36    84    83    1
    37    65    68    1
    38    65    64    1
    39    74    72   ar
    40    69    68    1
    41    69    70   ar
    42    88    90   ar
    43    88    87   ar
    44    63    61    1
    45    83    86    1
    46    83    82    1
    47    90    92   ar
    48    72    70   ar
    49    86    87    1
    50    87    89   ar
    51    62    61    1
    52    61    60    1
    53    60    57    1
    54    92    91   ar
    55    57    58    1
    56    57    56    1
    57    58    59    2
    58    51    53   ar
    59    51    50   ar
    60    49    50    1
    61    49    46    1
    62    53    55   ar
    63    50    52   ar
    64    89    91   ar
    65    55    54   ar
    66    52    54   ar
    67    46    47    1
    68    46    45    1
    69    47    48    2
    70    78    77    2
    71    40    39    2
    72    43    44    1
    73    43    42    1
    74    34    32   ar
    75    34    36   ar
    76    24    23    1
    77    41    42    1
    78    41    38    1
    79    77    76    1
    80    32    31   ar
    81    39    38    1
    82    21    20    2
    83    36    35   ar
    84    18    19    1
    85    23    22    1
    86    23    25    1
    87    22    19    1
    88    81    79    1
    89    38    37    1
    90    31    33   ar
    91    31    30    1
    92    35    33   ar
    93    76    79    1
    94    76    75    1
    95    19    20    1
    96    30    27    1
    97    79    80    1
    98    29    28    2
    99    26    27    1
   100    27    28    1
