@<TRIPOS>MOLECULE
tmp/4x2dA00.pdb
 171 164 0 0 0
SMALL
GASTEIGER

@<TRIPOS>ATOM
      1  N        -25.3910  -22.8000   43.6730 N.3    28  ILE28      -0.1231
      2  CA       -24.1150  -22.8020   44.3800 C.3    28  ILE28       0.1692
      3  C        -23.8680  -21.4100   44.9780 C.2    28  ILE28       0.2591
      4  O        -23.3000  -21.2820   46.0560 O.2    28  ILE28      -0.2718
      5  CB       -22.9510  -23.2110   43.4420 C.3    28  ILE28       0.0266
      6  CG1      -23.0510  -24.6990   43.0950 C.3    28  ILE28       0.0019
      7  CG2      -21.6020  -22.9130   44.0710 C.3    28  ILE28       0.0020
      8  CD1      -22.1000  -25.1460   42.0020 C.3    28  ILE28       0.0001
      9  N        -24.3270  -20.3690   44.2880 N.am   29  ALA29      -0.1980
     10  CA       -24.1510  -19.0010   44.7680 C.3    29  ALA29       0.1597
     11  C        -25.1910  -18.6100   45.8180 C.2    29  ALA29       0.2287
     12  O        -25.1350  -17.5100   46.3700 O.2    29  ALA29      -0.2864
     13  CB       -24.1980  -18.0240   43.5970 C.3    29  ALA29       0.0319
     14  N        -12.8770  -16.1840   50.9080 N.3   111  ILE111     -0.1231
     15  CA       -13.7430  -17.3260   50.6770 C.3   111  ILE111      0.1692
     16  C        -13.8050  -18.0700   51.9950 C.2   111  ILE111      0.2592
     17  O        -12.7740  -18.5090   52.4910 O.2   111  ILE111     -0.2718
     18  CB       -13.1960  -18.2640   49.5800 C.3   111  ILE111      0.0266
     19  CG1      -12.4320  -17.4760   48.5130 C.3   111  ILE111      0.0019
     20  CG2      -14.3030  -19.1200   48.9770 C.3   111  ILE111      0.0020
     21  CD1      -11.7180  -18.3590   47.5180 C.3   111  ILE111      0.0001
     22  N        -14.9770  -18.2030   52.5980 N.am  112  LEU112     -0.1966
     23  CA       -14.9980  -18.9000   53.8730 C.3   112  LEU112      0.1728
     24  C        -15.3300  -20.3690   53.6560 C.2   112  LEU112      0.2617
     25  O        -15.9570  -20.7400   52.6650 O.2   112  LEU112     -0.2715
     26  CB       -15.9690  -18.2480   54.8600 C.3   112  LEU112      0.0311
     27  CG       -15.4870  -18.3950   56.3140 C.3   112  LEU112      0.0022
     28  CD1      -13.9560  -18.3510   56.3930 C.3   112  LEU112      0.0001
     29  CD2      -16.0900  -17.3300   57.2150 C.3   112  LEU112      0.0001
     30  N        -14.8950  -21.1940   54.6020 N.am  113  GLY113     -0.1940
     31  CA       -14.7930  -22.6240   54.3940 C.3   113  GLY113      0.2014
     32  C        -13.3150  -22.9160   54.2390 C.2   113  GLY113      0.2639
     33  O        -12.8930  -24.0690   54.1300 O.2   113  GLY113     -0.2714
     34  N        -12.5290  -21.8420   54.2350 N.am  114  THR114     -0.1950
     35  CA       -11.0800  -21.9320   54.1130 C.3   114  THR114      0.1897
     36  C        -10.3870  -20.6740   54.6350 C.2   114  THR114      0.2313
     37  O        -11.0070  -19.6160   54.7610 O.2   114  THR114     -0.2863
     38  CB       -10.6510  -22.1650   52.6510 C.3   114  THR114      0.1794
     39  OG1       -9.2220  -22.0920   52.5530 O.3   114  THR114     -0.2208
     40  CG2      -11.2740  -21.1230   51.7340 C.3   114  THR114      0.0378
     41  N         -7.3200  -19.9770   53.1490 N.3   116  VAL116     -0.1245
     42  CA        -6.3390  -19.8600   52.0700 C.3   116  VAL116      0.1561
     43  C         -6.0760  -18.3940   51.7240 C.2   116  VAL116      0.2260
     44  O         -6.9490  -17.5430   51.8960 O.2   116  VAL116     -0.2867
     45  CB        -6.8140  -20.6260   50.8040 C.3   116  VAL116      0.0252
     46  CG1       -8.0400  -19.9540   50.1900 C.3   116  VAL116      0.0019
     47  CG2       -5.6970  -20.7490   49.7760 C.3   116  VAL116      0.0019
     48  N         -9.1390  -22.4620   39.1110 N.3   151  TYR151     -0.1241
     49  CA        -8.6180  -22.3730   40.4630 C.3   151  TYR151      0.1605
     50  C         -7.8830  -21.0630   40.6770 C.2   151  TYR151      0.2264
     51  O         -8.1470  -20.3600   41.6490 O.2   151  TYR151     -0.2867
     52  CB        -7.6890  -23.5390   40.7850 C.3   151  TYR151      0.0534
     53  CG        -7.1830  -23.4880   42.2070 C.ar  151  TYR151     -0.0201
     54  CD1       -7.9750  -23.9490   43.2570 C.ar  151  TYR151     -0.0009
     55  CD2       -5.9260  -22.9740   42.5070 C.ar  151  TYR151     -0.0009
     56  CE1       -7.5300  -23.9030   44.5660 C.ar  151  TYR151      0.0417
     57  CE2       -5.4680  -22.9250   43.8160 C.ar  151  TYR151      0.0417
     58  CZ        -6.2770  -23.3920   44.8430 C.ar  151  TYR151      0.1957
     59  OH        -5.8370  -23.3500   46.1490 O.3   151  TYR151     -0.2866
     60  N        -10.1850  -18.1140   40.8790 N.3   154  GLU154     -0.1231
     61  CA       -10.8880  -18.0510   42.1510 C.3   154  GLU154      0.1699
     62  C         -9.9580  -17.6300   43.2940 C.2   154  GLU154      0.2592
     63  O        -10.3910  -16.9780   44.2410 O.2   154  GLU154     -0.2718
     64  CB       -11.5560  -19.3920   42.4670 C.3   154  GLU154      0.0402
     65  CG       -12.7110  -19.7550   41.5170 C.3   154  GLU154      0.1161
     66  CD       -13.7960  -18.6900   41.4520 C.2   154  GLU154      0.3649
     67  OE1      -14.0690  -18.0500   42.4850 O.co2 154  GLU154     -0.2457
     68  OE2      -14.3910  -18.5050   40.3670 O.co2 154  GLU154     -0.2457
     69  N         -8.6840  -17.9990   43.2080 N.am  155  LEU155     -0.1980
     70  CA        -7.7110  -17.6330   44.2390 C.3   155  LEU155      0.1596
     71  C         -7.4240  -16.1350   44.1690 C.2   155  LEU155      0.2287
     72  O         -7.1380  -15.4920   45.1810 O.2   155  LEU155     -0.2864
     73  CB        -6.4280  -18.4400   44.1030 C.3   155  LEU155      0.0297
     74  CG        -5.5180  -18.3010   45.3240 C.3   155  LEU155      0.0022
     75  CD1       -6.1890  -18.9140   46.5420 C.3   155  LEU155      0.0001
     76  CD2       -4.1600  -18.9430   45.0760 C.3   155  LEU155      0.0001
     77  N         -9.7510  -14.0120   43.0240 N.3   157  HIS157     -0.1241
     78  CA       -11.0280  -13.5320   43.5530 C.3   157  HIS157      0.1621
     79  C        -11.1540  -12.0200   43.3020 C.2   157  HIS157      0.2264
     80  O        -11.2040  -11.2330   44.2470 O.2   157  HIS157     -0.2867
     81  CB       -11.1100  -13.8580   45.0450 C.3   157  HIS157      0.0745
     82  CG       -12.4020  -14.4820   45.4630 C.ar  157  HIS157      0.0817
     83  ND1      -12.7800  -15.7390   45.0420 N.ar  157  HIS157     -0.2268
     84  CD2      -13.3830  -14.0500   46.2900 C.ar  157  HIS157      0.1154
     85  CE1      -13.9520  -16.0430   45.5680 C.ar  157  HIS157      0.1986
     86  NE2      -14.3360  -15.0380   46.3350 N.ar  157  HIS157     -0.2212
     87  N        -17.8930   -9.6230   45.1170 N.3   161  ASP161     -0.1225
     88  CA       -18.8220  -10.7530   45.1290 C.3   161  ASP161      0.1805
     89  C        -19.0750  -11.1940   43.6810 C.2   161  ASP161      0.2598
     90  O        -18.6720  -10.5030   42.7440 O.2   161  ASP161     -0.2718
     91  CB       -20.1300  -10.4100   45.8510 C.3   161  ASP161      0.1424
     92  CG       -20.9380  -11.6550   46.2150 C.2   161  ASP161      0.3668
     93  OD1      -20.4570  -12.7770   45.9540 O.co2 161  ASP161     -0.2456
     94  OD2      -22.0510  -11.5260   46.7670 O.co2 161  ASP161     -0.2456
     95  N        -19.7010  -12.3540   43.4960 N.am  162  GLY162     -0.1942
     96  CA       -19.9760  -12.8890   42.1690 C.3   162  GLY162      0.2014
     97  C        -18.8210  -13.6020   41.4870 C.2   162  GLY162      0.2639
     98  O        -18.8730  -13.9110   40.2940 O.2   162  GLY162     -0.2714
     99  N        -17.7670  -13.8650   42.2440 N.am  163  ASN163     -0.1958
    100  CA       -16.5840  -14.5300   41.7040 C.3   163  ASN163      0.1819
    101  C        -16.8640  -15.9610   41.2360 C.2   163  ASN163      0.2622
    102  O        -16.3330  -16.3930   40.2030 O.2   163  ASN163     -0.2715
    103  CB       -15.4650  -14.5260   42.7370 C.3   163  ASN163      0.1195
    104  CG       -14.9970  -13.1230   43.0610 C.2   163  ASN163      0.2630
    105  OD1      -14.2450  -12.5160   42.3040 O.2   163  ASN163     -0.2716
    106  ND2      -15.4410  -12.6030   44.1980 N.am  163  ASN163     -0.0877
    107  N        -17.6570  -16.7040   42.0140 N.am  164  GLY164     -0.1940
    108  CA       -18.0050  -18.0690   41.6540 C.3   164  GLY164      0.2014
    109  C        -18.7180  -18.1840   40.3160 C.2   164  GLY164      0.2638
    110  O        -18.3230  -18.9480   39.4300 O.2   164  GLY164     -0.2714
    111  N        -19.7730  -17.3940   40.1690 N.am  165  ARG165     -0.1977
    112  CA       -20.5970  -17.3980   38.9710 C.3   165  ARG165      0.1597
    113  C        -19.8250  -16.9460   37.7410 C.2   165  ARG165      0.2287
    114  O        -19.8790  -17.5840   36.6960 O.2   165  ARG165     -0.2864
    115  CB       -21.8180  -16.5080   39.2060 C.3   165  ARG165      0.0334
    116  CG       -22.8810  -17.1730   40.0830 C.3   165  ARG165      0.0492
    117  CD       -23.9810  -16.2000   40.4080 C.3   165  ARG165      0.2205
    118  NE       -23.5190  -15.2620   41.4280 N.pl3 165  ARG165     -0.0865
    119  CZ       -24.2880  -14.3700   42.0380 C.cat 165  ARG165      0.5346
    120  NH1      -25.5690  -14.2650   41.7120 N.pl3 165  ARG165      0.1354
    121  NH2      -23.7660  -13.5660   42.9530 N.pl3 165  ARG165      0.1354
    122  N        -17.3800  -19.6290   36.7440 N.3   168  ARG168     -0.1245
    123  CA       -18.0010  -20.7700   36.0660 C.3   168  ARG168      0.1563
    124  C        -18.5320  -20.4110   34.6740 C.2   168  ARG168      0.2260
    125  O        -18.5110  -21.2480   33.7630 O.2   168  ARG168     -0.2867
    126  CB       -19.1010  -21.3600   36.9300 C.3   168  ARG168      0.0307
    127  CG       -18.5520  -21.9840   38.1950 C.3   168  ARG168      0.0489
    128  CD       -19.5860  -22.8040   38.9070 C.3   168  ARG168      0.2205
    129  NE       -20.5730  -21.9580   39.5610 N.pl3 168  ARG168     -0.0865
    130  CZ       -20.3630  -21.2910   40.6920 C.cat 168  ARG168      0.5346
    131  NH1      -19.1800  -21.3490   41.2870 N.pl3 168  ARG168      0.1354
    132  NH2      -21.3380  -20.5590   41.2250 N.pl3 168  ARG168      0.1354
    133  N        -17.6890  -29.9160   44.6500 N.3   193  TYR193     -0.1227
    134  CA       -17.0040  -28.8700   43.9010 C.3   193  TYR193      0.1736
    135  C        -16.1140  -28.0400   44.8300 C.2   193  TYR193      0.2595
    136  O        -14.9240  -27.8500   44.5670 O.2   193  TYR193     -0.2718
    137  CB       -18.0370  -27.9940   43.1800 C.3   193  TYR193      0.0548
    138  CG       -17.5630  -26.6350   42.6990 C.ar  193  TYR193     -0.0200
    139  CD1      -16.6450  -26.5150   41.6610 C.ar  193  TYR193     -0.0009
    140  CD2      -18.0750  -25.4680   43.2550 C.ar  193  TYR193     -0.0009
    141  CE1      -16.2380  -25.2680   41.2050 C.ar  193  TYR193      0.0417
    142  CE2      -17.6670  -24.2190   42.8100 C.ar  193  TYR193      0.0417
    143  CZ       -16.7500  -24.1280   41.7850 C.ar  193  TYR193      0.1957
    144  OH       -16.3510  -22.8860   41.3440 O.3   193  TYR193     -0.2866
    145  N        -16.6940  -27.5580   45.9230 N.am  194  ARG194     -0.1980
    146  CA       -15.9550  -26.7440   46.8800 C.3   194  ARG194      0.1597
    147  C        -14.8240  -27.5290   47.5140 C.2   194  ARG194      0.2287
    148  O        -13.7350  -27.0000   47.7040 O.2   194  ARG194     -0.2864
    149  CB       -16.8850  -26.1900   47.9580 C.3   194  ARG194      0.0334
    150  CG       -17.7320  -25.0570   47.4500 C.3   194  ARG194      0.0492
    151  CD       -18.7100  -24.5440   48.4880 C.3   194  ARG194      0.2205
    152  NE       -19.5540  -23.5070   47.9090 N.pl3 194  ARG194     -0.0865
    153  CZ       -20.5420  -22.8990   48.5490 C.cat 194  ARG194      0.5346
    154  NH1      -21.2500  -21.9680   47.9270 N.pl3 194  ARG194      0.1354
    155  NH2      -20.8260  -23.2220   49.8070 N.pl3 194  ARG194      0.1354
    156  N        -12.0300  -27.9530   45.1740 N.3   197  LEU197     -0.1231
    157  CA       -11.3120  -26.6860   45.1550 C.3   197  LEU197      0.1693
    158  C        -10.3640  -26.5930   46.3440 C.2   197  LEU197      0.2592
    159  O         -9.2140  -26.1750   46.2090 O.2   197  LEU197     -0.2718
    160  CB       -12.2930  -25.5200   45.1800 C.3   197  LEU197      0.0284
    161  CG       -12.8820  -25.1680   43.8200 C.3   197  LEU197      0.0019
    162  CD1      -13.9960  -24.1380   43.9710 C.3   197  LEU197      0.0001
    163  CD2      -11.7840  -24.6590   42.9070 C.3   197  LEU197      0.0001
    164  N        -10.8430  -27.0170   47.5080 N.am  198  ASN198     -0.1974
    165  CA       -10.0570  -26.9050   48.7300 C.3   198  ASN198      0.1688
    166  C         -8.9470  -27.9420   48.8390 C.2   198  ASN198      0.2292
    167  O         -7.9940  -27.7570   49.5930 O.2   198  ASN198     -0.2864
    168  CB       -10.9760  -27.0190   49.9460 C.3   198  ASN198      0.1181
    169  CG       -10.3880  -26.3720   51.1750 C.2   198  ASN198      0.2629
    170  OD1       -9.8130  -25.2860   51.1020 O.2   198  ASN198     -0.2716
    171  ND2      -10.5210  -27.0390   52.3170 N.am  198  ASN198     -0.0877
@<TRIPOS>BOND
     1   125   124    2
     2   124   123    1
     3   123   122    1
     4   123   126    1
     5   114   113    2
     6   126   127    1
     7   113   112    1
     8   127   128    1
     9   128   129    1
    10   112   115    1
    11   112   111    1
    12    48    49    1
    13   115   116    1
    14   110   109    2
    15   129   130    2
    16   116   117    1
    17   111   109   am
    18   102   101    2
    19    98    97    2
    20   109   108    1
    21    68    66   ar
    22   117   118    1
    23    49    50    1
    24    49    52    1
    25    50    51    2
    26   130   132    1
    27   130   131    1
    28    52    53    1
    29    60    61    1
    30   141   139   ar
    31   141   143   ar
    32   101   100    1
    33   101   107   am
    34   144   143    1
    35   118   119    2
    36    66    65    1
    37    66    67   ar
    38    97    96    1
    39    97    99   am
    40    65    64    1
    41   108   107    1
    42   139   138   ar
    43   100    99    1
    44   100   103    1
    45   120   119    1
    46   143   142   ar
    47     8     6    1
    48   119   121    1
    49    61    64    1
    50    61    62    1
    51    96    95    1
    52    53    55   ar
    53    53    54   ar
    54   105   104    2
    55    55    57   ar
    56   138   137    1
    57   138   140   ar
    58   103   104    1
    59    90    89    2
    60   142   140   ar
    61   163   161    1
    62    77    78    1
    63   104   106   am
    64     6     5    1
    65   137   134    1
    66    69    62   am
    67    69    70    1
    68    54    56   ar
    69    62    63    2
    70    79    78    1
    71    79    80    2
    72     5     7    1
    73     5     2    1
    74    95    89   am
    75    78    81    1
    76    13    10    1
    77     1     2    1
    78    89    88    1
    79    57    58   ar
    80   161   162    1
    81   161   160    1
    82   134   133    1
    83   134   135    1
    84    73    70    1
    85    73    74    1
    86    71    70    1
    87    71    72    2
    88     9    10    1
    89     9     3   am
    90     2     3    1
    91    56    58   ar
    92   136   135    2
    93    10    11    1
    94   135   145   am
    95    58    59    1
    96     3     4    2
    97    83    82   ar
    98    83    85   ar
    99    81    82    1
   100    76    74    1
   101    87    88    1
   102    88    91    1
   103   157   156    1
   104   157   160    1
   105   157   158    1
   106    74    75    1
   107    82    84   ar
   108    85    86   ar
   109    11    12    2
   110    91    92    1
   111   145   146    1
   112    93    92   ar
   113   159   158    2
   114    92    94   ar
   115    84    86   ar
   116   158   164   am
   117   146   147    1
   118   146   149    1
   119   150   149    1
   120   150   151    1
   121   164   165    1
   122   147   148    2
   123    21    19    1
   124   152   151    1
   125   152   153    2
   126   154   153    1
   127    19    18    1
   128   153   155    1
   129   165   166    1
   130   165   168    1
   131   166   167    2
   132    20    18    1
   133    18    15    1
   134    47    45    1
   135   168   169    1
   136    46    45    1
   137    15    14    1
   138    15    16    1
   139    45    42    1
   140   170   169    2
   141   169   171   am
   142    43    44    2
   143    43    42    1
   144    40    38    1
   145    16    17    2
   146    16    22   am
   147    42    41    1
   148    39    38    1
   149    22    23    1
   150    38    35    1
   151    25    24    2
   152    24    23    1
   153    24    30   am
   154    23    26    1
   155    35    34    1
   156    35    36    1
   157    33    32    2
   158    34    32   am
   159    32    31    1
   160    31    30    1
   161    36    37    2
   162    26    27    1
   163    27    28    1
   164    27    29    1
