@<TRIPOS>MOLECULE
tmp/4x2fA00.pdb
 125 116 0 0 0
SMALL
GASTEIGER

@<TRIPOS>ATOM
      1  N         24.4790   64.4770    4.1410 N.3    13  ILE13      -0.1231
      2  CA        24.7490   65.9020    4.4250 C.3    13  ILE13       0.1692
      3  C         24.4990   66.3160    5.8590 C.2    13  ILE13       0.2592
      4  O         24.9370   67.3970    6.2650 O.2    13  ILE13      -0.2718
      5  CB        23.9850   66.8300    3.4380 C.3    13  ILE13       0.0266
      6  CG1       22.4510   66.6250    3.4640 C.3    13  ILE13       0.0019
      7  CG2       24.5440   66.6730    2.0100 C.3    13  ILE13       0.0020
      8  CD1       21.6820   67.6930    2.6110 C.3    13  ILE13       0.0001
      9  N         23.8190   65.4920    6.6190 N.am   14  GLY14      -0.1957
     10  CA        23.5230   65.8460    8.0030 C.3    14  GLY14       0.1869
     11  C         23.0360   64.6720    8.8060 C.2    14  GLY14       0.2309
     12  O         22.2910   63.8420    8.3000 O.2    14  GLY14      -0.2863
     13  N         20.0650   63.0070    6.9130 N.3    21  VAL21      -0.1245
     14  CA        19.6580   63.6650    5.6650 C.3    21  VAL21       0.1561
     15  C         20.6930   63.4770    4.5750 C.2    21  VAL21       0.2260
     16  O         21.8840   63.6740    4.7930 O.2    21  VAL21      -0.2867
     17  CB        19.3140   65.1620    5.8700 C.3    21  VAL21       0.0252
     18  CG1       18.8170   65.7950    4.5790 C.3    21  VAL21       0.0019
     19  CG2       18.2590   65.3580    6.9830 C.3    21  VAL21       0.0019
     20  N         16.0790   66.0440   -1.2120 N.3    32  ALA32      -0.1245
     21  CA        16.6270   65.7010    0.0790 C.3    32  ALA32       0.1562
     22  C         15.9120   64.4380    0.5380 C.2    32  ALA32       0.2260
     23  O         14.6940   64.2740    0.3090 O.2    32  ALA32      -0.2867
     24  CB        16.3710   66.8300    1.0650 C.3    32  ALA32       0.0290
     25  N         15.4810   62.1360    3.9490 N.3    34  LYS34      -0.1245
     26  CA        15.7510   61.8880    5.3530 C.3    34  LYS34       0.1561
     27  C         15.5040   60.3990    5.5810 C.2    34  LYS34       0.2260
     28  O         14.4120   59.8790    5.2810 O.2    34  LYS34      -0.2867
     29  CB        14.8630   62.7310    6.2350 C.3    34  LYS34       0.0271
     30  CG        15.2320   62.6350    7.7220 C.3    34  LYS34       0.0035
     31  CD        14.3650   63.5900    8.5690 C.3    34  LYS34       0.0206
     32  CE        14.6730   65.0440    8.4050 C.3    34  LYS34       0.1093
     33  NZ        13.8450   65.8380    9.3470 N.3    34  LYS34      -0.1314
     34  N          8.9000   73.7300    3.8700 N.3    62  LEU62      -0.1245
     35  CA         9.5980   72.7420    3.0260 C.3    62  LEU62       0.1561
     36  C          8.5890   71.8610    2.2670 C.2    62  LEU62       0.2260
     37  O          7.6700   71.3340    2.8890 O.2    62  LEU62      -0.2867
     38  CB        10.4730   71.8640    3.9000 C.3    62  LEU62       0.0270
     39  CG        11.1830   70.7120    3.1700 C.3    62  LEU62       0.0019
     40  CD1       12.1820   71.2220    2.1090 C.3    62  LEU62       0.0001
     41  CD2       11.8620   69.8060    4.1990 C.3    62  LEU62       0.0001
     42  N         11.9440   65.1090    0.1240 N.3    82  SER82      -0.1202
     43  CA        11.4860   66.4860    0.0340 C.3    82  SER82       0.2020
     44  C         12.2820   67.2720   -0.9900 C.2    82  SER82       0.2619
     45  O         13.2260   66.7640   -1.6350 O.2    82  SER82      -0.2717
     46  CB        11.6120   67.1720    1.3950 C.3    82  SER82       0.2103
     47  OG        12.9750   67.2820    1.7700 O.3    82  SER82      -0.2182
     48  N         11.9260   68.5510   -1.1220 N.am   83  ASP83      -0.1959
     49  CA        12.6770   69.4200   -2.0050 C.3    83  ASP83       0.1840
     50  C         14.0780   69.6270   -1.3880 C.2    83  ASP83       0.2622
     51  O         14.2480   69.5780   -0.1580 O.2    83  ASP83      -0.2715
     52  CB        12.0080   70.7980   -2.0600 C.3    83  ASP83       0.1450
     53  CG        10.6310   70.8460   -2.6690 C.2    83  ASP83       0.3671
     54  OD1       10.2400   69.8720   -3.3300 O.co2  83  ASP83      -0.2456
     55  OD2        9.9820   71.9010   -2.5650 O.co2  83  ASP83      -0.2456
     56  N         15.0580   69.8690   -2.2630 N.am   84  TYR84      -0.1960
     57  CA        16.4160   70.1260   -1.8340 C.3    84  TYR84       0.1771
     58  C         16.7470   71.5780   -1.9920 C.2    84  TYR84       0.2619
     59  O         16.4900   72.1710   -3.0500 O.2    84  TYR84      -0.2715
     60  CB        17.4050   69.2680   -2.6550 C.3    84  TYR84       0.0574
     61  CG        18.8460   69.5000   -2.2560 C.ar   84  TYR84      -0.0198
     62  CD1       19.3200   69.0840   -1.0180 C.ar   84  TYR84      -0.0009
     63  CD2       19.7180   70.1860   -3.0980 C.ar   84  TYR84      -0.0009
     64  CE1       20.6320   69.3510   -0.6190 C.ar   84  TYR84       0.0417
     65  CE2       21.0310   70.4590   -2.7090 C.ar   84  TYR84       0.0417
     66  CZ        21.4740   70.0450   -1.4700 C.ar   84  TYR84       0.1957
     67  OH        22.7780   70.3050   -1.0970 O.3    84  TYR84      -0.2866
     68  N         17.3560   72.1530   -0.9270 N.am   85  HIS85      -0.1973
     69  CA        17.7780   73.5680   -0.9540 C.3    85  HIS85       0.1656
     70  C         19.2830   73.6500   -0.7270 C.2    85  HIS85       0.2291
     71  O         19.7740   73.4140    0.3750 O.2    85  HIS85      -0.2864
     72  CB        16.9780   74.3940    0.0550 C.3    85  HIS85       0.0771
     73  CG        15.5230   74.4370   -0.2940 C.ar   85  HIS85       0.0820
     74  ND1       15.0750   75.0580   -1.4480 N.ar   85  HIS85      -0.2267
     75  CD2       14.4670   73.8610    0.3310 C.ar   85  HIS85       0.1154
     76  CE1       13.7580   74.8540   -1.4730 C.ar   85  HIS85       0.1986
     77  NE2       13.3550   74.1270   -0.4370 N.ar   85  HIS85      -0.2212
     78  N         21.2140   75.1340    2.1720 N.3    88  GLY88      -0.1210
     79  CA        21.1010   74.5040    3.4670 C.3    88  GLY88       0.1956
     80  C         20.3850   75.4070    4.4490 C.2    88  GLY88       0.2612
     81  O         19.4390   76.1180    4.0750 O.2    88  GLY88      -0.2717
     82  N         20.7630   75.3040    5.7050 N.am   89  SER89      -0.1952
     83  CA        20.0580   76.0080    6.7500 C.3    89  SER89       0.1924
     84  C         20.3660   77.4880    6.8020 C.2    89  SER89       0.2314
     85  O         21.4320   77.9500    6.3820 O.2    89  SER89      -0.2863
     86  CB        20.3540   75.3750    8.1080 C.3    89  SER89       0.2116
     87  OG        21.7220   75.6000    8.4330 O.3    89  SER89      -0.2180
     88  N         23.6180   77.8800    8.5350 N.3    92  ASP92      -0.1239
     89  CA        24.7870   77.8300    7.6170 C.3    92  ASP92       0.1674
     90  C         24.9200   79.1030    6.7780 C.2    92  ASP92       0.2266
     91  O         26.0250   79.6480    6.5930 O.2    92  ASP92      -0.2867
     92  CB        24.6580   76.6490    6.6700 C.3    92  ASP92       0.1410
     93  CG        24.8080   75.2800    7.2930 C.2    92  ASP92       0.3668
     94  OD1       25.1510   75.2020    8.4760 O.co2  92  ASP92      -0.2456
     95  OD2       24.6770   74.2780    6.5560 O.co2  92  ASP92      -0.2456
     96  N         18.8950   76.4270   12.6150 N.3   139  LYS139     -0.1245
     97  CA        19.3420   75.1810   12.0000 C.3   139  LYS139      0.1561
     98  C         18.1830   74.3860   11.3360 C.2   139  LYS139      0.2260
     99  O         18.4720   73.4740   10.5320 O.2   139  LYS139     -0.2867
    100  CB        20.0820   74.3310   13.0590 C.3   139  LYS139      0.0271
    101  CG        21.4640   74.8550   13.3670 C.3   139  LYS139      0.0035
    102  CD        22.1050   74.1610   14.6000 C.3   139  LYS139      0.0206
    103  CE        23.3470   74.9340   15.0360 C.3   139  LYS139      0.1093
    104  NZ        23.9250   74.4270   16.3260 N.3   139  LYS139     -0.1314
    105  N         15.3780   76.5330    6.1920 N.3   142  LEU142     -0.1245
    106  CA        16.2590   76.4140    5.0350 C.3   142  LEU142      0.1561
    107  C         16.1730   77.6600    4.1870 C.2   142  LEU142      0.2260
    108  O         15.1720   78.3680    4.2460 O.2   142  LEU142     -0.2867
    109  CB        15.8340   75.1980    4.2040 C.3   142  LEU142      0.0270
    110  CG        15.7970   73.8910    4.9520 C.3   142  LEU142      0.0019
    111  CD1       15.1190   72.8340    4.1090 C.3   142  LEU142      0.0001
    112  CD2       17.2180   73.4170    5.3390 C.3   142  LEU142      0.0001
    113  N         11.4270   73.9700    8.0450 N.3   152  ALA152     -0.1231
    114  CA        11.5910   72.5290    7.8730 C.3   152  ALA152      0.1694
    115  C         11.6070   71.8230    9.2320 C.2   152  ALA152      0.2592
    116  O         11.2710   72.4280   10.2590 O.2   152  ALA152     -0.2718
    117  CB        12.8850   72.2290    7.1000 C.3   152  ALA152      0.0304
    118  N         11.9580   70.5490    9.2430 N.am  153  ASP153     -0.1974
    119  CA        12.0450   69.7140   10.4390 C.3   153  ASP153      0.1709
    120  C         10.7750   69.8290   11.3000 C.2   153  ASP153      0.2293
    121  O         10.8030   70.1610   12.4930 O.2   153  ASP153     -0.2864
    122  CB        13.3580   70.0020   11.2080 C.3   153  ASP153      0.1436
    123  CG        14.5720   69.3160   10.5600 C.2   153  ASP153      0.3671
    124  OD1       14.4070   68.6880    9.4760 O.co2 153  ASP153     -0.2456
    125  OD2       15.6540   69.3230   11.1730 O.co2 153  ASP153     -0.2456
@<TRIPOS>BOND
     1    54    53   ar
     2    63    65   ar
     3    63    61   ar
     4    59    58    2
     5    65    66   ar
     6    53    55   ar
     7    53    52    1
     8    60    61    1
     9    60    57    1
    10    56    57    1
    11    56    50   am
    12    61    62   ar
    13    52    49    1
    14    49    50    1
    15    49    48    1
    16    58    57    1
    17    58    68   am
    18    45    44    2
    19    76    74   ar
    20    76    77   ar
    21    66    67    1
    22    66    64   ar
    23    74    73   ar
    24    50    51    2
    25    20    21    1
    26    48    44   am
    27    62    64   ar
    28    44    43    1
    29    69    68    1
    30    69    70    1
    31    69    72    1
    32    70    71    2
    33    77    75   ar
    34    73    72    1
    35    73    75   ar
    36    43    42    1
    37    43    46    1
    38    21    22    1
    39    21    24    1
    40    23    22    2
    41    46    47    1
    42     7     5    1
    43    40    39    1
    44    78    79    1
    45    36    37    2
    46    36    35    1
    47     8     6    1
    48    35    34    1
    49    35    38    1
    50    39    38    1
    51    39    41    1
    52     5     6    1
    53     5     2    1
    54    79    80    1
    55    25    26    1
    56    81    80    2
    57   111   110    1
    58     1     2    1
    59   107   108    2
    60   107   106    1
    61   109   110    1
    62   109   106    1
    63     2     3    1
    64    80    82   am
    65    15    16    2
    66    15    14    1
    67    18    17    1
    68   110   112    1
    69   106   105    1
    70    28    27    2
    71    26    27    1
    72    26    29    1
    73    14    17    1
    74    14    13    1
    75    82    83    1
    76     3     4    2
    77     3     9   am
    78    17    19    1
    79    29    30    1
    80    85    84    2
    81    95    93   ar
    82    91    90    2
    83     9    10    1
    84    92    93    1
    85    92    89    1
    86    83    84    1
    87    83    86    1
    88    90    89    1
    89   117   114    1
    90    93    94   ar
    91    89    88    1
    92    30    31    1
    93   114   113    1
    94   114   115    1
    95    10    11    1
    96    86    87    1
    97    12    11    2
    98    32    31    1
    99    32    33    1
   100   115   118   am
   101   115   116    2
   102   118   119    1
   103   124   123   ar
   104   119   122    1
   105   119   120    1
   106    99    98    2
   107   123   125   ar
   108   123   122    1
   109   120   121    2
   110    98    97    1
   111    97    96    1
   112    97   100    1
   113   100   101    1
   114   101   102    1
   115   102   103    1
   116   103   104    1
