@<TRIPOS>MOLECULE
tmp/4x2gA00.pdb
 125 116 0 0 0
SMALL
GASTEIGER

@<TRIPOS>ATOM
      1  N         24.5450   64.5840    4.1430 N.3    13  ILE13      -0.1231
      2  CA        24.8160   65.9880    4.4680 C.3    13  ILE13       0.1692
      3  C         24.6110   66.3310    5.9290 C.2    13  ILE13       0.2592
      4  O         25.1280   67.3660    6.3730 O.2    13  ILE13      -0.2718
      5  CB        24.0360   66.9530    3.5320 C.3    13  ILE13       0.0266
      6  CG1       22.5020   66.7320    3.5650 C.3    13  ILE13       0.0019
      7  CG2       24.5770   66.8520    2.0810 C.3    13  ILE13       0.0020
      8  CD1       21.7030   67.7450    2.6550 C.3    13  ILE13       0.0001
      9  N         23.9170   65.4930    6.6720 N.am   14  GLY14      -0.1957
     10  CA        23.6640   65.7630    8.0880 C.3    14  GLY14       0.1869
     11  C         23.2200   64.5440    8.8590 C.2    14  GLY14       0.2309
     12  O         22.5030   63.7060    8.3230 O.2    14  GLY14      -0.2863
     13  N         20.2070   63.0220    6.9230 N.3    21  VAL21      -0.1245
     14  CA        19.7820   63.7190    5.7040 C.3    21  VAL21       0.1561
     15  C         20.8010   63.5360    4.5850 C.2    21  VAL21       0.2260
     16  O         21.9890   63.7400    4.7990 O.2    21  VAL21      -0.2867
     17  CB        19.4260   65.2170    5.9280 C.3    21  VAL21       0.0252
     18  CG1       18.8570   65.8390    4.6660 C.3    21  VAL21       0.0019
     19  CG2       18.4280   65.4020    7.0930 C.3    21  VAL21       0.0019
     20  N         16.1240   66.1800   -1.2290 N.3    32  ALA32      -0.1245
     21  CA        16.6670   65.8030    0.0580 C.3    32  ALA32       0.1562
     22  C         15.9810   64.5350    0.5210 C.2    32  ALA32       0.2260
     23  O         14.7820   64.3430    0.2550 O.2    32  ALA32      -0.2867
     24  CB        16.4360   66.9040    1.0780 C.3    32  ALA32       0.0290
     25  N         15.5780   62.2200    3.9750 N.3    34  LYS34      -0.1245
     26  CA        15.8490   61.9680    5.3820 C.3    34  LYS34       0.1561
     27  C         15.6010   60.4760    5.5990 C.2    34  LYS34       0.2260
     28  O         14.5120   59.9600    5.2810 O.2    34  LYS34      -0.2867
     29  CB        14.9540   62.8020    6.2970 C.3    34  LYS34       0.0271
     30  CG        15.3740   62.7060    7.7910 C.3    34  LYS34       0.0035
     31  CD        14.5570   63.6800    8.6430 C.3    34  LYS34       0.0206
     32  CE        15.0110   63.6550   10.0680 C.3    34  LYS34       0.1093
     33  NZ        14.2640   64.6440   10.8910 N.3    34  LYS34      -0.1314
     34  N          8.8910   73.9170    3.8880 N.3    62  LEU62      -0.1245
     35  CA         9.5990   72.9440    3.0640 C.3    62  LEU62       0.1561
     36  C          8.5800   72.0800    2.2710 C.2    62  LEU62       0.2260
     37  O          7.6420   71.5230    2.8690 O.2    62  LEU62      -0.2867
     38  CB        10.4390   72.0350    3.9690 C.3    62  LEU62       0.0270
     39  CG        11.1230   70.8530    3.2460 C.3    62  LEU62       0.0019
     40  CD1       12.1310   71.3230    2.2080 C.3    62  LEU62       0.0001
     41  CD2       11.7630   69.9210    4.2940 C.3    62  LEU62       0.0001
     42  N         12.0440   65.2510    0.1760 N.3    82  SER82      -0.1202
     43  CA        11.5650   66.6390    0.1000 C.3    82  SER82       0.2020
     44  C         12.4100   67.4750   -0.8090 C.2    82  SER82       0.2619
     45  O         13.4340   66.9760   -1.3320 O.2    82  SER82      -0.2717
     46  CB        11.5300   67.2680    1.4900 C.3    82  SER82       0.2103
     47  OG        12.8420   67.2700    2.0170 O.3    82  SER82      -0.2182
     48  N         12.0010   68.7320   -1.0310 N.am   83  ASP83      -0.1959
     49  CA        12.7630   69.6040   -1.9060 C.3    83  ASP83       0.1840
     50  C         14.1490   69.8440   -1.3270 C.2    83  ASP83       0.2622
     51  O         14.3170   69.9040   -0.1030 O.2    83  ASP83      -0.2715
     52  CB        12.0770   70.9680   -2.0150 C.3    83  ASP83       0.1450
     53  CG        10.6820   70.9880   -2.6100 C.2    83  ASP83       0.3671
     54  OD1       10.2910   69.9970   -3.2540 O.co2  83  ASP83      -0.2456
     55  OD2       10.0210   72.0480   -2.5300 O.co2  83  ASP83      -0.2456
     56  N         15.1310   70.0170   -2.2210 N.am   84  TYR84      -0.1960
     57  CA        16.4960   70.3180   -1.8500 C.3    84  TYR84       0.1771
     58  C         16.7840   71.7800   -2.0350 C.2    84  TYR84       0.2619
     59  O         16.4940   72.3620   -3.0850 O.2    84  TYR84      -0.2715
     60  CB        17.4950   69.4970   -2.7140 C.3    84  TYR84       0.0574
     61  CG        18.9230   69.6540   -2.2300 C.ar   84  TYR84      -0.0198
     62  CD1       19.3180   69.1350   -1.0020 C.ar   84  TYR84      -0.0009
     63  CD2       19.8530   70.3850   -2.9630 C.ar   84  TYR84      -0.0009
     64  CE1       20.6060   69.3230   -0.5150 C.ar   84  TYR84       0.0417
     65  CE2       21.1560   70.5850   -2.4790 C.ar   84  TYR84       0.0417
     66  CZ        21.5200   70.0420   -1.2590 C.ar   84  TYR84       0.1957
     67  OH        22.7860   70.2170   -0.7360 O.3    84  TYR84      -0.2866
     68  N         17.3970   72.3740   -0.9960 N.am   85  HIS85      -0.1973
     69  CA        17.8110   73.7860   -1.0290 C.3    85  HIS85       0.1656
     70  C         19.3280   73.8830   -0.7930 C.2    85  HIS85       0.2291
     71  O         19.8220   73.6440    0.3020 O.2    85  HIS85      -0.2864
     72  CB        16.9980   74.5780    0.0000 C.3    85  HIS85       0.0771
     73  CG        15.5480   74.6220   -0.3600 C.ar   85  HIS85       0.0820
     74  ND1       15.1210   75.2130   -1.5270 N.ar   85  HIS85      -0.2267
     75  CD2       14.4760   74.0780    0.2770 C.ar   85  HIS85       0.1154
     76  CE1       13.8050   75.0420   -1.5620 C.ar   85  HIS85       0.1986
     77  NE2       13.3720   74.3520   -0.5040 N.ar   85  HIS85      -0.2212
     78  N         21.2630   75.3260    2.1460 N.3    88  GLY88      -0.1210
     79  CA        21.1490   74.6850    3.4330 C.3    88  GLY88       0.1956
     80  C         20.4040   75.5580    4.4260 C.2    88  GLY88       0.2612
     81  O         19.4680   76.2750    4.0580 O.2    88  GLY88      -0.2717
     82  N         20.7750   75.4360    5.6920 N.am   89  SER89      -0.1952
     83  CA        20.0580   76.1290    6.7540 C.3    89  SER89       0.1924
     84  C         20.3680   77.6090    6.8240 C.2    89  SER89       0.2314
     85  O         21.4450   78.0650    6.3940 O.2    89  SER89      -0.2863
     86  CB        20.3790   75.4930    8.0970 C.3    89  SER89       0.2116
     87  OG        21.7310   75.7670    8.4370 O.3    89  SER89      -0.2180
     88  N         23.6020   78.0100    8.5560 N.3    92  ASP92      -0.1239
     89  CA        24.7770   77.9760    7.6480 C.3    92  ASP92       0.1674
     90  C         24.9110   79.2530    6.8240 C.2    92  ASP92       0.2266
     91  O         26.0140   79.8210    6.6920 O.2    92  ASP92      -0.2867
     92  CB        24.6710   76.7700    6.6930 C.3    92  ASP92       0.1410
     93  CG        24.7990   75.4160    7.3520 C.2    92  ASP92       0.3668
     94  OD1       25.1360   75.3600    8.5530 O.co2  92  ASP92      -0.2456
     95  OD2       24.6750   74.4020    6.6390 O.co2  92  ASP92      -0.2456
     96  N         18.8200   76.5900   12.6230 N.3   139  LYS139     -0.1245
     97  CA        19.2370   75.3340   11.9950 C.3   139  LYS139      0.1561
     98  C         18.0510   74.5660   11.3840 C.2   139  LYS139      0.2260
     99  O         18.2930   73.6150   10.6260 O.2   139  LYS139     -0.2867
    100  CB        19.9570   74.4530   13.0300 C.3   139  LYS139      0.0271
    101  CG        21.3520   74.9920   13.3500 C.3   139  LYS139      0.0035
    102  CD        21.9810   74.2800   14.5600 C.3   139  LYS139      0.0206
    103  CE        23.1940   75.0820   15.0270 C.3   139  LYS139      0.1093
    104  NZ        23.7430   74.5730   16.3290 N.3   139  LYS139     -0.1314
    105  N         15.4030   76.6880    6.1570 N.3   142  LEU142     -0.1245
    106  CA        16.2740   76.5740    4.9850 C.3   142  LEU142      0.1561
    107  C         16.1840   77.8320    4.1520 C.2   142  LEU142      0.2260
    108  O         15.1730   78.5350    4.1790 O.2   142  LEU142     -0.2867
    109  CB        15.8600   75.3650    4.1310 C.3   142  LEU142      0.0270
    110  CG        15.8950   74.0300    4.8880 C.3   142  LEU142      0.0019
    111  CD1       15.2010   72.9370    4.0730 C.3   142  LEU142      0.0001
    112  CD2       17.3400   73.5790    5.1910 C.3   142  LEU142      0.0001
    113  N         11.4860   74.1870    8.0680 N.3   152  ALA152     -0.1231
    114  CA        11.6420   72.7440    7.8990 C.3   152  ALA152      0.1694
    115  C         11.6110   72.0350    9.2610 C.2   152  ALA152      0.2592
    116  O         11.1930   72.6280   10.2640 O.2   152  ALA152     -0.2718
    117  CB        12.9490   72.4400    7.1520 C.3   152  ALA152      0.0304
    118  N         12.0440   70.7810    9.3100 N.am  153  ASP153     -0.1974
    119  CA        12.1060   69.9910   10.5460 C.3   153  ASP153      0.1709
    120  C         10.8120   70.0530   11.3610 C.2   153  ASP153      0.2293
    121  O         10.8200   70.3880   12.5490 O.2   153  ASP153     -0.2864
    122  CB        13.3080   70.4010   11.4160 C.3   153  ASP153      0.1436
    123  CG        14.6200   70.3630   10.6930 C.2   153  ASP153      0.3671
    124  OD1       15.3750   69.3890   10.8960 O.co2 153  ASP153     -0.2456
    125  OD2       14.9320   71.3490    9.9880 O.co2 153  ASP153     -0.2456
@<TRIPOS>BOND
     1    54    53   ar
     2    59    58    2
     3    63    65   ar
     4    63    61   ar
     5    60    61    1
     6    60    57    1
     7    53    55   ar
     8    53    52    1
     9    65    66   ar
    10    61    62   ar
    11    56    57    1
    12    56    50   am
    13    58    57    1
    14    58    68   am
    15    52    49    1
    16    49    50    1
    17    49    48    1
    18    76    74   ar
    19    76    77   ar
    20    74    73   ar
    21    45    44    2
    22    50    51    2
    23    66    67    1
    24    66    64   ar
    25    20    21    1
    26    48    44   am
    27    69    68    1
    28    69    70    1
    29    69    72    1
    30    62    64   ar
    31    44    43    1
    32    70    71    2
    33    77    75   ar
    34    73    72    1
    35    73    75   ar
    36    21    22    1
    37    21    24    1
    38    43    42    1
    39    43    46    1
    40    23    22    2
    41    46    47    1
    42     7     5    1
    43    78    79    1
    44    40    39    1
    45    36    37    2
    46    36    35    1
    47     8     6    1
    48    35    34    1
    49    35    38    1
    50    39    38    1
    51    39    41    1
    52    79    80    1
    53     5     6    1
    54     5     2    1
    55    25    26    1
    56    81    80    2
    57   111   110    1
    58   109   110    1
    59   109   106    1
    60     1     2    1
    61   107   108    2
    62   107   106    1
    63    80    82   am
    64     2     3    1
    65    15    16    2
    66    15    14    1
    67    18    17    1
    68   110   112    1
    69   106   105    1
    70    28    27    2
    71    26    27    1
    72    26    29    1
    73    82    83    1
    74    14    17    1
    75    14    13    1
    76    17    19    1
    77     3     4    2
    78     3     9   am
    79    29    30    1
    80    85    84    2
    81    95    93   ar
    82     9    10    1
    83    91    90    2
    84    92    93    1
    85    92    89    1
    86    83    84    1
    87    83    86    1
    88    90    89    1
    89   117   114    1
    90    93    94   ar
    91    89    88    1
    92    30    31    1
    93   114   113    1
    94   114   115    1
    95    10    11    1
    96    86    87    1
    97    12    11    2
    98    31    32    1
    99   115   118   am
   100   115   116    2
   101   118   119    1
   102   125   123   ar
   103    32    33    1
   104   119   120    1
   105   119   122    1
   106    99    98    2
   107   123   124   ar
   108   123   122    1
   109   120   121    2
   110    98    97    1
   111    97    96    1
   112    97   100    1
   113   100   101    1
   114   101   102    1
   115   102   103    1
   116   103   104    1
