@<TRIPOS>MOLECULE
tmp/4x2hA00.pdb
 191 192 0 0 0
SMALL
GASTEIGER

@<TRIPOS>ATOM
      1  N        -76.1500 -209.3460   68.4050 N.3    13  ASP13      -0.1225
      2  CA       -75.4920 -209.4170   69.7120 C.3    13  ASP13       0.1805
      3  C        -75.9780 -208.3770   70.7140 C.2    13  ASP13       0.2598
      4  O        -75.3460 -208.1750   71.7470 O.2    13  ASP13      -0.2718
      5  CB       -73.9800 -209.2680   69.5500 C.3    13  ASP13       0.1424
      6  CG       -73.5950 -207.9430   68.9540 C.2    13  ASP13       0.3668
      7  OD1      -74.4570 -207.3270   68.2960 O.co2  13  ASP13      -0.2456
      8  OD2      -72.4340 -207.5240   69.1350 O.co2  13  ASP13      -0.2456
      9  N        -77.0860 -207.7130   70.4130 N.am   14  GLY14      -0.1942
     10  CA       -77.7000 -206.8180   71.3780 C.3    14  GLY14       0.2014
     11  C        -77.1160 -205.4180   71.4000 C.2    14  GLY14       0.2639
     12  O        -76.2550 -205.0690   70.5910 O.2    14  GLY14      -0.2714
     13  N        -77.5860 -204.6270   72.3610 N.am   15  GLU15      -0.1963
     14  CA       -77.3410 -203.1880   72.4020 C.3    15  GLU15       0.1733
     15  C        -75.8620 -202.7990   72.4910 C.2    15  GLU15       0.2616
     16  O        -75.4260 -201.8660   71.8170 O.2    15  GLU15      -0.2715
     17  CB       -78.1060 -202.5870   73.5900 C.3    15  GLU15       0.0429
     18  CG       -78.0340 -201.0730   73.6950 C.3    15  GLU15       0.1163
     19  CD       -78.7870 -200.5350   74.9020 C.2    15  GLU15       0.3649
     20  OE1      -79.2900 -201.3500   75.7060 O.co2  15  GLU15      -0.2457
     21  OE2      -78.8730 -199.2960   75.0460 O.co2  15  GLU15      -0.2457
     22  N        -75.0950 -203.5070   73.3140 N.am   16  ASN16      -0.1958
     23  CA       -73.7160 -203.1100   73.6090 C.3    16  ASN16       0.1819
     24  C        -72.6830 -203.5350   72.5620 C.2    16  ASN16       0.2621
     25  O        -71.4990 -203.2500   72.7200 O.2    16  ASN16      -0.2715
     26  CB       -73.2940 -203.6700   74.9700 C.3    16  ASN16       0.1195
     27  CG       -74.0920 -203.0790   76.1180 C.2    16  ASN16       0.2630
     28  OD1      -74.6140 -201.9690   76.0220 O.2    16  ASN16      -0.2716
     29  ND2      -74.1840 -203.8200   77.2160 N.am   16  ASN16      -0.0877
     30  N        -73.1270 -204.2170   71.5090 N.am   17  ASN17      -0.1958
     31  CA       -72.2480 -204.6120   70.4020 C.3    17  ASN17       0.1819
     32  C        -70.9850 -205.3520   70.8530 C.2    17  ASN17       0.2621
     33  O        -69.9130 -205.1730   70.2800 O.2    17  ASN17      -0.2715
     34  CB       -71.8450 -203.3810   69.5850 C.3    17  ASN17       0.1195
     35  CG       -73.0280 -202.7100   68.9190 C.2    17  ASN17       0.2630
     36  OD1      -73.9330 -203.3740   68.4150 O.2    17  ASN17      -0.2716
     37  ND2      -73.0280 -201.3820   68.9170 N.am   17  ASN17      -0.0877
     38  N        -71.1130 -206.1900   71.8780 N.am   18  VAL18      -0.1977
     39  CA       -69.9550 -206.8860   72.4300 C.3    18  VAL18       0.1596
     40  C        -69.2510 -207.7650   71.3900 C.2    18  VAL18       0.2287
     41  O        -68.0270 -207.8920   71.4090 O.2    18  VAL18      -0.2864
     42  CB       -70.3640 -207.7490   73.6430 C.3    18  VAL18       0.0276
     43  CG1      -69.2140 -208.6430   74.1060 C.3    18  VAL18       0.0022
     44  CG2      -70.8210 -206.8540   74.7820 C.3    18  VAL18       0.0022
     45  N        -77.7710 -213.6550   71.4240 N.3   120  THR120     -0.1218
     46  CA       -77.8040 -213.7400   72.8740 C.3   120  THR120      0.1862
     47  C        -78.7890 -214.8210   73.2940 C.2   120  THR120      0.2287
     48  O        -79.8430 -214.9890   72.6800 O.2   120  THR120     -0.2866
     49  CB       -78.1990 -212.3980   73.5150 C.3   120  THR120      0.1770
     50  OG1      -79.4590 -211.9650   72.9850 O.3   120  THR120     -0.2211
     51  CG2      -77.1420 -211.3430   73.2290 C.3   120  THR120      0.0375
     52  N        -80.4610 -217.2670   76.8390 N.3   122  PRO122     -0.2102
     53  CA       -80.6870 -217.2600   78.2880 C.3   122  PRO122      0.1504
     54  C        -80.1290 -218.4670   79.0430 C.2   122  PRO122      0.2575
     55  O        -79.7570 -219.4800   78.4420 O.2   122  PRO122     -0.2718
     56  CB       -82.2110 -217.2550   78.3870 C.3   122  PRO122      0.0282
     57  CG       -82.6400 -218.0490   77.1970 C.3   122  PRO122      0.0208
     58  CD       -81.6760 -217.6650   76.1040 C.3   122  PRO122      0.0893
     59  N        -80.0550 -218.3050   80.3630 N.am  123  HIS123     -0.1976
     60  CA       -79.9690 -219.3980   81.3320 C.3   123  HIS123      0.1656
     61  C        -78.5600 -219.9280   81.5760 C.2   123  HIS123      0.2291
     62  O        -78.3850 -221.0790   81.9660 O.2   123  HIS123     -0.2864
     63  CB       -80.9060 -220.5310   80.9120 C.3   123  HIS123      0.0771
     64  CG       -82.3280 -220.0870   80.7610 C.ar  123  HIS123      0.0820
     65  ND1      -83.1540 -220.5370   79.7540 N.ar  123  HIS123     -0.2267
     66  CD2      -83.0690 -219.2250   81.4980 C.ar  123  HIS123      0.1154
     67  CE1      -84.3400 -219.9670   79.8720 C.ar  123  HIS123      0.1986
     68  NE2      -84.3170 -219.1680   80.9240 N.ar  123  HIS123     -0.2212
     69  N        -75.2410 -217.1200   86.9200 N.3   126  ASP126     -0.1225
     70  CA       -74.7670 -215.7900   87.2740 C.3   126  ASP126      0.1790
     71  C        -73.5470 -215.9100   88.1850 C.2   126  ASP126      0.2440
     72  O        -73.6750 -216.3550   89.3270 O.2   126  ASP126     -0.2733
     73  CB       -75.8790 -214.9910   87.9620 C.3   126  ASP126      0.1423
     74  CG       -75.4330 -213.6010   88.3860 C.2   126  ASP126      0.3668
     75  OD1      -74.3370 -213.1620   87.9770 O.co2 126  ASP126     -0.2456
     76  OD2      -76.1910 -212.9380   89.1280 O.co2 126  ASP126     -0.2456
     77  N        -72.3610 -215.5060   87.6920 N.am  127  PRO127     -0.2718
     78  CA       -71.1430 -215.6790   88.4920 C.3   127  PRO127      0.1535
     79  C        -71.1020 -214.8020   89.7410 C.2   127  PRO127      0.2599
     80  O        -70.2800 -215.0560   90.6200 O.2   127  PRO127     -0.2715
     81  CB       -70.0290 -215.2880   87.5160 C.3   127  PRO127      0.0310
     82  CG       -70.6730 -214.3570   86.5690 C.3   127  PRO127      0.0237
     83  CD       -72.0690 -214.8740   86.3920 C.3   127  PRO127      0.0939
     84  N        -71.9670 -213.7940   89.8160 N.am  128  THR128     -0.1951
     85  CA       -72.0370 -212.9270   90.9910 C.3   128  THR128      0.1897
     86  C        -72.9810 -213.5120   92.0340 C.2   128  THR128      0.2313
     87  O        -72.9350 -213.1340   93.2050 O.2   128  THR128     -0.2863
     88  CB       -72.5240 -211.5060   90.6380 C.3   128  THR128      0.1794
     89  OG1      -73.9240 -211.5360   90.3360 O.3   128  THR128     -0.2208
     90  CG2      -71.7550 -210.9410   89.4480 C.3   128  THR128      0.0378
     91  N        -75.9980 -212.9380   92.2880 N.3   130  MET130     -0.1230
     92  CA       -77.0280 -211.9570   92.6240 C.3   130  MET130      0.1702
     93  C        -78.3550 -212.2390   91.9200 C.2   130  MET130      0.2592
     94  O        -79.4170 -211.8550   92.4130 O.2   130  MET130     -0.2718
     95  CB       -76.5510 -210.5460   92.2680 C.3   130  MET130      0.0401
     96  CG       -75.3420 -210.0740   93.0630 C.3   130  MET130      0.0596
     97  SD       -75.6880 -209.8990   94.8240 S.3   130  MET130     -0.1393
     98  CE       -74.0910 -209.3640   95.4350 C.3   130  MET130      0.0692
     99  N        -78.2880 -212.9050   90.7700 N.am  131  ALA131     -0.1966
    100  CA       -79.4730 -213.1890   89.9620 C.3   131  ALA131      0.1713
    101  C        -79.6200 -214.6900   89.7330 C.2   131  ALA131      0.2458
    102  O        -78.6540 -215.4360   89.8790 O.2   131  ALA131     -0.2730
    103  CB       -79.3890 -212.4560   88.6320 C.3   131  ALA131      0.0333
    104  N        -80.8300 -215.1390   89.3630 N.am  132  PRO132     -0.2716
    105  CA       -81.0240 -216.5700   89.1170 C.3   132  PRO132      0.1536
    106  C        -80.3260 -217.0270   87.8420 C.2   132  PRO132      0.2599
    107  O        -79.8270 -218.1500   87.7810 O.2   132  PRO132     -0.2715
    108  CB       -82.5470 -216.7130   88.9830 C.3   132  PRO132      0.0310
    109  CG       -83.1220 -215.3260   89.0950 C.3   132  PRO132      0.0237
    110  CD       -82.0080 -214.3530   88.9650 C.3   132  PRO132      0.0939
    111  N        -80.2940 -216.1540   86.8390 N.am  133  TYR133     -0.1960
    112  CA       -79.7150 -216.4930   85.5410 C.3   133  TYR133      0.1771
    113  C        -78.8510 -215.3770   84.9790 C.2   133  TYR133      0.2619
    114  O        -78.9400 -214.2230   85.3990 O.2   133  TYR133     -0.2715
    115  CB       -80.8160 -216.8170   84.5280 C.3   133  TYR133      0.0574
    116  CG       -81.7570 -217.9110   84.9610 C.ar  133  TYR133     -0.0198
    117  CD1      -81.3330 -219.2320   85.0290 C.ar  133  TYR133     -0.0009
    118  CD2      -83.0750 -217.6260   85.2920 C.ar  133  TYR133     -0.0009
    119  CE1      -82.1940 -220.2390   85.4250 C.ar  133  TYR133      0.0417
    120  CE2      -83.9440 -218.6230   85.6880 C.ar  133  TYR133      0.0417
    121  CZ       -83.4980 -219.9280   85.7520 C.ar  133  TYR133      0.1957
    122  OH       -84.3620 -220.9210   86.1470 O.3   133  TYR133     -0.2866
    123  N        -78.0240 -215.7410   84.0070 N.am  134  ALA134     -0.1963
    124  CA       -77.2540 -214.7770   83.2470 C.3   134  ALA134      0.1728
    125  C        -77.5230 -214.9820   81.7620 C.2   134  ALA134      0.2616
    126  O        -77.9030 -216.0700   81.3340 O.2   134  ALA134     -0.2715
    127  CB       -75.7750 -214.9130   83.5470 C.3   134  ALA134      0.0334
    128  N        -77.3440 -213.9200   80.9870 N.am  135  MET135     -0.1963
    129  CA       -77.4390 -214.0020   79.5370 C.3   135  MET135      0.1736
    130  C        -76.0850 -214.3850   78.9790 C.2   135  MET135      0.2617
    131  O        -75.0540 -213.9880   79.5220 O.2   135  MET135     -0.2715
    132  CB       -77.8860 -212.6690   78.9420 C.3   135  MET135      0.0427
    133  CG       -78.4960 -212.7760   77.5580 C.3   135  MET135      0.0599
    134  SD       -80.1160 -213.5700   77.5280 S.3   135  MET135     -0.1393
    135  CE       -81.0410 -212.5700   78.6910 C.3   135  MET135      0.0692
    136  N        -76.0970 -215.1540   77.8960 N.am  136  GLY136     -0.1940
    137  CA       -74.8850 -215.5230   77.1990 C.3   136  GLY136      0.2014
    138  C        -74.8930 -214.9820   75.7880 C.2   136  GLY136      0.2638
    139  O        -75.9350 -214.5990   75.2590 O.2   136  GLY136     -0.2714
    140  N        -73.7200 -214.9510   75.1800 N.am  137  LEU137     -0.1977
    141  CA       -73.5820 -214.5270   73.7990 C.3   137  LEU137      0.1596
    142  C        -72.8180 -215.6010   73.0520 C.2   137  LEU137      0.2287
    143  O        -71.6830 -215.9180   73.3980 O.2   137  LEU137     -0.2864
    144  CB       -72.8670 -213.1790   73.7190 C.3   137  LEU137      0.0297
    145  CG       -72.5060 -212.6260   72.3390 C.3   137  LEU137      0.0022
    146  CD1      -73.7410 -212.4120   71.4770 C.3   137  LEU137      0.0001
    147  CD2      -71.7450 -211.3310   72.5020 C.3   137  LEU137      0.0001
    148  N        -69.6560 -216.3220   75.2600 N.3   166  LEU166     -0.1231
    149  CA       -69.3560 -215.2640   76.2230 C.3   166  LEU166      0.1693
    150  C        -70.4530 -215.1560   77.2710 C.2   166  LEU166      0.2593
    151  O        -71.6200 -215.4340   76.9960 O.2   166  LEU166     -0.2718
    152  CB       -69.1940 -213.9060   75.5300 C.3   166  LEU166      0.0284
    153  CG       -68.2390 -213.8010   74.3430 C.3   166  LEU166      0.0019
    154  CD1      -68.0120 -212.3280   73.9970 C.3   166  LEU166      0.0001
    155  CD2      -66.9260 -214.4880   74.6210 C.3   166  LEU166      0.0001
    156  N        -70.0730 -214.7260   78.4670 N.am  167  GLY167     -0.1943
    157  CA       -71.0150 -214.5440   79.5590 C.3   167  GLY167      0.1998
    158  C        -70.5180 -213.4450   80.4730 C.2   167  GLY167      0.2481
    159  O        -69.4160 -212.9370   80.2830 O.2   167  GLY167     -0.2729
    160  N        -71.3240 -213.0650   81.4740 N.am  168  PRO168     -0.2715
    161  CA       -70.8300 -212.0390   82.3950 C.3   168  PRO168      0.1536
    162  C        -69.6080 -212.5400   83.1570 C.2   168  PRO168      0.2599
    163  O        -69.5020 -213.7340   83.4410 O.2   168  PRO168     -0.2715
    164  CB       -72.0200 -211.7870   83.3270 C.3   168  PRO168      0.0310
    165  CG       -72.8970 -212.9760   83.1880 C.3   168  PRO168      0.0237
    166  CD       -72.6880 -213.5080   81.8030 C.3   168  PRO168      0.0939
    167  N        -68.6830 -211.6380   83.4540 N.am  169  SER169     -0.1950
    168  CA       -67.4370 -212.0150   84.1040 C.3   169  SER169      0.1924
    169  C        -67.6140 -212.1500   85.6090 C.2   169  SER169      0.2314
    170  O        -68.6470 -211.7680   86.1600 O.2   169  SER169     -0.2863
    171  CB       -66.3540 -210.9840   83.8030 C.3   169  SER169      0.2116
    172  OG       -66.7910 -209.6820   84.1550 O.3   169  SER169     -0.2180
    173  N        -66.7670 -206.4840   81.5270 N.3   176  PRO176     -0.2102
    174  CA       -68.0570 -206.9700   82.0280 C.3   176  PRO176      0.1504
    175  C        -68.3680 -208.3950   81.5910 C.2   176  PRO176      0.2575
    176  O        -69.2750 -209.0100   82.1450 O.2   176  PRO176     -0.2718
    177  CB       -69.0690 -205.9930   81.4160 C.3   176  PRO176      0.0282
    178  CG       -68.2690 -204.8070   80.9900 C.3   176  PRO176      0.0208
    179  CD       -66.9370 -205.3520   80.6010 C.3   176  PRO176      0.0893
    180  N        -67.6300 -208.9000   80.6060 N.am  177  TYR177     -0.1977
    181  CA       -67.8500 -210.2460   80.0900 C.3   177  TYR177      0.1639
    182  C        -66.5600 -211.0510   80.0530 C.2   177  TYR177      0.2290
    183  O        -65.4610 -210.4980   80.1480 O.2   177  TYR177     -0.2864
    184  CB       -68.4630 -210.1890   78.6910 C.3   177  TYR177      0.0560
    185  CG       -67.6570 -209.3690   77.7110 C.ar  177  TYR177     -0.0198
    186  CD1      -67.8480 -207.9970   77.6040 C.ar  177  TYR177     -0.0009
    187  CD2      -66.7030 -209.9630   76.8990 C.ar  177  TYR177     -0.0009
    188  CE1      -67.1140 -207.2420   76.7150 C.ar  177  TYR177      0.0417
    189  CE2      -65.9620 -209.2140   76.0030 C.ar  177  TYR177      0.0417
    190  CZ       -66.1730 -207.8550   75.9170 C.ar  177  TYR177      0.1957
    191  OH       -65.4390 -207.1030   75.0270 O.3   177  TYR177     -0.2866
@<TRIPOS>BOND
     1     7     6   ar
     2     1     2    1
     3    36    35    2
     4    37    35   am
     5    35    34    1
     6     6     8   ar
     7     6     5    1
     8     5     2    1
     9    34    31    1
    10     2     3    1
    11    33    32    2
    12    31    32    1
    13    31    30    1
    14     9     3   am
    15     9    10    1
    16    12    11    2
    17     3     4    2
    18    32    38   am
    19    10    11    1
    20    40    41    2
    21    40    39    1
    22    11    13   am
    23    45    46    1
    24   146   145    1
    25    30    24   am
    26    16    15    2
    27    38    39    1
    28   145   147    1
    29   145   144    1
    30    13    14    1
    31    14    15    1
    32    14    17    1
    33    39    42    1
    34    15    22   am
    35    24    25    2
    36    24    23    1
    37    48    47    2
    38    46    47    1
    39    46    49    1
    40    50    49    1
    41   142   143    2
    42   142   141    1
    43    51    49    1
    44    22    23    1
    45    17    18    1
    46    23    26    1
    47    42    43    1
    48    42    44    1
    49    18    19    1
    50   144   141    1
    51   141   140    1
    52   154   153    1
    53   153   155    1
    54   153   152    1
    55    19    21   ar
    56    19    20   ar
    57    26    27    1
    58   191   190    1
    59   140   138   am
    60   139   138    2
    61   148   149    1
    62   152   149    1
    63   138   137    1
    64   190   189   ar
    65   190   188   ar
    66   189   187   ar
    67    28    27    2
    68    58    52    1
    69    58    57    1
    70    27    29   am
    71   149   150    1
    72   188   186   ar
    73    52    53    1
    74   187   185   ar
    75   151   150    2
    76    57    56    1
    77   137   136    1
    78   150   156   am
    79   134   133    1
    80   134   135    1
    81   133   132    1
    82   186   185   ar
    83   185   184    1
    84   136   130   am
    85    53    56    1
    86    53    54    1
    87    55    54    2
    88   156   157    1
    89   184   181    1
    90   132   129    1
    91   130   131    2
    92   130   129    1
    93    54    59   am
    94   129   128    1
    95   157   158    1
    96    65    67   ar
    97    65    64   ar
    98    67    68   ar
    99   182   181    1
   100   182   183    2
   101   181   180    1
   102   159   158    2
   103    59    60    1
   104   158   160   am
   105   179   178    1
   106   179   173    1
   107   180   175   am
   108    64    63    1
   109    64    66   ar
   110    63    60    1
   111    68    66   ar
   112   128   125   am
   113   178   177    1
   114    60    61    1
   115   126   125    2
   116   177   174    1
   117   160   166    1
   118   160   161    1
   119   173   174    1
   120    61    62    2
   121   175   174    1
   122   175   176    2
   123   125   124    1
   124   166   165    1
   125   161   162    1
   126   161   164    1
   127   162   163    2
   128   162   167   am
   129   165   164    1
   130   124   127    1
   131   124   123    1
   132   167   168    1
   133   171   168    1
   134   171   172    1
   135   123   113   am
   136   168   169    1
   137   115   116    1
   138   115   112    1
   139   116   117   ar
   140   116   118   ar
   141   113   114    2
   142   113   112    1
   143   117   119   ar
   144   118   120   ar
   145   119   121   ar
   146   112   111    1
   147   169   170    2
   148   120   121   ar
   149   121   122    1
   150    83    82    1
   151    83    77    1
   152    82    81    1
   153   111   106   am
   154    69    70    1
   155    70    73    1
   156    70    71    1
   157    81    78    1
   158    77    71   am
   159    77    78    1
   160   107   106    2
   161   106   105    1
   162    73    74    1
   163    75    74   ar
   164    71    72    2
   165    74    76   ar
   166    78    79    1
   167   103   100    1
   168   110   109    1
   169   110   104    1
   170   108   109    1
   171   108   105    1
   172   105   104    1
   173   104   101   am
   174    90    88    1
   175   101   102    2
   176   101   100    1
   177    79    84   am
   178    79    80    2
   179    84    85    1
   180   100    99    1
   181    89    88    1
   182    88    85    1
   183    99    93   am
   184    85    86    1
   185    93    94    2
   186    93    92    1
   187    86    87    2
   188    95    92    1
   189    95    96    1
   190    91    92    1
   191    96    97    1
   192    97    98    1
