@<TRIPOS>MOLECULE
tmp/4x2iA00.pdb
 134 130 0 0 0
SMALL
GASTEIGER

@<TRIPOS>ATOM
      1  N         -4.4800   -0.6170    0.0850 N.3    41  TRP41      -0.1228
      2  CA        -4.2170   -1.9140   -0.5400 C.3    41  TRP41       0.1722
      3  C         -5.4340   -2.7260   -0.9750 C.2    41  TRP41       0.2437
      4  O         -5.3630   -3.3510   -2.0390 O.2    41  TRP41      -0.2733
      5  CB        -3.2370   -2.7570    0.3260 C.3    41  TRP41       0.0563
      6  CG        -3.7480   -3.1630    1.6350 C.ar   41  TRP41       0.0003
      7  CD1       -3.5890   -2.4950    2.8390 C.ar   41  TRP41       0.0946
      8  CD2       -4.5490   -4.2960    1.9390 C.ar   41  TRP41       0.0152
      9  NE1       -4.2470   -3.1270    3.8380 N.ar   41  TRP41      -0.2442
     10  CE2       -4.8370   -4.2540    3.3320 C.ar   41  TRP41       0.0810
     11  CE3       -5.0830   -5.3440    1.1680 C.ar   41  TRP41       0.0012
     12  CZ2       -5.6780   -5.2140    3.9620 C.ar   41  TRP41       0.0191
     13  CZ3       -5.8060   -6.3290    1.7850 C.ar   41  TRP41       0.0001
     14  CH2       -6.1630   -6.2370    3.1730 C.ar   41  TRP41       0.0015
     15  N         -6.5760   -2.7400   -0.2360 N.am   42  PRO42      -0.2718
     16  CA        -7.6990   -3.5490   -0.7250 C.3    42  PRO42       0.1535
     17  C         -8.2830   -3.0180   -2.0180 C.2    42  PRO42       0.2598
     18  O         -8.9850   -3.7600   -2.6790 O.2    42  PRO42      -0.2715
     19  CB        -8.7260   -3.4660    0.3880 C.3    42  PRO42       0.0310
     20  CG        -7.9180   -3.0800    1.6360 C.3    42  PRO42       0.0237
     21  CD        -6.8640   -2.1570    1.0960 C.3    42  PRO42       0.0939
     22  N         -7.9550   -1.7670   -2.3450 N.am   43  PHE43      -0.1974
     23  CA        -8.5590   -1.0510   -3.4570 C.3    43  PHE43       0.1639
     24  C         -7.6020   -0.9200   -4.6630 C.2    43  PHE43       0.2290
     25  O         -7.9400   -0.3000   -5.6680 O.2    43  PHE43      -0.2864
     26  CB        -8.9960    0.3610   -2.9890 C.3    43  PHE43       0.0560
     27  CG        -9.9120    0.3180   -1.8190 C.ar   43  PHE43      -0.0200
     28  CD1      -11.2950    0.1170   -2.0140 C.ar   43  PHE43      -0.0042
     29  CD2       -9.4350    0.4260   -0.5130 C.ar   43  PHE43      -0.0042
     30  CE1      -12.1320    0.0450   -0.9460 C.ar   43  PHE43      -0.0003
     31  CE2      -10.3160    0.3530    0.5760 C.ar   43  PHE43      -0.0003
     32  CZ       -11.6580    0.1310    0.3660 C.ar   43  PHE43      -0.0000
     33  N         -6.5060   -3.2610   -6.7090 N.3    45  GLN45      -0.1245
     34  CA        -6.7490   -4.2380   -7.8040 C.3    45  GLN45       0.1566
     35  C         -8.1590   -4.7580   -7.6290 C.2    45  GLN45       0.2260
     36  O         -8.7470   -4.5870   -6.5820 O.2    45  GLN45      -0.2867
     37  CB        -5.7210   -5.3850   -7.7120 C.3    45  GLN45       0.0367
     38  CG        -5.7520   -6.1690   -6.4170 C.3    45  GLN45       0.0905
     39  CD        -5.1060   -5.3900   -5.2830 C.2    45  GLN45       0.2608
     40  OE1       -3.9690   -4.9210   -5.4090 O.2    45  GLN45      -0.2717
     41  NE2       -5.8090   -5.2800   -4.1720 N.am   45  GLN45      -0.0878
     42  N        -11.2800   -6.9560   -6.7260 N.3    47  VAL47      -0.1231
     43  CA       -11.5070   -7.9080   -5.6310 C.3    47  VAL47       0.1692
     44  C        -11.3460   -9.3390   -6.1780 C.2    47  VAL47       0.2592
     45  O        -12.0260   -9.7610   -7.1110 O.2    47  VAL47      -0.2718
     46  CB       -12.8860   -7.7050   -5.0080 C.3    47  VAL47       0.0266
     47  CG1      -13.2300   -8.7860   -4.0360 C.3    47  VAL47       0.0020
     48  CG2      -13.0380   -6.3220   -4.3500 C.3    47  VAL47       0.0020
     49  N        -10.4210  -10.0780   -5.5670 N.am   48  ASP48      -0.1974
     50  CA       -10.2400  -11.4990   -5.8810 C.3    48  ASP48       0.1709
     51  C        -11.1240  -12.3150   -4.9560 C.2    48  ASP48       0.2293
     52  O        -10.7610  -12.6570   -3.8460 O.2    48  ASP48      -0.2864
     53  CB        -8.7750  -11.8390   -5.7700 C.3    48  ASP48       0.1436
     54  CG        -8.4790  -13.2720   -6.1480 C.2    48  ASP48       0.3671
     55  OD1       -9.3940  -14.1070   -6.2770 O.co2  48  ASP48      -0.2456
     56  OD2       -7.3080  -13.6410   -6.3090 O.co2  48  ASP48      -0.2456
     57  N        -10.3530  -14.5760   -1.5570 N.3    52  LEU52      -0.1245
     58  CA       -10.9040  -14.0750   -0.3390 C.3    52  LEU52       0.1561
     59  C        -12.1220  -14.8790    0.1640 C.2    52  LEU52       0.2260
     60  O        -12.6580  -14.5850    1.2230 O.2    52  LEU52      -0.2867
     61  CB       -11.3320  -12.6030   -0.5510 C.3    52  LEU52       0.0270
     62  CG       -10.1620  -11.6210   -0.7720 C.3    52  LEU52       0.0019
     63  CD1      -10.6830  -10.2850   -1.3200 C.3    52  LEU52       0.0001
     64  CD2       -9.2470  -11.3500    0.4260 C.3    52  LEU52       0.0001
     65  N        -15.2030  -15.1360   -1.1010 N.3    54  LEU54      -0.1245
     66  CA       -16.3980  -14.2860   -1.0950 C.3    54  LEU54       0.1561
     67  C        -17.2200  -14.6670   -2.3330 C.2    54  LEU54       0.2260
     68  O        -17.3360  -13.8990   -3.2980 O.2    54  LEU54      -0.2867
     69  CB       -16.0100  -12.8320   -1.2160 C.3    54  LEU54       0.0270
     70  CG       -14.9620  -12.3790   -0.3210 C.3    54  LEU54       0.0019
     71  CD1      -14.5420  -10.9190   -0.5830 C.3    54  LEU54       0.0001
     72  CD2      -15.6110  -12.1660    1.0820 C.3    54  LEU54       0.0001
     73  N        -19.6530  -12.0670   -3.6760 N.3    57  TYR57      -0.1241
     74  CA       -19.3070  -10.6990   -3.9100 C.3    57  TYR57       0.1605
     75  C        -19.8130  -10.2430   -5.2790 C.2    57  TYR57       0.2264
     76  O        -20.4700   -9.1840   -5.3950 O.2    57  TYR57      -0.2867
     77  CB       -17.7790  -10.5090   -3.8230 C.3    57  TYR57       0.0534
     78  CG       -17.3500   -9.0700   -4.0170 C.ar   57  TYR57      -0.0201
     79  CD1      -17.3820   -8.2150   -2.9430 C.ar   57  TYR57      -0.0009
     80  CD2      -17.0320   -8.5670   -5.2640 C.ar   57  TYR57      -0.0009
     81  CE1      -17.0850   -6.8720   -3.1110 C.ar   57  TYR57       0.0417
     82  CE2      -16.7000   -7.2590   -5.4570 C.ar   57  TYR57       0.0417
     83  CZ       -16.7410   -6.3780   -4.3800 C.ar   57  TYR57       0.1957
     84  OH       -16.4710   -5.0520   -4.5880 O.3    57  TYR57      -0.2866
     85  N        -18.0810   -0.8420   -2.0290 N.3    96  CYS96      -0.1235
     86  CA       -17.6190   -1.2960   -0.7100 C.3    96  CYS96       0.1677
     87  C        -18.7580   -1.0870    0.3130 C.2    96  CYS96       0.2270
     88  O        -19.0150   -1.9760    1.1440 O.2    96  CYS96      -0.2867
     89  CB       -16.3780   -0.5270   -0.3480 C.3    96  CYS96       0.0956
     90  SG       -15.5870   -1.1080    1.1530 S.3    96  CYS96      -0.0801
     91  N        -21.5540   -3.8910   -0.2740 N.3    99  TYR99      -0.1227
     92  CA       -21.2780   -5.2810    0.0510 C.3    99  TYR99       0.1736
     93  C        -21.1510   -5.4250    1.5910 C.2    99  TYR99       0.2595
     94  O        -21.5280   -6.4640    2.1680 O.2    99  TYR99      -0.2718
     95  CB       -20.0090   -5.7960   -0.6220 C.3    99  TYR99       0.0548
     96  CG       -19.7810   -7.2660   -0.3320 C.ar   99  TYR99      -0.0200
     97  CD1      -20.5340   -8.2700   -0.9750 C.ar   99  TYR99      -0.0009
     98  CD2      -18.8210   -7.6300    0.5810 C.ar   99  TYR99      -0.0009
     99  CE1      -20.3150   -9.6030   -0.6650 C.ar   99  TYR99       0.0417
    100  CE2      -18.6180   -8.9650    0.9020 C.ar   99  TYR99       0.0417
    101  CZ       -19.3720   -9.9090    0.2980 C.ar   99  TYR99       0.1957
    102  OH       -19.1470  -11.2560    0.6880 O.3    99  TYR99      -0.2866
    103  N        -20.5650   -4.3980    2.2250 N.am  100  ASN100     -0.1974
    104  CA       -20.2530   -4.4280    3.6390 C.3   100  ASN100      0.1688
    105  C        -21.1510   -3.5340    4.3980 C.2   100  ASN100      0.2292
    106  O        -22.1620   -3.0860    3.8480 O.2   100  ASN100     -0.2864
    107  CB       -18.8040   -4.0430    3.8020 C.3   100  ASN100      0.1181
    108  CG       -17.8120   -4.8920    2.9930 C.2   100  ASN100      0.2629
    109  OD1      -17.5440   -6.0530    3.3610 O.2   100  ASN100     -0.2716
    110  ND2      -17.3040   -4.3570    1.8460 N.am  100  ASN100     -0.0877
    111  N        -14.3390   -3.1620    9.3130 N.3   105  ASP105     -0.1225
    112  CA       -13.0220   -2.6710    9.0880 C.3   105  ASP105      0.1805
    113  C        -12.8080   -2.1480    7.6580 C.2   105  ASP105      0.2597
    114  O        -12.2790   -1.0590    7.4490 O.2   105  ASP105     -0.2718
    115  CB       -11.9610   -3.7200    9.4000 C.3   105  ASP105      0.1424
    116  CG       -11.6600   -3.8780   10.8790 C.2   105  ASP105      0.3668
    117  OD1      -12.1350   -3.0770   11.6970 O.co2 105  ASP105     -0.2456
    118  OD2      -10.9270   -4.8610   11.1340 O.co2 105  ASP105     -0.2456
    119  N        -13.3200   -2.8930    6.6520 N.am  106  ILE106     -0.1980
    120  CA       -13.0900   -2.4650    5.2660 C.3   106  ILE106      0.1595
    121  C        -13.8160   -1.1440    4.9810 C.2   106  ILE106      0.2287
    122  O        -13.3680   -0.3200    4.1550 O.2   106  ILE106     -0.2864
    123  CB       -13.4450   -3.6000    4.2680 C.3   106  ILE106      0.0276
    124  CG1      -13.1100   -3.1730    2.8170 C.3   106  ILE106      0.0022
    125  CG2      -14.9530   -3.9440    4.2850 C.3   106  ILE106      0.0022
    126  CD1      -11.6670   -2.8650    2.5560 C.3   106  ILE106      0.0001
    127  N        -11.8740    1.7160    6.2510 N.3   109  MET109     -0.1245
    128  CA       -10.7790    1.9490    5.3230 C.3   109  MET109      0.1570
    129  C        -11.3070    2.7600    4.1160 C.2   109  MET109      0.2261
    130  O        -10.6580    3.7640    3.7400 O.2   109  MET109     -0.2867
    131  CB       -10.1650    0.6130    4.8700 C.3   109  MET109      0.0387
    132  CG        -9.5100   -0.1910    5.9720 C.3   109  MET109      0.0595
    133  SD        -8.9950   -1.8110    5.5480 S.3   109  MET109     -0.1393
    134  CE        -7.4380   -1.5100    4.8650 C.3   109  MET109      0.0692
@<TRIPOS>BOND
     1    34    37    1
     2    34    35    1
     3    34    33    1
     4    37    38    1
     5    35    36    2
     6    45    44    2
     7    42    43    1
     8    38    39    1
     9    56    54   ar
    10    55    54   ar
    11    44    43    1
    12    44    49   am
    13    54    53    1
    14    50    53    1
    15    50    49    1
    16    50    51    1
    17    25    24    2
    18    43    46    1
    19    82    80   ar
    20    82    83   ar
    21    40    39    2
    22    76    75    2
    23    39    41   am
    24    75    74    1
    25    80    78   ar
    26    46    48    1
    27    46    47    1
    28    51    52    2
    29    24    23    1
    30    84    83    1
    31    83    81   ar
    32    78    77    1
    33    78    79   ar
    34    74    77    1
    35    74    73    1
    36    23    26    1
    37    23    22    1
    38    68    67    2
    39    81    79   ar
    40    26    27    1
    41    18    17    2
    42    22    17   am
    43    67    66    1
    44     4     3    2
    45    85    86    1
    46    17    16    1
    47    28    27   ar
    48    28    30   ar
    49    27    29   ar
    50    57    58    1
    51    63    62    1
    52    69    66    1
    53    69    70    1
    54    65    66    1
    55     3     2    1
    56     3    15   am
    57    97    99   ar
    58    97    96   ar
    59    30    32   ar
    60    62    61    1
    61    62    64    1
    62    16    15    1
    63    16    19    1
    64    86    89    1
    65    86    87    1
    66    99   101   ar
    67    95    96    1
    68    95    92    1
    69    71    70    1
    70    61    58    1
    71     2     1    1
    72     2     5    1
    73    29    31   ar
    74    89    90    1
    75    58    59    1
    76    96    98   ar
    77    70    72    1
    78    91    92    1
    79    15    21    1
    80    92    93    1
    81    59    60    2
    82   101   102    1
    83   101   100   ar
    84    87    88    2
    85     5     6    1
    86    32    31   ar
    87    19    20    1
    88    98   100   ar
    89    21    20    1
    90    11    13   ar
    91    11     8   ar
    92    93    94    2
    93    93   103   am
    94     6     8   ar
    95     6     7   ar
    96    13    14   ar
    97   110   108   am
    98     8    10   ar
    99   103   104    1
   100   126   124    1
   101   124   123    1
   102     7     9   ar
   103   108   109    2
   104   108   107    1
   105    14    12   ar
   106    10     9   ar
   107    10    12   ar
   108   104   107    1
   109   104   105    1
   110   130   129    2
   111   106   105    2
   112   129   128    1
   113   122   121    2
   114   123   125    1
   115   123   120    1
   116   134   133    1
   117   131   128    1
   118   131   132    1
   119   121   120    1
   120   120   119    1
   121   128   127    1
   122   133   132    1
   123   119   113   am
   124   114   113    2
   125   113   112    1
   126   112   111    1
   127   112   115    1
   128   115   116    1
   129   116   118   ar
   130   116   117   ar
