@<TRIPOS>MOLECULE
tmp/4x2lA00.pdb
 140 131 0 0 0
SMALL
GASTEIGER

@<TRIPOS>ATOM
      1  N         25.4450  -44.1950    1.1190 N.3    16  GLN16      -0.1245
      2  CA        25.6540  -42.9110    1.8190 C.3    16  GLN16       0.1566
      3  C         24.6520  -41.7790    1.4250 C.2    16  GLN16       0.2260
      4  O         24.9060  -40.6180    1.7480 O.2    16  GLN16      -0.2867
      5  CB        27.1100  -42.4090    1.6480 C.3    16  GLN16       0.0367
      6  CG        28.1720  -43.2390    2.3380 C.3    16  GLN16       0.0905
      7  CD        29.5690  -42.7140    2.1620 C.2    16  GLN16       0.2608
      8  OE1       29.8150  -41.7100    1.4900 O.2    16  GLN16      -0.2717
      9  NE2       30.5300  -43.3890    2.7750 N.am   16  GLN16      -0.0878
     10  N         22.0690  -33.7110    1.9350 N.3    34  LEU34      -0.1245
     11  CA        21.3450  -34.9590    1.7200 C.3    34  LEU34       0.1561
     12  C         19.8290  -34.7000    1.5120 C.2    34  LEU34       0.2260
     13  O         19.1860  -34.0800    2.3450 O.2    34  LEU34      -0.2867
     14  CB        21.5740  -35.8980    2.9000 C.3    34  LEU34       0.0270
     15  CG        20.9600  -37.2860    2.7830 C.3    34  LEU34       0.0019
     16  CD1       22.0310  -38.3010    2.5380 C.3    34  LEU34       0.0001
     17  CD2       20.1870  -37.6420    4.0450 C.3    34  LEU34       0.0001
     18  N         16.2200  -35.7830    1.6740 N.3    36  ASP36      -0.1239
     19  CA        15.4820  -36.7510    2.4690 C.3    36  ASP36       0.1674
     20  C         13.9590  -36.5340    2.4610 C.2    36  ASP36       0.2266
     21  O         13.4900  -35.6200    3.1370 O.2    36  ASP36      -0.2867
     22  CB        16.0420  -36.7430    3.9080 C.3    36  ASP36       0.1410
     23  CG        15.4210  -37.7550    4.8520 C.2    36  ASP36       0.3668
     24  OD1       14.8750  -38.7730    4.3680 O.co2  36  ASP36      -0.2456
     25  OD2       15.5120  -37.5530    6.0660 O.co2  36  ASP36      -0.2456
     26  N         11.8910  -38.4290    3.9040 N.3    38  GLY38      -0.1210
     27  CA        11.4260  -39.0610    5.1370 C.3    38  GLY38       0.1956
     28  C         11.5810  -38.2610    6.4210 C.2    38  GLY38       0.2612
     29  O         11.4340  -38.8240    7.5100 O.2    38  GLY38      -0.2717
     30  N         11.8740  -36.9590    6.3120 N.am   39  SER39      -0.1952
     31  CA        12.0300  -36.0260    7.4320 C.3    39  SER39       0.1924
     32  C         11.6950  -34.6170    6.9470 C.2    39  SER39       0.2314
     33  O         11.6310  -34.4330    5.7350 O.2    39  SER39      -0.2863
     34  CB        13.4260  -36.1300    8.0560 C.3    39  SER39       0.2116
     35  OG        14.4530  -35.5420    7.2830 O.3    39  SER39      -0.2180
     36  N         17.1720  -40.2820   17.0430 N.3    75  TYR75      -0.1241
     37  CA        16.7250  -41.3330   16.1160 C.3    75  TYR75       0.1605
     38  C         17.0290  -42.6760   16.7740 C.2    75  TYR75       0.2264
     39  O         17.5830  -42.7060   17.8790 O.2    75  TYR75      -0.2867
     40  CB        17.4760  -41.2800   14.7720 C.3    75  TYR75       0.0534
     41  CG        17.4190  -39.9630   14.0450 C.ar   75  TYR75      -0.0201
     42  CD1       16.2400  -39.5260   13.4470 C.ar   75  TYR75      -0.0009
     43  CD2       18.5590  -39.1770   13.8980 C.ar   75  TYR75      -0.0009
     44  CE1       16.1790  -38.3110   12.7680 C.ar   75  TYR75       0.0417
     45  CE2       18.5190  -37.9730   13.2000 C.ar   75  TYR75       0.0417
     46  CZ        17.3290  -37.5530   12.6210 C.ar   75  TYR75       0.1957
     47  OH        17.2830  -36.3720   11.9280 O.3    75  TYR75      -0.2866
     48  N         19.0770  -44.9080   15.3640 N.3    77  GLN77      -0.1231
     49  CA        20.5040  -44.9620   15.1130 C.3    77  GLN77       0.1698
     50  C         21.1580  -43.6860   15.6680 C.2    77  GLN77       0.2592
     51  O         21.6190  -43.6730   16.8150 O.2    77  GLN77      -0.2718
     52  CB        20.7830  -45.1500   13.6000 C.3    77  GLN77       0.0381
     53  CG        20.3080  -46.4660   12.9890 C.3    77  GLN77       0.0905
     54  CD        20.9060  -47.6680   13.6740 C.2    77  GLN77       0.2608
     55  OE1       22.1430  -47.7320   13.8130 O.2    77  GLN77      -0.2717
     56  NE2       20.1000  -48.5330   14.2030 N.am   77  GLN77      -0.0878
     57  N         21.1230  -42.6220   14.8690 N.am   78  GLY78      -0.1957
     58  CA        21.7420  -41.3430   15.1800 C.3    78  GLY78       0.1869
     59  C         21.1220  -40.5070   16.2800 C.2    78  GLY78       0.2309
     60  O         20.3380  -40.9920   17.1090 O.2    78  GLY78      -0.2863
     61  N         26.4570  -40.4400   15.6290 N.3   111  LYS111     -0.1231
     62  CA        26.1460  -41.3870   14.5380 C.3   111  LYS111      0.1693
     63  C         25.2430  -40.7810   13.4630 C.2   111  LYS111      0.2592
     64  O         24.4180  -41.4740   12.8720 O.2   111  LYS111     -0.2718
     65  CB        25.5280  -42.6880   15.0890 C.3   111  LYS111      0.0285
     66  CG        26.4830  -43.5240   15.9100 C.3   111  LYS111      0.0035
     67  CD        25.7300  -44.5370   16.7430 C.3   111  LYS111      0.0206
     68  CE        26.6160  -45.1370   17.8030 C.3   111  LYS111      0.1093
     69  NZ        27.8230  -45.7850   17.2230 N.3   111  LYS111     -0.1314
     70  N         25.3760  -39.4810   13.2330 N.am  112  PHE112     -0.1976
     71  CA        24.5720  -38.7870   12.2540 C.3   112  PHE112      0.1639
     72  C         25.4160  -38.6040   10.9950 C.2   112  PHE112      0.2290
     73  O         25.0670  -39.1350    9.9450 O.2   112  PHE112     -0.2864
     74  CB        24.0270  -37.4730   12.8330 C.3   112  PHE112      0.0560
     75  CG        23.2420  -36.6590   11.8310 C.ar  112  PHE112     -0.0200
     76  CD1       21.9920  -37.0920   11.3810 C.ar  112  PHE112     -0.0042
     77  CD2       23.7670  -35.4910   11.3010 C.ar  112  PHE112     -0.0042
     78  CE1       21.2750  -36.3570   10.4330 C.ar  112  PHE112     -0.0003
     79  CE2       23.0470  -34.7530   10.3530 C.ar  112  PHE112     -0.0003
     80  CZ        21.8020  -35.1890    9.9330 C.ar  112  PHE112     -0.0000
     81  N         28.5160  -39.2640    8.3910 N.3   114  ILE114     -0.1245
     82  CA        29.2250  -40.4660    7.9280 C.3   114  ILE114      0.1561
     83  C         30.6830  -40.1170    7.6610 C.2   114  ILE114      0.2260
     84  O         30.9590  -39.1620    6.9470 O.2   114  ILE114     -0.2867
     85  CB        28.5360  -41.1500    6.6940 C.3   114  ILE114      0.0252
     86  CG1       27.0700  -41.5500    7.0090 C.3   114  ILE114      0.0019
     87  CG2       29.3460  -42.3700    6.2090 C.3   114  ILE114      0.0019
     88  CD1       26.1650  -41.8110    5.7740 C.3   114  ILE114      0.0001
     89  N         28.6670  -35.0420    2.2630 N.3   119  TRP119     -0.1241
     90  CA        27.5320  -34.1820    2.6380 C.3   119  TRP119      0.1605
     91  C         27.6940  -33.6900    4.1000 C.2   119  TRP119      0.2264
     92  O         28.3700  -34.3400    4.9020 O.2   119  TRP119     -0.2867
     93  CB        26.1620  -34.8200    2.3400 C.3   119  TRP119      0.0550
     94  CG        25.8970  -36.1110    3.0490 C.ar  119  TRP119      0.0003
     95  CD1       26.0850  -37.3640    2.5550 C.ar  119  TRP119      0.0946
     96  CD2       25.3650  -36.2780    4.3790 C.ar  119  TRP119      0.0152
     97  NE1       25.7110  -38.3030    3.4870 N.ar  119  TRP119     -0.2442
     98  CE2       25.2780  -37.6640    4.6210 C.ar  119  TRP119      0.0810
     99  CE3       24.9820  -35.3910    5.3960 C.ar  119  TRP119      0.0012
    100  CZ2       24.7760  -38.1840    5.8170 C.ar  119  TRP119      0.0191
    101  CZ3       24.5020  -35.9050    6.5870 C.ar  119  TRP119      0.0001
    102  CH2       24.3700  -37.2830    6.7780 C.ar  119  TRP119      0.0015
    103  N         21.1750  -32.0640    5.8970 N.3   122  ILE122     -0.1245
    104  CA        19.9890  -32.8050    5.4970 C.3   122  ILE122      0.1561
    105  C         18.8550  -31.8540    5.1180 C.2   122  ILE122      0.2260
    106  O         18.6510  -30.8260    5.7590 O.2   122  ILE122     -0.2867
    107  CB        19.6300  -33.8450    6.5950 C.3   122  ILE122      0.0252
    108  CG1       18.3900  -34.6850    6.2180 C.3   122  ILE122      0.0019
    109  CG2       19.4920  -33.2070    8.0000 C.3   122  ILE122      0.0019
    110  CD1       18.3280  -36.0180    6.9290 C.3   122  ILE122      0.0001
    111  N         10.5480  -42.9210    0.9760 N.3   221  ASP221     -0.1239
    112  CA        11.6790  -42.2950    1.6730 C.3   221  ASP221      0.1674
    113  C         13.0530  -42.3690    0.9690 C.2   221  ASP221      0.2266
    114  O         13.7400  -43.3980    1.0120 O.2   221  ASP221     -0.2867
    115  CB        11.7570  -42.8970    3.0840 C.3   221  ASP221      0.1410
    116  CG        12.8270  -42.3350    3.9770 C.2   221  ASP221      0.3668
    117  OD1       13.4280  -41.2930    3.6070 O.co2 221  ASP221     -0.2456
    118  OD2       13.0540  -42.9170    5.0690 O.co2 221  ASP221     -0.2456
    119  N         15.7630  -41.1160    2.0060 N.3   223  GLY223     -0.1210
    120  CA        16.8000  -41.1230    3.0360 C.3   223  GLY223      0.1956
    121  C         17.1620  -42.4880    3.5860 C.2   223  GLY223      0.2612
    122  O         18.1340  -42.5980    4.3350 O.2   223  GLY223     -0.2717
    123  N         16.3470  -43.5250    3.2560 N.am  224  THR224     -0.1952
    124  CA        16.5210  -44.9450    3.6130 C.3   224  THR224      0.1897
    125  C         16.9940  -45.6400    2.3530 C.2   224  THR224      0.2313
    126  O         16.4990  -45.3640    1.2600 O.2   224  THR224     -0.2863
    127  CB        15.1970  -45.5500    4.1040 C.3   224  THR224      0.1794
    128  OG1       14.8090  -44.9110    5.3000 O.3   224  THR224     -0.2208
    129  CG2       15.2690  -47.0420    4.3630 C.3   224  THR224      0.0378
    130  N         11.9860  -51.5010    3.3660 N.3   228  ARG228     -0.1245
    131  CA        11.7110  -51.9570    4.7180 C.3   228  ARG228      0.1563
    132  C         10.2800  -52.4370    4.8160 C.2   228  ARG228      0.2260
    133  O          9.3700  -51.6940    4.4530 O.2   228  ARG228     -0.2867
    134  CB        12.0470  -50.8730    5.7620 C.3   228  ARG228      0.0307
    135  CG        13.5380  -50.5170    5.7790 C.3   228  ARG228      0.0489
    136  CD        13.8780  -49.4990    6.8430 C.3   228  ARG228      0.2205
    137  NE        13.8150  -50.0810    8.1810 N.pl3 228  ARG228     -0.0865
    138  CZ        13.3610  -49.4460    9.2560 C.cat 228  ARG228      0.5346
    139  NH1       12.9350  -48.1910    9.1670 N.pl3 228  ARG228      0.1354
    140  NH2       13.3320  -50.0610   10.4300 N.pl3 228  ARG228      0.1354
@<TRIPOS>BOND
     1   113   114    2
     2   113   112    1
     3   111   112    1
     4     1     2    1
     5   126   125    2
     6     3     4    2
     7     3     2    1
     8     8     7    2
     9    12    11    1
    10    12    13    2
    11     5     2    1
    12     5     6    1
    13   112   115    1
    14    18    19    1
    15    11    10    1
    16    11    14    1
    17   119   120    1
    18     7     6    1
    19     7     9   am
    20    89    90    1
    21    93    90    1
    22    93    94    1
    23   125   124    1
    24    20    19    1
    25    20    21    2
    26    19    22    1
    27    16    15    1
    28    95    94   ar
    29    95    97   ar
    30    90    91    1
    31    15    14    1
    32    15    17    1
    33   120   121    1
    34    94    96   ar
    35   115   116    1
    36   123   121   am
    37   123   124    1
    38   130   131    1
    39    97    98   ar
    40   121   122    2
    41   117   116   ar
    42   124   127    1
    43    26    27    1
    44    22    23    1
    45   116   118   ar
    46    91    92    2
    47   127   129    1
    48   127   128    1
    49    24    23   ar
    50    96    98   ar
    51    96    99   ar
    52   133   132    2
    53    98   100   ar
    54   131   132    1
    55   131   134    1
    56    23    25   ar
    57   105   104    1
    58   105   106    2
    59    27    28    1
    60    99   101   ar
    61   104   103    1
    62   104   107    1
    63    33    32    2
    64   134   135    1
    65    88    86    1
    66   135   136    1
    67   100   102   ar
    68    87    85    1
    69   108   107    1
    70   108   110    1
    71    30    28   am
    72    30    31    1
    73    28    29    2
    74   101   102   ar
    75   107   109    1
    76    85    86    1
    77    85    82    1
    78   136   137    1
    79    32    31    1
    80    84    83    2
    81    35    34    1
    82    31    34    1
    83    83    82    1
    84    82    81    1
    85   137   138    2
    86   139   138    1
    87   138   140    1
    88    80    79   ar
    89    80    78   ar
    90    73    72    2
    91    79    77   ar
    92    78    76   ar
    93    72    71    1
    94    77    75   ar
    95    76    75   ar
    96    75    74    1
    97    47    46    1
    98    71    74    1
    99    71    70    1
   100    46    44   ar
   101    46    45   ar
   102    44    42   ar
   103    64    63    2
   104    53    52    1
   105    53    54    1
   106    45    43   ar
   107    70    63   am
   108    42    41   ar
   109    63    62    1
   110    52    49    1
   111    54    55    2
   112    54    56   am
   113    43    41   ar
   114    41    40    1
   115    62    65    1
   116    62    61    1
   117    40    37    1
   118    57    58    1
   119    57    50   am
   120    65    66    1
   121    49    48    1
   122    49    50    1
   123    58    59    1
   124    50    51    2
   125    66    67    1
   126    37    38    1
   127    37    36    1
   128    59    60    2
   129    67    68    1
   130    38    39    2
   131    69    68    1
