@<TRIPOS>MOLECULE
tmp/4x2oA00.pdb
 150 147 0 0 0
SMALL
GASTEIGER

@<TRIPOS>ATOM
      1  N        -15.7110  -27.1310   13.4080 N.3    13  ARG13      -0.1231
      2  CA       -15.3120  -27.3600   12.0210 C.3    13  ARG13       0.1694
      3  C        -13.7940  -27.3740   11.8850 C.2    13  ARG13       0.2592
      4  O        -13.2300  -26.4690   11.2690 O.2    13  ARG13      -0.2718
      5  CB       -15.9010  -26.2800   11.1030 C.3    13  ARG13       0.0321
      6  CG       -17.3980  -26.3370   11.0270 C.3    13  ARG13       0.0489
      7  CD       -17.9780  -25.2220   10.1570 C.3    13  ARG13       0.2205
      8  NE       -17.9730  -23.9250   10.8250 N.pl3  13  ARG13      -0.0865
      9  CZ       -17.3640  -22.8330   10.3700 C.cat  13  ARG13       0.5346
     10  NH1      -16.6740  -22.8490    9.2380 N.pl3  13  ARG13       0.1354
     11  NH2      -17.4370  -21.7090   11.0650 N.pl3  13  ARG13       0.1354
     12  N        -13.0850  -28.3490   12.4490 N.am   14  ASP14      -0.1960
     13  CA       -11.6450  -28.2230   12.2520 C.3    14  ASP14       0.1840
     14  C        -11.3460  -29.0930   11.0690 C.2    14  ASP14       0.2623
     15  O        -12.2560  -29.6720   10.4170 O.2    14  ASP14      -0.2715
     16  CB       -10.7550  -28.5410   13.4860 C.3    14  ASP14       0.1450
     17  CG       -11.0010  -29.8780   14.0750 C.2    14  ASP14       0.3671
     18  OD1      -12.0560  -30.4370   13.7500 O.co2  14  ASP14      -0.2456
     19  OD2      -10.1440  -30.3510   14.8790 O.co2  14  ASP14      -0.2456
     20  N        -10.0780  -29.1110   10.7260 N.am   15  GLY15      -0.1940
     21  CA        -9.6730  -29.8710    9.5710 C.3    15  GLY15       0.2014
     22  C         -9.6950  -31.3410    9.9310 C.2    15  GLY15       0.2639
     23  O         -9.9720  -31.7300   11.0780 O.2    15  GLY15      -0.2714
     24  N         -9.3800  -32.1540    8.9420 N.am   16  GLU16      -0.1963
     25  CA        -9.4860  -33.5980    9.0680 C.3    16  GLU16       0.1733
     26  C         -8.5330  -34.1720   10.0940 C.2    16  GLU16       0.2616
     27  O         -8.7700  -35.2580   10.5930 O.2    16  GLU16      -0.2715
     28  CB        -9.2090  -34.2650    7.7280 C.3    16  GLU16       0.0429
     29  CG       -10.3930  -34.3380    6.7890 C.3    16  GLU16       0.1163
     30  CD        -9.9740  -34.7260    5.3790 C.2    16  GLU16       0.3649
     31  OE1       -8.8420  -35.2380    5.2160 O.co2  16  GLU16      -0.2457
     32  OE2      -10.7680  -34.5080    4.4380 O.co2  16  GLU16      -0.2457
     33  N         -7.4410  -33.4770   10.3950 N.am   17  ASN17      -0.1958
     34  CA        -6.4740  -34.0340   11.3360 C.3    17  ASN17       0.1819
     35  C         -6.9190  -33.9370   12.8010 C.2    17  ASN17       0.2621
     36  O         -6.2120  -34.3970   13.6990 O.2    17  ASN17      -0.2715
     37  CB        -5.1260  -33.3490   11.1710 C.3    17  ASN17       0.1195
     38  CG        -4.4740  -33.6820    9.8630 C.2    17  ASN17       0.2630
     39  OD1       -4.8880  -34.6160    9.1800 O.2    17  ASN17      -0.2716
     40  ND2       -3.4460  -32.9250    9.5010 N.am   17  ASN17      -0.0877
     41  N         -8.0730  -33.3140   13.0260 N.am   18  ASN18      -0.1958
     42  CA        -8.6860  -33.1990   14.3620 C.3    18  ASN18       0.1819
     43  C         -7.7940  -32.5890   15.4210 C.2    18  ASN18       0.2621
     44  O         -7.8480  -32.9800   16.5830 O.2    18  ASN18      -0.2715
     45  CB        -9.1480  -34.5710   14.8470 C.3    18  ASN18       0.1195
     46  CG       -10.3150  -35.0840   14.0630 C.2    18  ASN18       0.2630
     47  OD1      -11.3390  -34.4040   13.9440 O.2    18  ASN18      -0.2716
     48  ND2      -10.1630  -36.2730   13.4870 N.am   18  ASN18      -0.0877
     49  N         -6.9980  -31.6030   15.0280 N.am   19  VAL19      -0.1977
     50  CA        -6.1050  -30.9530   15.9740 C.3    19  VAL19       0.1596
     51  C         -6.8600  -30.2530   17.1160 C.2    19  VAL19       0.2287
     52  O         -6.3820  -30.2400   18.2520 O.2    19  VAL19      -0.2864
     53  CB        -5.2040  -29.9370   15.2620 C.3    19  VAL19       0.0276
     54  CG1       -4.3550  -29.1850   16.2490 C.3    19  VAL19       0.0022
     55  CG2       -4.2920  -30.6650   14.2650 C.3    19  VAL19       0.0022
     56  N        -10.9310  -23.4340   10.4410 N.3   107  THR107     -0.1218
     57  CA        -9.6500  -23.1620    9.7870 C.3   107  THR107      0.1862
     58  C         -9.7700  -21.9190    8.9240 C.2   107  THR107      0.2287
     59  O        -10.8100  -21.6910    8.3060 O.2   107  THR107     -0.2866
     60  CB        -9.1890  -24.3320    8.9160 C.3   107  THR107      0.1770
     61  OG1      -10.1540  -24.6070    7.8880 O.3   107  THR107     -0.2211
     62  CG2       -8.9880  -25.5400    9.7490 C.3   107  THR107      0.0375
     63  N          3.9650  -18.5550    6.9920 N.3   113  ASP113     -0.1239
     64  CA         4.5810  -19.8880    6.9650 C.3   113  ASP113      0.1674
     65  C          5.9470  -19.8050    7.6250 C.2   113  ASP113      0.2266
     66  O          6.8570  -19.2160    7.0610 O.2   113  ASP113     -0.2867
     67  CB         4.7140  -20.3700    5.5210 C.3   113  ASP113      0.1410
     68  CG         5.5010  -21.6600    5.3820 C.2   113  ASP113      0.3668
     69  OD1        5.7860  -22.3700    6.3820 O.co2 113  ASP113     -0.2456
     70  OD2        5.8350  -21.9700    4.2300 O.co2 113  ASP113     -0.2456
     71  N          6.3910  -21.0920    1.7300 N.3   118  ALA118     -0.1245
     72  CA         5.1590  -20.6610    1.0920 C.3   118  ALA118      0.1562
     73  C          4.7930  -19.2790    1.6180 C.2   118  ALA118      0.2260
     74  O          5.2480  -18.8810    2.6790 O.2   118  ALA118     -0.2867
     75  CB         4.0330  -21.6570    1.3440 C.3   118  ALA118      0.0290
     76  N          1.8150  -18.2720    2.5360 N.3   120  TYR120     -0.1227
     77  CA         0.6970  -18.3330    3.4770 C.3   120  TYR120      0.1736
     78  C          0.5910  -19.7030    4.1210 C.2   120  TYR120      0.2595
     79  O          1.0040  -20.7070    3.5540 O.2   120  TYR120     -0.2718
     80  CB        -0.6450  -18.0170    2.7910 C.3   120  TYR120      0.0548
     81  CG        -0.6960  -16.6890    2.0430 C.ar  120  TYR120     -0.0200
     82  CD1       -0.5960  -15.4690    2.7180 C.ar  120  TYR120     -0.0009
     83  CD2       -0.8500  -16.6570    0.6630 C.ar  120  TYR120     -0.0009
     84  CE1       -0.6410  -14.2520    2.0250 C.ar  120  TYR120      0.0417
     85  CE2       -0.8780  -15.4420   -0.0410 C.ar  120  TYR120      0.0417
     86  CZ        -0.7780  -14.2480    0.6520 C.ar  120  TYR120      0.1957
     87  OH        -0.8080  -13.0450   -0.0230 O.3   120  TYR120     -0.2866
     88  N          0.0200  -19.7360    5.3200 N.am  121  ALA121     -0.1966
     89  CA        -0.3150  -20.9950    5.9620 C.3   121  ALA121      0.1728
     90  C         -1.7170  -20.9210    6.5610 C.2   121  ALA121      0.2616
     91  O         -2.1610  -19.8520    6.9500 O.2   121  ALA121     -0.2715
     92  CB         0.7010  -21.3280    7.0340 C.3   121  ALA121      0.0334
     93  N         -2.4160  -22.0550    6.6200 N.am  122  MET122     -0.1963
     94  CA        -3.7120  -22.0900    7.2890 C.3   122  MET122      0.1736
     95  C         -3.5430  -22.0190    8.7990 C.2   122  MET122      0.2617
     96  O         -2.5670  -22.5210    9.3830 O.2   122  MET122     -0.2715
     97  CB        -4.4990  -23.3620    6.9150 C.3   122  MET122      0.0427
     98  CG        -4.7890  -23.4890    5.4380 C.3   122  MET122      0.0599
     99  SD        -5.8440  -22.1570    4.7580 S.3   122  MET122     -0.1393
    100  CE        -7.3930  -22.4750    5.6230 C.3   122  MET122      0.0692
    101  N         -4.5120  -21.3830    9.4410 N.am  123  GLY123     -0.1940
    102  CA        -4.5610  -21.3210   10.8850 C.3   123  GLY123      0.2014
    103  C         -5.8330  -21.9920   11.3830 C.2   123  GLY123      0.2638
    104  O         -6.7220  -22.2900   10.5960 O.2   123  GLY123     -0.2714
    105  N         -5.9150  -22.1810   12.6840 N.am  124  LEU124     -0.1977
    106  CA        -7.0840  -22.7600   13.3430 C.3   124  LEU124      0.1596
    107  C         -7.4870  -21.8730   14.4950 C.2   124  LEU124      0.2287
    108  O         -6.7130  -21.6590   15.4330 O.2   124  LEU124     -0.2864
    109  CB        -6.7640  -24.1800   13.8120 C.3   124  LEU124      0.0297
    110  CG        -7.7960  -24.9210   14.6540 C.3   124  LEU124      0.0022
    111  CD1       -9.0780  -25.0670   13.8880 C.3   124  LEU124      0.0001
    112  CD2       -7.2750  -26.3130   15.0140 C.3   124  LEU124      0.0001
    113  N         -4.1890  -21.2190   16.5460 N.3   153  LEU153     -0.1231
    114  CA        -3.1600  -22.2060   16.3170 C.3   153  LEU153      0.1693
    115  C         -2.6750  -22.1030   14.8710 C.2   153  LEU153      0.2593
    116  O         -3.4150  -21.7320   13.9810 O.2   153  LEU153     -0.2718
    117  CB        -3.6690  -23.6290   16.5940 C.3   153  LEU153      0.0284
    118  CG        -4.2930  -23.9730   17.9530 C.3   153  LEU153      0.0019
    119  CD1       -4.4540  -25.4960   18.0190 C.3   153  LEU153      0.0001
    120  CD2       -3.4460  -23.4970   19.0790 C.3   153  LEU153      0.0001
    121  N         -1.4160  -22.4410   14.6440 N.am  154  GLY154     -0.1943
    122  CA        -0.8650  -22.3880   13.3060 C.3   154  GLY154      0.1998
    123  C          0.3180  -23.3340   13.2190 C.2   154  GLY154      0.2480
    124  O          0.6820  -23.9590   14.2030 O.2   154  GLY154     -0.2729
    125  N          0.9370  -23.4290   12.0440 N.am  155  PRO155     -0.2726
    126  CA         2.0830  -24.3380   11.9500 C.3   155  PRO155      0.1402
    127  C          3.2350  -23.9200   12.8810 C.2   155  PRO155      0.2269
    128  O          3.5370  -22.7400   13.0510 O.2   155  PRO155     -0.2865
    129  CB         2.4750  -24.2420   10.4830 C.3   155  PRO155      0.0296
    130  CG         1.9970  -22.8670   10.0650 C.3   155  PRO155      0.0237
    131  CD         0.7030  -22.6840   10.7970 C.3   155  PRO155      0.0939
    132  N          3.4880  -30.4350   15.2410 N.3   163  PRO163     -0.2102
    133  CA         3.4860  -29.6860   13.9900 C.3   163  PRO163      0.1504
    134  C          2.7030  -28.3760   14.0560 C.2   163  PRO163      0.2575
    135  O          2.7330  -27.6430   13.0820 O.2   163  PRO163     -0.2718
    136  CB         2.8190  -30.6480   12.9970 C.3   163  PRO163      0.0282
    137  CG         2.6840  -31.9610   13.7290 C.3   163  PRO163      0.0208
    138  CD         2.6640  -31.6510   15.1620 C.3   163  PRO163      0.0893
    139  N          1.9920  -28.1270   15.1550 N.am  164  TYR164     -0.1977
    140  CA         1.2690  -26.8690   15.3480 C.3   164  TYR164      0.1639
    141  C          1.7250  -26.2180   16.6540 C.2   164  TYR164      0.2290
    142  O          2.3220  -26.8630   17.5310 O.2   164  TYR164     -0.2864
    143  CB        -0.2570  -27.1020   15.3600 C.3   164  TYR164      0.0560
    144  CG        -0.6950  -28.1210   16.3950 C.ar  164  TYR164     -0.0198
    145  CD1       -0.6530  -29.4710   16.1310 C.ar  164  TYR164     -0.0009
    146  CD2       -1.1170  -27.7200   17.6570 C.ar  164  TYR164     -0.0009
    147  CE1       -1.0390  -30.3970   17.0810 C.ar  164  TYR164      0.0417
    148  CE2       -1.4990  -28.6390   18.6130 C.ar  164  TYR164      0.0417
    149  CZ        -1.4520  -29.9740   18.3230 C.ar  164  TYR164      0.1957
    150  OH        -1.8430  -30.8900   19.2790 O.3   164  TYR164     -0.2866
@<TRIPOS>BOND
     1    85    86   ar
     2    85    83   ar
     3    87    86    1
     4    86    84   ar
     5    83    81   ar
     6    72    75    1
     7    72    73    1
     8    72    71    1
     9    73    74    2
    10    84    82   ar
    11    81    82   ar
    12    81    80    1
    13    76    77    1
    14    80    77    1
    15    77    78    1
    16    79    78    2
    17    78    88   am
    18    70    68   ar
    19    32    30   ar
    20    99    98    1
    21    99   100    1
    22    31    30   ar
    23    88    89    1
    24    30    29    1
    25    68    67    1
    26    68    69   ar
    27    98    97    1
    28    67    64    1
    29    89    90    1
    30    89    92    1
    31    90    93   am
    32    90    91    2
    33    93    94    1
    34    29    28    1
    35    97    94    1
    36    64    63    1
    37    64    65    1
    38    66    65    2
    39    94    95    1
    40    28    25    1
    41    61    60    1
    42    59    58    2
    43    95    96    2
    44    95   101   am
    45    60    62    1
    46    60    57    1
    47    58    57    1
    48    24    25    1
    49    24    22   am
    50    25    26    1
    51    39    38    2
    52    10     9    1
    53   101   102    1
    54    40    38   am
    55    21    22    1
    56    21    20    1
    57    57    56    1
    58    38    37    1
    59    22    23    2
    60   130   129    1
    61   130   131    1
    62    26    33   am
    63    26    27    2
    64     7     8    1
    65     7     6    1
    66     9     8    2
    67     9    11    1
    68    33    34    1
    69    15    14    2
    70   129   126    1
    71   104   103    2
    72    20    14   am
    73   131   125    1
    74   102   103    1
    75     6     5    1
    76    14    13    1
    77     5     2    1
    78    37    34    1
    79     4     3    2
    80    34    35    1
    81   103   105   am
    82     3     2    1
    83     3    12   am
    84   126   125    1
    85   126   127    1
    86     2     1    1
    87   125   123   am
    88    13    12    1
    89    13    16    1
    90   105   106    1
    91    35    41   am
    92    35    36    2
    93   127   128    2
    94   136   137    1
    95   136   133    1
    96    41    42    1
    97   135   134    2
    98   123   122    1
    99   123   124    2
   100   122   121    1
   101   106   109    1
   102   106   107    1
   103    16    17    1
   104    48    46   am
   105   137   138    1
   106    18    17   ar
   107   109   110    1
   108   111   110    1
   109    47    46    2
   110   116   115    2
   111   133   134    1
   112   133   132    1
   113   134   139   am
   114    46    45    1
   115    17    19   ar
   116    55    53    1
   117    42    45    1
   118    42    43    1
   119   107   108    2
   120   121   115   am
   121   110   112    1
   122   115   114    1
   123    49    43   am
   124    49    50    1
   125   139   140    1
   126   138   132    1
   127    53    50    1
   128    53    54    1
   129   140   143    1
   130   140   141    1
   131   143   144    1
   132    43    44    2
   133    50    51    1
   134   145   144   ar
   135   145   147   ar
   136   114   113    1
   137   114   117    1
   138   144   146   ar
   139   117   118    1
   140   141   142    2
   141   147   149   ar
   142    51    52    2
   143   146   148   ar
   144   118   119    1
   145   118   120    1
   146   149   148   ar
   147   149   150    1
