@<TRIPOS>MOLECULE
tmp/4x2sC00.pdb
 101 93 0 0 0
SMALL
GASTEIGER

@<TRIPOS>ATOM
      1  N         79.6270  -56.8820  -18.2350 N.3   271  SER271     -0.1202
      2  CA        78.9200  -56.0230  -19.1910 C.3   271  SER271      0.2020
      3  C         77.6480  -55.4170  -18.6070 C.2   271  SER271      0.2619
      4  O         76.6380  -55.2720  -19.3060 O.2   271  SER271     -0.2717
      5  CB        78.5990  -56.7830  -20.4840 C.3   271  SER271      0.2103
      6  OG        77.4030  -57.5360  -20.3710 O.3   271  SER271     -0.2182
      7  N         77.7130  -55.0570  -17.3290 N.am  272  SER272     -0.1937
      8  CA        76.5410  -54.5700  -16.6050 C.3   272  SER272      0.2055
      9  C         76.9150  -53.4350  -15.6540 C.2   272  SER272      0.2643
     10  O         77.8800  -53.5410  -14.8930 O.2   272  SER272     -0.2714
     11  CB        75.8710  -55.7180  -15.8410 C.3   272  SER272      0.2130
     12  OG        74.6270  -55.3120  -15.2850 O.3   272  SER272     -0.2179
     13  N         76.1430  -52.3520  -15.7140 N.am  273  SER273     -0.1949
     14  CA        76.1910  -51.2970  -14.7030 C.3   273  SER273      0.1924
     15  C         75.4520  -51.6790  -13.4200 C.2   273  SER273      0.2314
     16  O         75.6110  -51.0220  -12.3930 O.2   273  SER273     -0.2863
     17  CB        75.6030  -50.0010  -15.2540 C.3   273  SER273      0.2116
     18  OG        76.3730  -49.5270  -16.3350 O.3   273  SER273     -0.2180
     19  N         75.6980  -42.6630  -19.5140 N.3   306  MET306     -0.1245
     20  CA        76.3710  -43.7050  -20.2630 C.3   306  MET306      0.1570
     21  C         77.1860  -43.0860  -21.4090 C.2   306  MET306      0.2261
     22  O         76.6620  -42.7550  -22.4780 O.2   306  MET306     -0.2867
     23  CB        75.3550  -44.7350  -20.7630 C.3   306  MET306      0.0387
     24  CG        75.1750  -45.9030  -19.8070 C.3   306  MET306      0.0595
     25  SD        73.5890  -46.7610  -19.8940 S.3   306  MET306     -0.1393
     26  CE        73.7660  -47.8080  -18.4540 C.3   306  MET306      0.0692
     27  N         77.8740  -45.9150  -24.3760 N.3   309  THR309     -0.1218
     28  CA        76.6170  -46.1770  -25.0890 C.3   309  THR309      0.1862
     29  C         76.1960  -45.0260  -26.0280 C.2   309  THR309      0.2287
     30  O         75.6590  -45.2600  -27.1220 O.2   309  THR309     -0.2866
     31  CB        75.4770  -46.4820  -24.0990 C.3   309  THR309      0.1770
     32  OG1       75.9390  -47.4240  -23.1260 O.3   309  THR309     -0.2211
     33  CG2       74.2630  -47.0650  -24.8050 C.3   309  THR309      0.0375
     34  N         68.9180  -45.3950  -21.4480 N.3   347  THR347     -0.1218
     35  CA        69.3080  -46.7800  -21.7020 C.3   347  THR347      0.1862
     36  C         69.3730  -47.5500  -20.4040 C.2   347  THR347      0.2287
     37  O         69.4910  -46.9610  -19.3310 O.2   347  THR347     -0.2866
     38  CB        70.7020  -46.8760  -22.3470 C.3   347  THR347      0.1770
     39  OG1       71.5990  -46.0080  -21.6430 O.3   347  THR347     -0.2211
     40  CG2       70.6580  -46.5050  -23.8260 C.3   347  THR347      0.0375
     41  N         71.3440  -50.3830  -18.7900 N.3   349  GLY349     -0.1210
     42  CA        72.4010  -50.7570  -17.8670 C.3   349  GLY349      0.1956
     43  C         72.3410  -52.2100  -17.4870 C.2   349  GLY349      0.2612
     44  O         72.8630  -52.6060  -16.4440 O.2   349  GLY349     -0.2717
     45  N         71.7220  -53.0110  -18.3410 N.am  350  VAL350     -0.1966
     46  CA        71.8340  -54.4580  -18.2330 C.3   350  VAL350      0.1712
     47  C         72.8360  -54.9000  -19.3190 C.2   350  VAL350      0.2458
     48  O         73.9350  -54.3450  -19.3580 O.2   350  VAL350     -0.2730
     49  CB        70.4470  -55.1500  -18.2240 C.3   350  VAL350      0.0289
     50  CG1       70.4220  -56.2600  -17.1670 C.3   350  VAL350      0.0023
     51  CG2       69.3380  -54.1590  -17.9100 C.3   350  VAL350      0.0023
     52  N         72.4990  -55.8740  -20.1930 N.am  351  PRO351     -0.2727
     53  CA        73.3830  -55.9740  -21.3610 C.3   351  PRO351      0.1402
     54  C         72.8070  -55.4410  -22.6970 C.2   351  PRO351      0.2269
     55  O         73.5410  -54.8120  -23.4690 O.2   351  PRO351     -0.2865
     56  CB        73.6780  -57.4860  -21.4370 C.3   351  PRO351      0.0296
     57  CG        72.7240  -58.1570  -20.4880 C.3   351  PRO351      0.0237
     58  CD        71.7500  -57.1280  -20.0190 C.3   351  PRO351      0.0939
     59  N         69.9160  -53.4750  -23.8340 N.3   353  ALA353     -0.1231
     60  CA        69.1480  -52.2730  -24.2240 C.3   353  ALA353      0.1694
     61  C         70.0180  -51.0060  -24.3510 C.2   353  ALA353      0.2592
     62  O         69.5460  -49.8870  -24.1310 O.2   353  ALA353     -0.2718
     63  CB        68.0040  -52.0260  -23.2360 C.3   353  ALA353      0.0304
     64  N         71.2790  -51.1810  -24.7170 N.am  354  GLY354     -0.1957
     65  CA        71.9890  -50.1730  -25.4930 C.3   354  GLY354      0.1869
     66  C         71.6010  -50.1970  -26.9750 C.2   354  GLY354      0.2309
     67  O         71.2400  -49.1680  -27.5750 O.2   354  GLY354     -0.2863
     68  N         79.2040  -54.6090  -26.4550 N.3   389  ASP389     -0.1239
     69  CA        78.4620  -54.3530  -25.2110 C.3   389  ASP389      0.1674
     70  C         79.3900  -54.5110  -24.0040 C.2   389  ASP389      0.2266
     71  O         79.4320  -53.6690  -23.1010 O.2   389  ASP389     -0.2867
     72  CB        77.2790  -55.3340  -25.1110 C.3   389  ASP389      0.1410
     73  CG        76.7050  -55.4570  -23.6960 C.2   389  ASP389      0.3668
     74  OD1       76.6650  -54.4560  -22.9500 O.co2 389  ASP389     -0.2456
     75  OD2       76.2740  -56.5710  -23.3360 O.co2 389  ASP389     -0.2456
     76  N         81.7950  -51.7980  -24.4430 N.3   392  ARG392     -0.1231
     77  CA        81.1450  -50.4990  -24.2590 C.3   392  ARG392      0.1694
     78  C         80.9940  -50.1650  -22.7700 C.2   392  ARG392      0.2592
     79  O         81.3810  -49.0780  -22.3250 O.2   392  ARG392     -0.2718
     80  CB        79.7870  -50.4990  -24.9870 C.3   392  ARG392      0.0321
     81  CG        78.7810  -49.4350  -24.5770 C.3   392  ARG392      0.0489
     82  CD        77.4560  -49.6570  -25.2800 C.3   392  ARG392      0.2205
     83  NE        76.8300  -50.9180  -24.9050 N.pl3 392  ARG392     -0.0865
     84  CZ        75.7550  -51.4300  -25.4910 C.cat 392  ARG392      0.5346
     85  NH1       75.1810  -50.8000  -26.4970 N.pl3 392  ARG392      0.1354
     86  NH2       75.2480  -52.5830  -25.0730 N.pl3 392  ARG392      0.1354
     87  N         80.4370  -51.1130  -22.0170 N.am  393  THR393     -0.1953
     88  CA        80.0440  -50.9000  -20.6190 C.3   393  THR393      0.1897
     89  C         81.1910  -50.3260  -19.7850 C.2   393  THR393      0.2313
     90  O         80.9830  -49.4490  -18.9510 O.2   393  THR393     -0.2863
     91  CB        79.5740  -52.2230  -19.9850 C.3   393  THR393      0.1794
     92  OG1       78.4880  -52.7640  -20.7540 O.3   393  THR393     -0.2208
     93  CG2       79.1330  -52.0210  -18.5240 C.3   393  THR393      0.0378
     94  N         81.0960  -46.6240  -19.6740 N.3   396  ASN396     -0.1240
     95  CA        79.8770  -46.1670  -18.9880 C.3   396  ASN396      0.1653
     96  C         80.0290  -46.0780  -17.4730 C.2   396  ASN396      0.2266
     97  O         79.3880  -45.2500  -16.8260 O.2   396  ASN396     -0.2867
     98  CB        78.7050  -47.1020  -19.2980 C.3   396  ASN396      0.1155
     99  CG        78.4050  -47.2040  -20.7800 C.2   396  ASN396      0.2627
    100  OD1       78.8810  -46.4050  -21.5840 O.2   396  ASN396     -0.2716
    101  ND2       77.6040  -48.1920  -21.1480 N.am  396  ASN396     -0.0877
@<TRIPOS>BOND
     1    67    66    2
     2    30    29    2
     3    66    65    1
     4    85    84    1
     5    68    69    1
     6    29    28    1
     7    65    64    1
     8    84    86    1
     9    84    83    2
    10    82    83    1
    11    82    81    1
    12    69    72    1
    13    69    70    1
    14    72    73    1
    15    28    27    1
    16    28    31    1
    17    80    81    1
    18    80    77    1
    19    33    31    1
    20    64    61   am
    21    76    77    1
    22    61    60    1
    23    61    62    2
    24    77    78    1
    25    60    59    1
    26    60    63    1
    27    31    32    1
    28    70    71    2
    29    40    38    1
    30    73    75   ar
    31    73    74   ar
    32    55    54    2
    33    78    79    2
    34    78    87   am
    35    54    53    1
    36    22    21    2
    37    38    35    1
    38    38    39    1
    39    87    88    1
    40    35    34    1
    41    35    36    1
    42   100    99    2
    43    56    53    1
    44    56    57    1
    45    21    20    1
    46    53    52    1
    47   101    99   am
    48    99    98    1
    49    23    20    1
    50    23    24    1
    51    92    91    1
    52    88    91    1
    53    88    89    1
    54    57    58    1
    55     5     6    1
    56     5     2    1
    57    36    37    2
    58    20    19    1
    59    52    58    1
    60    52    47   am
    61    91    93    1
    62    25    24    1
    63    25    26    1
    64    89    90    2
    65    94    95    1
    66    48    47    2
    67    47    46    1
    68     4     3    2
    69    98    95    1
    70     2     3    1
    71     2     1    1
    72    95    96    1
    73    41    42    1
    74     3     7   am
    75    45    46    1
    76    45    43   am
    77    46    49    1
    78    49    51    1
    79    49    50    1
    80    42    43    1
    81    43    44    2
    82    96    97    2
    83     7     8    1
    84     8    11    1
    85     8     9    1
    86    18    17    1
    87    11    12    1
    88    13     9   am
    89    13    14    1
    90     9    10    2
    91    17    14    1
    92    14    15    1
    93    15    16    2
