@<TRIPOS>MOLECULE
tmp/4x2tC00.pdb
 162 151 0 0 0
SMALL
GASTEIGER

@<TRIPOS>ATOM
      1  N         69.3270   67.1940   -0.6170 N.3   289  LYS289     -0.1245
      2  CA        70.3670   67.6890    0.2700 C.3   289  LYS289      0.1561
      3  C         71.5590   68.0720   -0.5800 C.2   289  LYS289      0.2260
      4  O         72.0770   67.2460   -1.3280 O.2   289  LYS289     -0.2867
      5  CB        70.7710   66.6360    1.3010 C.3   289  LYS289      0.0271
      6  CG        71.7150   67.1460    2.3740 C.3   289  LYS289      0.0035
      7  CD        72.1280   66.0310    3.3130 C.3   289  LYS289      0.0206
      8  CE        73.3040   66.4450    4.1680 C.3   289  LYS289      0.1093
      9  NZ        73.7120   65.3720    5.1160 N.3   289  LYS289     -0.1314
     10  N         80.7260   68.2400    3.8540 N.3   294  ASP294     -0.1239
     11  CA        80.3170   68.1850    5.2440 C.3   294  ASP294      0.1674
     12  C         81.5160   67.8970    6.1390 C.2   294  ASP294      0.2266
     13  O         81.8930   66.7440    6.3270 O.2   294  ASP294     -0.2867
     14  CB        79.2440   67.1130    5.4430 C.3   294  ASP294      0.1410
     15  CG        78.5080   67.2620    6.7570 C.2   294  ASP294      0.3668
     16  OD1       78.9030   68.1370    7.5600 O.co2 294  ASP294     -0.2456
     17  OD2       77.5460   66.4920    6.9910 O.co2 294  ASP294     -0.2456
     18  N         84.0960   66.2300   12.2120 N.3   301  LYS301     -0.1245
     19  CA        84.2000   64.7970   11.9740 C.3   301  LYS301      0.1561
     20  C         85.6200   64.3290   12.2590 C.2   301  LYS301      0.2260
     21  O         86.4410   64.2030   11.3530 O.2   301  LYS301     -0.2867
     22  CB        83.8020   64.4500   10.5380 C.3   301  LYS301      0.0271
     23  CG        82.3270   64.6700   10.2340 C.3   301  LYS301      0.0035
     24  CD        81.9960   64.3630    8.7760 C.3   301  LYS301      0.0206
     25  CE        80.5330   64.6460    8.4610 C.3   301  LYS301      0.1093
     26  NZ        79.6030   63.6370    9.0530 N.3   301  LYS301     -0.1314
     27  N         86.0160   56.5790   12.0080 N.3   305  GLY305     -0.1210
     28  CA        84.8300   56.1060   11.3190 C.3   305  GLY305      0.1956
     29  C         84.0020   57.1860   10.6500 C.2   305  GLY305      0.2613
     30  O         83.0460   56.8790    9.9400 O.2   305  GLY305     -0.2717
     31  N         84.3380   58.4490   10.9010 N.am  306  SER306     -0.1938
     32  CA        83.5480   59.5630   10.3820 C.3   306  SER306      0.2055
     33  C         83.6300   59.6690    8.8580 C.2   306  SER306      0.2642
     34  O         82.7270   60.2170    8.2270 O.2   306  SER306     -0.2714
     35  CB        83.9830   60.8790   11.0310 C.3   306  SER306      0.2130
     36  OG        85.3740   61.1040   10.8850 O.3   306  SER306     -0.2179
     37  N         84.7080   59.1340    8.2810 N.am  307  MET307     -0.1976
     38  CA        84.9190   59.1300    6.8310 C.3   307  MET307      0.1605
     39  C         84.8750   60.5440    6.2610 C.2   307  MET307      0.2287
     40  O         84.1390   60.8110    5.3080 O.2   307  MET307     -0.2864
     41  CB        83.8650   58.2730    6.1260 C.3   307  MET307      0.0413
     42  CG        83.9570   56.7840    6.3810 C.3   307  MET307      0.0598
     43  SD        82.4950   55.9460    5.7470 S.3   307  MET307     -0.1393
     44  CE        81.1960   56.9580    6.4610 C.3   307  MET307      0.0692
     45  N         83.1160   63.1170    2.3620 N.3   311  MET311     -0.1245
     46  CA        81.9830   64.0070    2.6100 C.3   311  MET311      0.1570
     47  C         81.6960   65.0310    1.5050 C.2   311  MET311      0.2261
     48  O         80.8370   65.8940    1.6740 O.2   311  MET311     -0.2867
     49  CB        82.2020   64.7230    3.9410 C.3   311  MET311      0.0387
     50  CG        82.0780   63.7830    5.1230 C.3   311  MET311      0.0595
     51  SD        80.4610   63.0320    5.2110 S.3   311  MET311     -0.1393
     52  CE        80.7790   61.4820    6.0450 C.3   311  MET311      0.0692
     53  N         78.0030   64.6780    0.1030 N.3   314  ASP314     -0.1239
     54  CA        76.8740   65.1220    0.9140 C.3   314  ASP314      0.1674
     55  C         75.8320   65.8640    0.0800 C.2   314  ASP314      0.2266
     56  O         74.8270   66.3410    0.6080 O.2   314  ASP314     -0.2867
     57  CB        77.3560   66.0100    2.0630 C.3   314  ASP314      0.1410
     58  CG        76.6210   65.7360    3.3600 C.2   314  ASP314      0.3668
     59  OD1       76.6210   66.6180    4.2430 O.co2 314  ASP314     -0.2456
     60  OD2       76.0420   64.6370    3.4960 O.co2 314  ASP314     -0.2456
     61  N         74.0380   69.7220   17.4230 N.3   372  ASN372     -0.1240
     62  CA        75.1740   69.1930   16.6830 C.3   372  ASN372      0.1653
     63  C         75.2360   69.8260   15.3000 C.2   372  ASN372      0.2266
     64  O         74.3110   69.6730   14.4990 O.2   372  ASN372     -0.2867
     65  CB        75.0880   67.6670   16.5710 C.3   372  ASN372      0.1155
     66  CG        76.3650   67.0400   16.0240 C.2   372  ASN372      0.2627
     67  OD1       76.9910   67.5780   15.1170 O.2   372  ASN372     -0.2716
     68  ND2       76.7440   65.8890   16.5680 N.am  372  ASN372     -0.0877
     69  N         77.0360   68.9660   12.9520 N.3   374  ASP374     -0.1225
     70  CA        77.1760   67.9290   11.9320 C.3   374  ASP374      0.1805
     71  C         75.7990   67.4000   11.5340 C.2   374  ASP374      0.2598
     72  O         75.6850   66.5890   10.6230 O.2   374  ASP374     -0.2718
     73  CB        78.0620   66.7710   12.4030 C.3   374  ASP374      0.1424
     74  CG        78.6660   65.9930   11.2410 C.2   374  ASP374      0.3668
     75  OD1       78.4980   66.4460   10.0870 O.co2 374  ASP374     -0.2456
     76  OD2       79.2720   64.9230   11.4670 O.co2 374  ASP374     -0.2456
     77  N         74.7570   67.8650   12.2140 N.am  375  ALA375     -0.1966
     78  CA        73.3920   67.5530   11.8060 C.3   375  ALA375      0.1728
     79  C         72.8490   68.6880   10.9450 C.2   375  ALA375      0.2616
     80  O         71.7720   69.2180   11.2080 O.2   375  ALA375     -0.2715
     81  CB        72.5020   67.3290   13.0190 C.3   375  ALA375      0.0334
     82  N         73.6140   69.0490    9.9170 N.am  376  GLU376     -0.1963
     83  CA        73.3580   70.2510    9.1270 C.3   376  GLU376      0.1733
     84  C         72.3290   70.0410    8.0070 C.2   376  GLU376      0.2617
     85  O         71.6630   70.9830    7.5790 O.2   376  GLU376     -0.2715
     86  CB        74.6740   70.7590    8.5260 C.3   376  GLU376      0.0429
     87  CG        75.0420   70.1100    7.1980 C.3   376  GLU376      0.1163
     88  CD        75.3860   68.6450    7.3330 C.2   376  GLU376      0.3649
     89  OE1       75.7700   68.2140    8.4420 O.co2 376  GLU376     -0.2457
     90  OE2       75.2540   67.9170    6.3280 O.co2 376  GLU376     -0.2457
     91  N         72.2070   68.8020    7.5410 N.am  377  GLY377     -0.1940
     92  CA        71.3720   68.4930    6.4010 C.3   377  GLY377      0.2014
     93  C         69.9140   68.7920    6.6520 C.2   377  GLY377      0.2638
     94  O         69.2340   69.3410    5.7930 O.2   377  GLY377     -0.2714
     95  N         69.4290   68.4260    7.8310 N.am  378  ARG378     -0.1977
     96  CA        68.0270   68.6360    8.1710 C.3   378  ARG378      0.1597
     97  C         67.6980   70.1210    8.3050 C.2   378  ARG378      0.2287
     98  O         66.5470   70.5290    8.1330 O.2   378  ARG378     -0.2864
     99  CB        67.6710   67.9000    9.4630 C.3   378  ARG378      0.0334
    100  CG        68.2980   68.4820   10.7110 C.3   378  ARG378      0.0492
    101  CD        68.1460   67.5280   11.8800 C.3   378  ARG378      0.2205
    102  NE        68.9590   66.3230   11.7180 N.pl3 378  ARG378     -0.0865
    103  CZ        68.9530   65.3050   12.5710 C.cat 378  ARG378      0.5346
    104  NH1       68.1750   65.3490   13.6390 N.pl3 378  ARG378      0.1354
    105  NH2       69.7180   64.2450   12.3580 N.pl3 378  ARG378      0.1354
    106  N         71.4710   62.3160    1.8900 N.3   401  THR401     -0.1203
    107  CA        72.4380   61.5190    2.6490 C.3   401  THR401      0.1994
    108  C         72.4920   62.0200    4.0880 C.2   401  THR401      0.2618
    109  O         73.4180   62.7390    4.4740 O.2   401  THR401     -0.2717
    110  CB        73.8600   61.5760    2.0340 C.3   401  THR401      0.1784
    111  OG1       74.3270   62.9310    2.0170 O.3   401  THR401     -0.2211
    112  CG2       73.8640   61.0220    0.6150 C.3   401  THR401      0.0376
    113  N         71.4840   61.6500    4.8710 N.am  402  LEU402     -0.1965
    114  CA        71.2390   62.2980    6.1530 C.3   402  LEU402      0.1728
    115  C         71.9300   61.6420    7.3450 C.2   402  LEU402      0.2617
    116  O         72.5570   62.3250    8.1460 O.2   402  LEU402     -0.2715
    117  CB        69.7330   62.3670    6.4110 C.3   402  LEU402      0.0311
    118  CG        69.2610   63.5870    7.1990 C.3   402  LEU402      0.0022
    119  CD1       69.6420   64.8730    6.4670 C.3   402  LEU402      0.0001
    120  CD2       67.7680   63.5200    7.4310 C.3   402  LEU402      0.0001
    121  N         71.7830   60.3290    7.4860 N.am  403  THR403     -0.1937
    122  CA        72.2790   59.6350    8.6760 C.3   403  THR403      0.2028
    123  C         73.1360   58.4120    8.3770 C.2   403  THR403      0.2643
    124  O         72.7320   57.5290    7.6240 O.2   403  THR403     -0.2714
    125  CB        71.1160   59.1780    9.5750 C.3   403  THR403      0.1808
    126  OG1       70.2290   58.3520    8.8150 O.3   403  THR403     -0.2208
    127  CG2       70.3460   60.3730   10.1100 C.3   403  THR403      0.0379
    128  N         74.3010   58.3410    9.0120 N.am  404  GLY404     -0.1939
    129  CA        75.1800   57.1960    8.8650 C.3   404  GLY404      0.2014
    130  C         74.5440   55.9410    9.4340 C.2   404  GLY404      0.2638
    131  O         74.9830   54.8270    9.1530 O.2   404  GLY404     -0.2714
    132  N         73.4950   56.1300   10.2320 N.am  405  ALA405     -0.1977
    133  CA        72.7640   55.0250   10.8410 C.3   405  ALA405      0.1597
    134  C         72.1620   54.0860    9.8050 C.2   405  ALA405      0.2287
    135  O         71.8390   52.9440   10.1140 O.2   405  ALA405     -0.2864
    136  CB        71.6770   55.5560   11.7460 C.3   405  ALA405      0.0319
    137  N         73.8420   50.9640    9.5480 N.3   408  TYR408     -0.1241
    138  CA        73.5400   50.0100   10.6090 C.3   408  TYR408      0.1605
    139  C         72.1680   49.3690   10.4230 C.2   408  TYR408      0.2264
    140  O         71.9280   48.2540   10.8830 O.2   408  TYR408     -0.2867
    141  CB        73.6080   50.7120   11.9640 C.3   408  TYR408      0.0534
    142  CG        74.9950   51.1770   12.3270 C.ar  408  TYR408     -0.0201
    143  CD1       75.2280   52.4930   12.7080 C.ar  408  TYR408     -0.0009
    144  CD2       76.0800   50.3110   12.2530 C.ar  408  TYR408     -0.0009
    145  CE1       76.5000   52.9270   13.0300 C.ar  408  TYR408      0.0417
    146  CE2       77.3530   50.7330   12.5800 C.ar  408  TYR408      0.0417
    147  CZ        77.5590   52.0420   12.9640 C.ar  408  TYR408      0.1957
    148  OH        78.8290   52.4690   13.2820 O.3   408  TYR408     -0.2866
    149  N         68.3920   67.8690   17.1840 N.3   462  ILE462     -0.1245
    150  CA        68.6730   66.4500   17.3680 C.3   462  ILE462      0.1561
    151  C         68.2200   65.9280   18.7250 C.2   462  ILE462      0.2260
    152  O         67.8300   66.6970   19.6010 O.2   462  ILE462     -0.2867
    153  CB        70.1770   66.1510   17.1740 C.3   462  ILE462      0.0252
    154  CG1       71.0330   67.2350   17.8300 C.3   462  ILE462      0.0019
    155  CG2       70.5140   66.1360   15.7120 C.3   462  ILE462      0.0019
    156  CD1       71.3210   67.0110   19.2890 C.3   462  ILE462      0.0001
    157  N         68.6950   57.5550   15.1790 N.3   468  SER468     -0.1217
    158  CA        68.8990   58.8350   14.4940 C.3   468  SER468      0.1889
    159  C         68.1500   59.0700   13.1700 C.2   468  SER468      0.2288
    160  O         67.7620   60.2050   12.8830 O.2   468  SER468     -0.2866
    161  CB        70.3890   59.0290   14.2460 C.3   468  SER468      0.2089
    162  OG        70.9500   57.8420   13.7270 O.3   468  SER468     -0.2183
@<TRIPOS>BOND
     1     4     3    2
     2     1     2    1
     3     3     2    1
     4    55    56    2
     5    55    54    1
     6    53    54    1
     7     2     5    1
     8   112   110    1
     9    54    57    1
    10     5     6    1
    11    47    48    2
    12    47    46    1
    13   106   107    1
    14   111   110    1
    15   110   107    1
    16    57    58    1
    17    45    46    1
    18     6     7    1
    19    46    49    1
    20   107   108    1
    21     7     8    1
    22    58    60   ar
    23    58    59   ar
    24    10    11    1
    25    49    50    1
    26   108   109    2
    27   108   113   am
    28     8     9    1
    29   113   114    1
    30    50    51    1
    31    51    52    1
    32    11    14    1
    33    11    12    1
    34    40    39    2
    35    14    15    1
    36    43    42    1
    37    43    44    1
    38    94    93    2
    39    41    42    1
    40    41    38    1
    41    12    13    2
    42   114   117    1
    43   114   115    1
    44    39    38    1
    45    90    88   ar
    46    92    93    1
    47    92    91    1
    48   117   118    1
    49   119   118    1
    50    93    95   am
    51    15    17   ar
    52    15    16   ar
    53    38    37    1
    54    87    88    1
    55    87    86    1
    56   118   120    1
    57    88    89   ar
    58   115   121   am
    59   115   116    2
    60   121   122    1
    61    91    84   am
    62    85    84    2
    63   124   123    2
    64    95    96    1
    65    84    83    1
    66    98    97    2
    67    96    97    1
    68    96    99    1
    69    34    33    2
    70    37    33   am
    71   123   122    1
    72   123   128   am
    73    25    24    1
    74    25    26    1
    75    86    83    1
    76   122   125    1
    77    24    23    1
    78   126   125    1
    79    33    32    1
    80   129   128    1
    81   129   130    1
    82    83    82    1
    83   131   130    2
    84   130   132   am
    85    99   100    1
    86   137   138    1
    87   125   127    1
    88   134   135    2
    89   134   133    1
    90    82    79   am
    91    30    29    2
    92    75    74   ar
    93   132   133    1
    94    23    22    1
    95    32    31    1
    96    32    35    1
    97   139   138    1
    98   139   140    2
    99    22    19    1
   100   138   141    1
   101    72    71    2
   102    29    31   am
   103    29    28    1
   104   100   101    1
   105   133   136    1
   106    36    35    1
   107    79    80    2
   108    79    78    1
   109    74    76   ar
   110    74    73    1
   111    28    27    1
   112    21    20    2
   113    71    70    1
   114    71    77   am
   115   102   101    1
   116   102   103    2
   117    78    77    1
   118    78    81    1
   119    70    73    1
   120    70    69    1
   121   141   142    1
   122    19    18    1
   123    19    20    1
   124   144   142   ar
   125   144   146   ar
   126   142   143   ar
   127   105   103    1
   128   103   104    1
   129   146   147   ar
   130   143   145   ar
   131   160   159    2
   132   147   145   ar
   133   147   148    1
   134   159   158    1
   135   162   161    1
   136   161   158    1
   137   158   157    1
   138    64    63    2
   139    67    66    2
   140    63    62    1
   141   155   153    1
   142    66    68   am
   143    66    65    1
   144    65    62    1
   145    62    61    1
   146   153   150    1
   147   153   154    1
   148   149   150    1
   149   150   151    1
   150   154   156    1
   151   151   152    2
