@<TRIPOS>MOLECULE
tmp/4x2tH00.pdb
 132 122 0 0 0
SMALL
GASTEIGER

@<TRIPOS>ATOM
      1  N        113.4880   70.1120  117.1150 N.3   283  LYS283     -0.1245
      2  CA       112.0810   70.3010  117.4520 C.3   283  LYS283      0.1561
      3  C        111.9110   71.5200  118.3420 C.2   283  LYS283      0.2260
      4  O        112.5270   71.6050  119.4010 O.2   283  LYS283     -0.2867
      5  CB       111.5070   69.0730  118.1550 C.3   283  LYS283      0.0271
      6  CG       110.0020   69.1530  118.3850 C.3   283  LYS283      0.0035
      7  CD       109.4870   67.9470  119.1500 C.3   283  LYS283      0.0206
      8  CE       108.0930   68.1930  119.6780 C.3   283  LYS283      0.1093
      9  NZ       107.5380   67.0140  120.3900 N.3   283  LYS283     -0.1314
     10  N        103.7540   72.4590  124.5640 N.3   288  ASP288     -0.1239
     11  CA       102.9170   71.4040  124.0110 C.3   288  ASP288      0.1674
     12  C        101.7480   71.0840  124.9420 C.2   288  ASP288      0.2266
     13  O        101.8900   70.3050  125.8810 O.2   288  ASP288     -0.2867
     14  CB       103.7440   70.1450  123.7520 C.3   288  ASP288      0.1410
     15  CG       103.0440   69.1610  122.8320 C.2   288  ASP288      0.3668
     16  OD1      101.8710   69.3980  122.4770 O.co2 288  ASP288     -0.2456
     17  OD2      103.6680   68.1390  122.4780 O.co2 288  ASP288     -0.2456
     18  N         96.4860   67.2460  126.6350 N.3   295  LYS295     -0.1245
     19  CA        97.1160   66.4020  127.6360 C.3   295  LYS295      0.1561
     20  C         96.3400   66.4480  128.9360 C.2   295  LYS295      0.2260
     21  O         96.6400   67.2620  129.8090 O.2   295  LYS295     -0.2867
     22  CB        98.5400   66.8780  127.8850 C.3   295  LYS295      0.0271
     23  CG        99.4690   66.7100  126.7110 C.3   295  LYS295      0.0035
     24  CD       100.8060   67.3460  127.0260 C.3   295  LYS295      0.0206
     25  CE       101.7520   67.2700  125.8430 C.3   295  LYS295      0.1093
     26  NZ       102.3060   65.9060  125.6440 N.3   295  LYS295     -0.1314
     27  N        105.8680   70.8090  129.9370 N.3   305  MET305     -0.1245
     28  CA       105.8300   70.8730  128.4790 C.3   305  MET305      0.1570
     29  C        106.4590   72.1450  127.8950 C.2   305  MET305      0.2261
     30  O        106.3820   72.3790  126.6900 O.2   305  MET305     -0.2867
     31  CB       104.3830   70.7330  127.9980 C.3   305  MET305      0.0387
     32  CG       103.8280   69.3260  128.1670 C.3   305  MET305      0.0595
     33  SD       104.7820   68.1070  127.2450 S.3   305  MET305     -0.1393
     34  CE       104.4800   66.5930  128.1490 C.3   305  MET305      0.0692
     35  N        109.4560   71.2260  125.3360 N.3   308  ASP308     -0.1239
     36  CA       109.2520   70.6080  124.0300 C.3   308  ASP308      0.1674
     37  C        110.0340   71.3110  122.9230 C.2   308  ASP308      0.2266
     38  O        109.8260   71.0530  121.7360 O.2   308  ASP308     -0.2867
     39  CB       107.7630   70.5450  123.7020 C.3   308  ASP308      0.1410
     40  CG       107.3990   69.2980  122.9300 C.2   308  ASP308      0.3668
     41  OD1      108.1260   68.2900  123.0570 O.co2 308  ASP308     -0.2456
     42  OD2      106.3750   69.3090  122.2230 O.co2 308  ASP308     -0.2456
     43  N         95.8730   62.7720  115.6850 N.3   366  ASN366     -0.1240
     44  CA        96.1250   63.2060  117.0380 C.3   366  ASN366      0.1653
     45  C         96.8600   64.5090  116.9070 C.2   366  ASN366      0.2266
     46  O         97.8520   64.5810  116.1820 O.2   366  ASN366     -0.2867
     47  CB        96.9710   62.1740  117.8150 C.3   366  ASN366      0.1155
     48  CG        97.0050   62.4200  119.3260 C.2   366  ASN366      0.2627
     49  OD1       97.0600   63.5450  119.7940 O.2   366  ASN366     -0.2716
     50  ND2       97.0010   61.3410  120.0880 N.am  366  ASN366     -0.0877
     51  N         99.0340   67.0040  119.3710 N.3   368  ASP368     -0.1225
     52  CA       100.0600   66.3440  120.2460 C.3   368  ASP368      0.1805
     53  C        101.0860   65.4820  119.3820 C.2   368  ASP368      0.2598
     54  O        102.2540   65.3720  119.7080 O.2   368  ASP368     -0.2718
     55  CB        99.3490   65.4270  121.2320 C.3   368  ASP368      0.1424
     56  CG       100.0140   65.3880  122.6170 C.2   368  ASP368      0.3668
     57  OD1       99.7920   64.4840  123.3950 O.co2 368  ASP368     -0.2456
     58  OD2      100.7770   66.2500  122.9630 O.co2 368  ASP368     -0.2456
     59  N        100.6500   64.8560  118.3020 N.am  369  ALA369     -0.1966
     60  CA       101.5990   64.1720  117.4450 C.3   369  ALA369      0.1728
     61  C        101.9870   65.2950  116.5500 C.2   369  ALA369      0.2616
     62  O        101.9570   65.1810  115.3710 O.2   369  ALA369     -0.2715
     63  CB       100.9760   63.0440  116.6920 C.3   369  ALA369      0.0334
     64  N        102.3620   66.4040  117.1570 N.am  370  GLU370     -0.1963
     65  CA       102.6590   67.6180  116.4510 C.3   370  GLU370      0.1733
     66  C        104.0750   67.8510  116.0980 C.2   370  GLU370      0.2617
     67  O        104.3500   68.5640  115.2080 O.2   370  GLU370     -0.2715
     68  CB       102.1230   68.7990  117.2620 C.3   370  GLU370      0.0429
     69  CG       103.1020   69.5310  118.1730 C.3   370  GLU370      0.1163
     70  CD       103.5650   68.7180  119.3070 C.2   370  GLU370      0.3649
     71  OE1      102.8820   67.8070  119.6430 O.co2 370  GLU370     -0.2457
     72  OE2      104.6160   68.9770  119.8680 O.co2 370  GLU370     -0.2457
     73  N        104.9580   67.2490  116.8520 N.am  371  GLY371     -0.1940
     74  CA       106.3750   67.4420  116.6170 C.3   371  GLY371      0.2014
     75  C        106.8280   66.9620  115.2580 C.2   371  GLY371      0.2638
     76  O        107.5470   67.6680  114.5550 O.2   371  GLY371     -0.2714
     77  N        106.3700   65.7750  114.8750 N.am  372  ARG372     -0.1977
     78  CA       106.7490   65.1680  113.6060 C.3   372  ARG372      0.1597
     79  C        106.2100   65.9720  112.4210 C.2   372  ARG372      0.2287
     80  O        106.7670   65.9170  111.3280 O.2   372  ARG372     -0.2864
     81  CB       106.2560   63.7180  113.5440 C.3   372  ARG372      0.0334
     82  CG       104.7520   63.5720  113.4400 C.3   372  ARG372      0.0492
     83  CD       104.3020   62.1490  113.7240 C.3   372  ARG372      0.2205
     84  NE       104.4720   61.7910  115.1310 N.pl3 372  ARG372     -0.0865
     85  CZ       104.1910   60.5950  115.6420 C.cat 372  ARG372      0.5346
     86  NH1      103.7150   59.6330  114.8690 N.pl3 372  ARG372      0.1354
     87  NH2      104.3760   60.3640  116.9340 N.pl3 372  ARG372      0.1354
     88  N        112.2330   65.8630  121.4680 N.3   395  THR395     -0.1203
     89  CA       111.4420   65.2120  122.5090 C.3   395  THR395      0.1994
     90  C        110.1480   64.6970  121.8860 C.2   395  THR395      0.2618
     91  O        109.0800   65.2780  122.0730 O.2   395  THR395     -0.2717
     92  CB       111.1100   66.1690  123.6760 C.3   395  THR395      0.1784
     93  OG1      110.3870   67.3010  123.1740 O.3   395  THR395     -0.2211
     94  CG2      112.3780   66.6590  124.3500 C.3   395  THR395      0.0376
     95  N        110.2500   63.6010  121.1450 N.am  396  LEU396     -0.1965
     96  CA       109.1670   63.1990  120.2600 C.3   396  LEU396      0.1728
     97  C        108.1560   62.2620  120.9240 C.2   396  LEU396      0.2617
     98  O        106.9520   62.5110  120.8750 O.2   396  LEU396     -0.2715
     99  CB       109.7450   62.5420  119.0060 C.3   396  LEU396      0.0311
    100  CG       108.9240   62.8090  117.7470 C.3   396  LEU396      0.0022
    101  CD1      108.8340   64.3090  117.4960 C.3   396  LEU396      0.0001
    102  CD2      109.5240   62.1050  116.5480 C.3   396  LEU396      0.0001
    103  N        108.6370   61.1940  121.5520 N.am  397  THR397     -0.1937
    104  CA       107.7360   60.1800  122.0880 C.3   397  THR397      0.2028
    105  C        107.9950   59.8450  123.5500 C.2   397  THR397      0.2643
    106  O        109.1220   59.5700  123.9460 O.2   397  THR397     -0.2714
    107  CB       107.8190   58.8670  121.2760 C.3   397  THR397      0.1808
    108  OG1      109.1690   58.3910  121.2670 O.3   397  THR397     -0.2208
    109  CG2      107.3510   59.0860  119.8410 C.3   397  THR397      0.0379
    110  N        106.9300   59.8560  124.3460 N.am  398  GLY398     -0.1939
    111  CA       107.0130   59.4830  125.7460 C.3   398  GLY398      0.2014
    112  C        107.3690   58.0150  125.9180 C.2   398  GLY398      0.2638
    113  O        107.7670   57.5830  127.0000 O.2   398  GLY398     -0.2714
    114  N        107.2220   57.2460  124.8450 N.am  399  ALA399     -0.1977
    115  CA       107.5570   55.8300  124.8540 C.3   399  ALA399      0.1597
    116  C        109.0330   55.5970  125.1570 C.2   399  ALA399      0.2287
    117  O        109.4220   54.5020  125.5680 O.2   399  ALA399     -0.2864
    118  CB       107.1860   55.1890  123.5250 C.3   399  ALA399      0.0319
    119  N         99.9060   59.1030  112.7790 N.3   456  ILE456     -0.1245
    120  CA       100.0940   58.0700  113.7940 C.3   456  ILE456      0.1561
    121  C         99.4210   56.7520  113.4320 C.2   456  ILE456      0.2260
    122  O         98.6460   56.6690  112.4820 O.2   456  ILE456     -0.2867
    123  CB        99.5630   58.5180  115.1860 C.3   456  ILE456      0.0252
    124  CG1       98.1170   59.0140  115.1120 C.3   456  ILE456      0.0019
    125  CG2      100.4830   59.5540  115.8150 C.3   456  ILE456      0.0019
    126  CD1       97.3810   58.8840  116.4350 C.3   456  ILE456      0.0001
    127  N        105.4160   53.5460  119.4020 N.3   462  SER462     -0.1217
    128  CA       105.2270   54.9140  118.9150 C.3   462  SER462      0.1889
    129  C        106.5100   55.6170  118.4630 C.2   462  SER462      0.2288
    130  O        106.4700   56.4110  117.5250 O.2   462  SER462     -0.2866
    131  CB       104.5280   55.7640  119.9810 C.3   462  SER462      0.2089
    132  OG       105.1080   55.5720  121.2560 O.3   462  SER462     -0.2183
@<TRIPOS>BOND
     1    80    79    2
     2    79    78    1
     3   122   121    2
     4   119   120    1
     5   121   120    1
     6    82    81    1
     7    82    83    1
     8    81    78    1
     9    78    77    1
    10    83    84    1
    11   120   123    1
    12    76    75    2
    13    86    85    1
    14    77    75   am
    15   124   123    1
    16   124   126    1
    17    84    85    2
    18   123   125    1
    19    67    66    2
    20    75    74    1
    21    62    61    2
    22    85    87    1
    23    43    44    1
    24    66    65    1
    25    66    73   am
    26    46    45    2
    27    65    64    1
    28    65    68    1
    29   102   100    1
    30    61    64   am
    31    61    60    1
    32    74    73    1
    33    63    60    1
    34    45    44    1
    35    44    47    1
    36     1     2    1
    37    68    69    1
    38    60    59    1
    39     2     5    1
    40     2     3    1
    41   101   100    1
    42   130   129    2
    43   100    99    1
    44    47    48    1
    45     5     6    1
    46    69    70    1
    47    59    53   am
    48     3     4    2
    49     6     7    1
    50   129   128    1
    51   128   127    1
    52   128   131    1
    53    99    96    1
    54     7     8    1
    55    70    71   ar
    56    70    72   ar
    57    48    49    2
    58    48    50   am
    59    51    52    1
    60    53    54    2
    61    53    52    1
    62     8     9    1
    63   109   107    1
    64   131   132    1
    65    52    55    1
    66    96    97    1
    67    96    95    1
    68    98    97    2
    69    97   103   am
    70    95    90   am
    71    55    56    1
    72   108   107    1
    73   107   104    1
    74    88    89    1
    75   103   104    1
    76    38    37    2
    77    90    91    2
    78    90    89    1
    79   104   105    1
    80    42    40   ar
    81    16    15   ar
    82    17    15   ar
    83    89    92    1
    84    56    58   ar
    85    56    57   ar
    86    15    14    1
    87    37    36    1
    88    40    41   ar
    89    40    39    1
    90    93    92    1
    91   118   115    1
    92   105   106    2
    93   105   110   am
    94    92    94    1
    95    39    36    1
    96    14    11    1
    97    11    10    1
    98    11    12    1
    99    36    35    1
   100   110   111    1
   101   114   115    1
   102   114   112   am
   103   115   116    1
   104    12    13    2
   105   116   117    2
   106    26    25    1
   107   111   112    1
   108    25    24    1
   109   112   113    2
   110    18    19    1
   111    30    29    2
   112    23    24    1
   113    23    22    1
   114    33    34    1
   115    33    32    1
   116    19    22    1
   117    19    20    1
   118    29    28    1
   119    31    32    1
   120    31    28    1
   121    28    27    1
   122    20    21    2
