@<TRIPOS>MOLECULE
tmp/4x2tB00.pdb
 168 155 0 0 0
SMALL
GASTEIGER

@<TRIPOS>ATOM
      1  N        111.3320   70.0100    4.9980 N.3   283  LYS283     -0.1245
      2  CA       109.9130   70.1970    5.2550 C.3   283  LYS283      0.1561
      3  C        109.7370   71.4600    6.0780 C.2   283  LYS283      0.2260
      4  O        110.3520   71.6070    7.1350 O.2   283  LYS283     -0.2867
      5  CB       109.3220   68.9890    5.9860 C.3   283  LYS283      0.0271
      6  CG       107.8180   69.0120    6.1210 C.3   283  LYS283      0.0035
      7  CD       107.3300   67.8120    6.9050 C.3   283  LYS283      0.0206
      8  CE       105.8910   67.9860    7.3590 C.3   283  LYS283      0.1093
      9  NZ       105.4130   66.7870    8.0880 N.3   283  LYS283     -0.1314
     10  N        101.5850   72.3890   12.2150 N.3   288  ASP288     -0.1239
     11  CA       100.7450   71.3210   11.7000 C.3   288  ASP288      0.1674
     12  C         99.5570   71.0730   12.6310 C.2   288  ASP288      0.2266
     13  O         99.6670   70.3200   13.5990 O.2   288  ASP288     -0.2867
     14  CB       101.5730   70.0530   11.5360 C.3   288  ASP288      0.1410
     15  CG       100.9160   69.0360   10.6430 C.2   288  ASP288      0.3668
     16  OD1      101.5940   68.0560   10.3000 O.co2 288  ASP288     -0.2456
     17  OD2       99.7520   69.2310   10.2380 O.co2 288  ASP288     -0.2456
     18  N         94.1840   67.2940   14.6410 N.3   295  LYS295     -0.1245
     19  CA        94.8270   66.4640   15.6500 C.3   295  LYS295      0.1561
     20  C         94.0560   66.5250   16.9610 C.2   295  LYS295      0.2260
     21  O         94.3090   67.3730   17.8300 O.2   295  LYS295     -0.2867
     22  CB        96.2620   66.8850   15.8600 C.3   295  LYS295      0.0271
     23  CG        97.1090   66.6880   14.6440 C.3   295  LYS295      0.0035
     24  CD        98.5030   67.2130   14.8730 C.3   295  LYS295      0.0206
     25  CE        99.2970   67.1470   13.5990 C.3   295  LYS295      0.1093
     26  NZ        99.6550   65.7570   13.2660 N.3   295  LYS295     -0.1314
     27  N         93.1120   63.3080   18.1380 N.3   297  ALA297     -0.1245
     28  CA        93.3840   61.9700   18.6530 C.3   297  ALA297      0.1562
     29  C         94.3650   62.1140   19.8180 C.2   297  ALA297      0.2260
     30  O         95.1910   63.0190   19.8160 O.2   297  ALA297     -0.2867
     31  CB        93.9400   61.0650   17.5630 C.3   297  ALA297      0.0290
     32  N         97.2030   60.5980   20.8950 N.3   299  GLY299     -0.1210
     33  CA        98.6540   60.5660   20.7710 C.3   299  GLY299      0.1956
     34  C         99.1560   61.5600   19.7360 C.2   299  GLY299      0.2612
     35  O        100.2670   61.4290   19.2160 O.2   299  GLY299     -0.2717
     36  N         98.3070   62.5290   19.3990 N.am  300  SER300     -0.1952
     37  CA        98.6160   63.5010   18.3490 C.3   300  SER300      0.1924
     38  C         99.7080   64.5230   18.6510 C.2   300  SER300      0.2314
     39  O        100.3620   64.9980   17.7250 O.2   300  SER300     -0.2863
     40  CB        97.3540   64.2800   17.9610 C.3   300  SER300      0.2116
     41  OG        96.3990   63.4650   17.3090 O.3   300  SER300     -0.2180
     42  N        103.8110   70.7600   17.7120 N.3   305  MET305     -0.1245
     43  CA       103.7680   70.7580   16.2530 C.3   305  MET305      0.1570
     44  C        104.3170   72.0370   15.6400 C.2   305  MET305      0.2261
     45  O        104.2050   72.2580   14.4360 O.2   305  MET305     -0.2867
     46  CB       102.3330   70.5350   15.7780 C.3   305  MET305      0.0387
     47  CG       101.8570   69.1120   15.9520 C.3   305  MET305      0.0595
     48  SD       102.9240   68.0350   14.9900 S.3   305  MET305     -0.1393
     49  CE       102.7450   66.4740   15.8340 C.3   305  MET305      0.0692
     50  N        107.3240   71.1240   13.2000 N.3   308  ASP308     -0.1239
     51  CA       107.1150   70.4990   11.8990 C.3   308  ASP308      0.1674
     52  C        107.8730   71.2240   10.7900 C.2   308  ASP308      0.2266
     53  O        107.6170   71.0090    9.6060 O.2   308  ASP308     -0.2867
     54  CB       105.6220   70.4250   11.5680 C.3   308  ASP308      0.1410
     55  CG       105.2550   69.1490   10.8240 C.2   308  ASP308      0.3668
     56  OD1      105.9550   68.1300   11.0120 O.co2 308  ASP308     -0.2456
     57  OD2      104.2750   69.1660   10.0500 O.co2 308  ASP308     -0.2456
     58  N         93.8970   62.7690    3.4090 N.3   366  ASN366     -0.1240
     59  CA        94.1080   63.2230    4.7740 C.3   366  ASN366      0.1653
     60  C         94.9230   64.5060    4.7620 C.2   366  ASN366      0.2266
     61  O         96.0620   64.5420    4.3000 O.2   366  ASN366     -0.2867
     62  CB        94.7980   62.1450    5.6070 C.3   366  ASN366      0.1155
     63  CG        94.7770   62.4500    7.0910 C.2   366  ASN366      0.2627
     64  OD1       94.9530   63.5930    7.5040 O.2   366  ASN366     -0.2716
     65  ND2       94.5450   61.4270    7.9030 N.am  366  ASN366     -0.0877
     66  N         96.2580   65.9750    7.1430 N.3   368  ASP368     -0.1225
     67  CA        97.3830   65.9340    8.0730 C.3   368  ASP368      0.1805
     68  C         98.6350   65.2930    7.4590 C.2   368  ASP368      0.2598
     69  O         99.7030   65.2700    8.0720 O.2   368  ASP368     -0.2718
     70  CB        96.9870   65.1970    9.3490 C.3   368  ASP368      0.1424
     71  CG        97.8490   65.5850   10.5300 C.2   368  ASP368      0.3668
     72  OD1       98.6840   66.5060   10.3800 O.co2 368  ASP368     -0.2456
     73  OD2       97.6920   64.9770   11.6080 O.co2 368  ASP368     -0.2456
     74  N         98.4930   64.7680    6.2470 N.am  369  ALA369     -0.1966
     75  CA        99.6370   64.2870    5.4840 C.3   369  ALA369      0.1728
     76  C        100.0650   65.3890    4.5220 C.2   369  ALA369      0.2616
     77  O        100.1590   65.1800    3.3150 O.2   369  ALA369     -0.2715
     78  CB        99.3030   63.0090    4.7400 C.3   369  ALA369      0.0334
     79  N        100.2950   66.5730    5.0760 N.am  370  GLU370     -0.1963
     80  CA       100.4930   67.7770    4.2850 C.3   370  GLU370      0.1733
     81  C        101.9320   67.9590    3.7800 C.2   370  GLU370      0.2617
     82  O        102.1530   68.5830    2.7450 O.2   370  GLU370     -0.2715
     83  CB       100.0670   69.0010    5.1100 C.3   370  GLU370      0.0429
     84  CG       101.1420   69.5500    6.0480 C.3   370  GLU370      0.1163
     85  CD       101.4470   68.6250    7.2100 C.2   370  GLU370      0.3649
     86  OE1      100.5700   67.8030    7.5630 O.co2 370  GLU370     -0.2457
     87  OE2      102.5720   68.7150    7.7600 O.co2 370  GLU370     -0.2457
     88  N        102.9000   67.3960    4.4960 N.am  371  GLY371     -0.1940
     89  CA       104.3060   67.6040    4.1860 C.3   371  GLY371      0.2014
     90  C        104.7080   67.0850    2.8220 C.2   371  GLY371      0.2638
     91  O        105.4470   67.7410    2.0880 O.2   371  GLY371     -0.2714
     92  N        104.2170   65.9000    2.4810 N.am  372  ARG372     -0.1977
     93  CA       104.5300   65.2830    1.2020 C.3   372  ARG372      0.1597
     94  C        103.9260   66.0890    0.0530 C.2   372  ARG372      0.2287
     95  O        104.4010   66.0140   -1.0780 O.2   372  ARG372     -0.2864
     96  CB       104.0240   63.8410    1.1610 C.3   372  ARG372      0.0334
     97  CG       102.5100   63.7230    1.1240 C.3   372  ARG372      0.0492
     98  CD       102.0550   62.2970    1.3820 C.3   372  ARG372      0.2205
     99  NE       102.3060   61.8830    2.7570 N.pl3 372  ARG372     -0.0865
    100  CZ       102.0510   60.6710    3.2280 C.cat 372  ARG372      0.5346
    101  NH1      101.5330   59.7500    2.4300 N.pl3 372  ARG372      0.1354
    102  NH2      102.3080   60.3830    4.4950 N.pl3 372  ARG372      0.1354
    103  N        110.2060   65.9040    9.0830 N.3   395  THR395     -0.1203
    104  CA       109.4580   65.2760   10.1640 C.3   395  THR395      0.1994
    105  C        108.1060   64.8320    9.6080 C.2   395  THR395      0.2618
    106  O        107.0750   65.4490    9.8720 O.2   395  THR395     -0.2717
    107  CB       109.2790   66.2250   11.3680 C.3   395  THR395      0.1784
    108  OG1      108.6010   67.4180   10.9540 O.3   395  THR395     -0.2211
    109  CG2      110.6290   66.6120   11.9340 C.3   395  THR395      0.0376
    110  N        108.1240   63.7500    8.8370 N.am  396  LEU396     -0.1965
    111  CA       106.9900   63.3940    7.9950 C.3   396  LEU396      0.1728
    112  C        105.9670   62.4760    8.6630 C.2   396  LEU396      0.2617
    113  O        104.7770   62.7650    8.6410 O.2   396  LEU396     -0.2715
    114  CB       107.4930   62.7420    6.7010 C.3   396  LEU396      0.0311
    115  CG       106.6300   62.9900    5.4620 C.3   396  LEU396      0.0022
    116  CD1      106.5180   64.4840    5.2020 C.3   396  LEU396      0.0001
    117  CD2      107.1940   62.2710    4.2470 C.3   396  LEU396      0.0001
    118  N        106.4240   61.3800    9.2610 N.am  397  THR397     -0.1937
    119  CA       105.5020   60.3700    9.7750 C.3   397  THR397      0.2028
    120  C        105.7520   60.0050   11.2350 C.2   397  THR397      0.2643
    121  O        106.8790   59.6990   11.6230 O.2   397  THR397     -0.2714
    122  CB       105.5850   59.0740    8.9460 C.3   397  THR397      0.1808
    123  OG1      106.9250   58.5700    8.9760 O.3   397  THR397     -0.2208
    124  CG2      105.1680   59.3230    7.5090 C.3   397  THR397      0.0379
    125  N        104.6920   60.0130   12.0390 N.am  398  GLY398     -0.1939
    126  CA       104.8000   59.6330   13.4370 C.3   398  GLY398      0.2014
    127  C        105.1590   58.1690   13.6420 C.2   398  GLY398      0.2638
    128  O        105.5940   57.7770   14.7250 O.2   398  GLY398     -0.2714
    129  N        104.9880   57.3610   12.6000 N.am  399  ALA399     -0.1977
    130  CA       105.3130   55.9380   12.6570 C.3   399  ALA399      0.1597
    131  C        106.7910   55.6790   12.9490 C.2   399  ALA399      0.2287
    132  O        107.1610   54.5880   13.3820 O.2   399  ALA399     -0.2864
    133  CB       104.9150   55.2530   11.3570 C.3   399  ALA399      0.0319
    134  N        107.6500   54.3680   16.2290 N.3   402  TYR402     -0.1241
    135  CA       107.3710   52.9490   16.3980 C.3   402  TYR402      0.1605
    136  C        108.4030   52.0790   15.6910 C.2   402  TYR402      0.2264
    137  O        108.5900   50.9170   16.0440 O.2   402  TYR402     -0.2867
    138  CB       105.9740   52.6130   15.8770 C.3   402  TYR402      0.0534
    139  CG       104.8470   53.2640   16.6510 C.ar  402  TYR402     -0.0201
    140  CD1      104.2550   54.4320   16.1960 C.ar  402  TYR402     -0.0009
    141  CD2      104.3780   52.7120   17.8330 C.ar  402  TYR402     -0.0009
    142  CE1      103.2230   55.0330   16.8930 C.ar  402  TYR402      0.0417
    143  CE2      103.3460   53.3060   18.5400 C.ar  402  TYR402      0.0417
    144  CZ       102.7720   54.4670   18.0650 C.ar  402  TYR402      0.1957
    145  OH       101.7430   55.0660   18.7610 O.3   402  TYR402     -0.2866
    146  N         97.4700   59.4850    0.2720 N.3   456  ILE456     -0.1245
    147  CA        97.7350   58.4660    1.2770 C.3   456  ILE456      0.1561
    148  C         97.1520   57.1180    0.9030 C.2   456  ILE456      0.2260
    149  O         96.3750   57.0000   -0.0390 O.2   456  ILE456     -0.2867
    150  CB        97.1570   58.8530    2.6550 C.3   456  ILE456      0.0252
    151  CG1       95.7260   59.3710    2.4840 C.3   456  ILE456      0.0019
    152  CG2       98.0250   59.8940    3.3340 C.3   456  ILE456      0.0019
    153  CD1       94.8530   59.1910    3.7040 C.3   456  ILE456      0.0001
    154  N         99.8730   50.2970    6.3700 N.3   460  LYS460     -0.1245
    155  CA        99.9800   50.9980    7.6280 C.3   460  LYS460      0.1561
    156  C        101.4050   51.4060    7.7150 C.2   460  LYS460      0.2260
    157  O        101.8110   52.1110    8.6180 O.2   460  LYS460     -0.2867
    158  CB        99.5670   50.1250    8.8130 C.3   460  LYS460      0.0271
    159  CG        98.0670   49.8140    8.9760 C.3   460  LYS460      0.0035
    160  CD        97.2590   51.0060    9.4360 C.3   460  LYS460      0.0206
    161  CE        95.9790   50.5810   10.1880 C.3   460  LYS460      0.1093
    162  NZ        94.9350   49.9810    9.2910 N.3   460  LYS460     -0.1314
    163  N        103.1900   53.7410    6.9810 N.3   462  SER462     -0.1217
    164  CA       102.9910   55.1210    6.5350 C.3   462  SER462      0.1889
    165  C        104.2920   55.7790    6.0910 C.2   462  SER462      0.2288
    166  O        104.2900   56.5890    5.1690 O.2   462  SER462     -0.2866
    167  CB       102.3350   55.9650    7.6310 C.3   462  SER462      0.2089
    168  OG       102.9660   55.7740    8.8810 O.3   462  SER462     -0.2183
@<TRIPOS>BOND
     1    95    94    2
     2   149   148    2
     3    94    93    1
     4   146   147    1
     5   148   147    1
     6    97    96    1
     7    97    98    1
     8    96    93    1
     9    93    92    1
    10   147   150    1
    11    98    99    1
    12    91    90    2
    13   101   100    1
    14    92    90   am
    15   151   150    1
    16   151   153    1
    17   150   152    1
    18    82    81    2
    19    99   100    2
    20    90    89    1
    21   100   102    1
    22    77    76    2
    23    58    59    1
    24    81    80    1
    25    81    88   am
    26    89    88    1
    27   117   115    1
    28    80    79    1
    29    80    83    1
    30    61    60    2
    31    76    79   am
    32    76    75    1
    33    78    75    1
    34    60    59    1
    35    59    62    1
    36     1     2    1
    37    83    84    1
    38   166   165    2
    39   116   115    1
    40     2     5    1
    41     2     3    1
    42   115   114    1
    43    75    74    1
    44    62    63    1
    45     5     6    1
    46    84    85    1
    47     3     4    2
    48   165   164    1
    49     6     7    1
    50    74    68   am
    51   154   155    1
    52   164   163    1
    53   164   167    1
    54   114   111    1
    55     7     8    1
    56    63    64    2
    57    63    65   am
    58    66    67    1
    59    85    86   ar
    60    85    87   ar
    61     8     9    1
    62    68    69    2
    63    68    67    1
    64   124   122    1
    65   155   156    1
    66   155   158    1
    67   167   168    1
    68   156   157    2
    69   111   112    1
    70   111   110    1
    71    67    70    1
    72   113   112    2
    73   112   118   am
    74   158   159    1
    75   110   105   am
    76   122   123    1
    77   122   119    1
    78   159   160    1
    79   103   104    1
    80   118   119    1
    81   162   161    1
    82    70    71    1
    83   160   161    1
    84    53    52    2
    85   105   106    2
    86   105   104    1
    87   119   120    1
    88    57    55   ar
    89   104   107    1
    90    17    15   ar
    91    16    15   ar
    92    72    71   ar
    93    71    73   ar
    94    15    14    1
    95    52    51    1
    96    55    56   ar
    97    55    54    1
    98   108   107    1
    99   120   121    2
   100   120   125   am
   101   133   130    1
   102   107   109    1
   103    14    11    1
   104    54    51    1
   105    11    10    1
   106    11    12    1
   107    51    50    1
   108   125   126    1
   109   129   130    1
   110   129   127   am
   111    12    13    2
   112   130   131    1
   113   131   132    2
   114    26    25    1
   115   126   127    1
   116    25    24    1
   117   127   128    2
   118    45    44    2
   119    18    19    1
   120    23    24    1
   121    23    22    1
   122    48    49    1
   123    48    47    1
   124    44    43    1
   125    19    22    1
   126    19    20    1
   127   136   137    2
   128   136   135    1
   129    46    47    1
   130    46    43    1
   131   138   135    1
   132   138   139    1
   133   140   139   ar
   134   140   142   ar
   135   134   135    1
   136    43    42    1
   137   139   141   ar
   138   142   144   ar
   139    20    21    2
   140    41    40    1
   141    31    28    1
   142    39    38    2
   143   141   143   ar
   144    40    37    1
   145   144   143   ar
   146   144   145    1
   147    27    28    1
   148    37    38    1
   149    37    36    1
   150    28    29    1
   151    35    34    2
   152    36    34   am
   153    34    33    1
   154    30    29    2
   155    33    32    1
