@<TRIPOS>MOLECULE
tmp/4x2tE00.pdb
 132 122 0 0 0
SMALL
GASTEIGER

@<TRIPOS>ATOM
      1  N        108.0080   30.9210   18.0580 N.3   281  LYS281     -0.1245
      2  CA       106.9660   31.3040   19.0030 C.3   281  LYS281      0.1561
      3  C        105.7470   30.4200   18.8050 C.2   281  LYS281      0.2260
      4  O        105.2170   30.3230   17.7020 O.2   281  LYS281     -0.2867
      5  CB       106.5890   32.7740   18.8350 C.3   281  LYS281      0.0271
      6  CG       105.6350   33.3010   19.8920 C.3   281  LYS281      0.0035
      7  CD       105.2630   34.7550   19.6180 C.3   281  LYS281      0.0206
      8  CE       104.0630   35.1820   20.4420 C.3   281  LYS281      0.1093
      9  NZ       103.6860   36.6110   20.2420 N.3   281  LYS281     -0.1314
     10  N         96.5000   33.8510   21.4800 N.3   286  ASP286     -0.1239
     11  CA        96.8950   35.0390   22.2130 C.3   286  ASP286      0.1674
     12  C         95.6620   35.8830   22.5120 C.2   286  ASP286      0.2266
     13  O         95.2390   36.7010   21.6990 O.2   286  ASP286     -0.2867
     14  CB        97.9230   35.8410   21.4100 C.3   286  ASP286      0.1410
     15  CG        98.6680   36.8460   22.2570 C.2   286  ASP286      0.3668
     16  OD1       98.3080   37.0020   23.4410 O.co2 286  ASP286     -0.2456
     17  OD2       99.6160   37.4790   21.7390 O.co2 286  ASP286     -0.2456
     18  N         93.0780   41.7310   24.5420 N.3   293  LYS293     -0.1245
     19  CA        93.0220   42.4460   23.2750 C.3   293  LYS293      0.1561
     20  C         91.6140   42.9370   23.0240 C.2   293  LYS293      0.2260
     21  O         90.8300   42.2950   22.3260 O.2   293  LYS293     -0.2867
     22  CB        93.4980   41.5610   22.1230 C.3   293  LYS293      0.0271
     23  CG        94.9810   41.2350   22.1820 C.3   293  LYS293      0.0035
     24  CD        95.4020   40.3140   21.0550 C.3   293  LYS293      0.0206
     25  CE        96.8660   39.9620   21.1760 C.3   293  LYS293      0.1093
     26  NZ        97.7400   41.1230   20.8150 N.3   293  LYS293     -0.1314
     27  N         94.2540   35.7120   16.4640 N.3   303  MET303     -0.1245
     28  CA        95.3580   35.3200   17.3230 C.3   303  MET303      0.1570
     29  C         95.6720   33.8310   17.4270 C.2   303  MET303      0.2261
     30  O         96.4860   33.4290   18.2580 O.2   303  MET303     -0.2867
     31  CB        95.1170   35.9060   18.7050 C.3   303  MET303      0.0387
     32  CG        95.2760   37.4280   18.6970 C.3   303  MET303      0.0595
     33  SD        96.9010   37.9550   18.0990 S.3   303  MET303     -0.1393
     34  CE        96.5490   39.6200   17.5420 C.3   303  MET303      0.0692
     35  N         99.4620   33.0590   16.4270 N.3   306  ASP306     -0.1239
     36  CA       100.5500   33.4710   17.3150 C.3   306  ASP306      0.1674
     37  C        101.5170   32.3050   17.5330 C.2   306  ASP306      0.2266
     38  O        102.4060   32.3700   18.3790 O.2   306  ASP306     -0.2867
     39  CB        99.9920   33.9660   18.6640 C.3   306  ASP306      0.1410
     40  CG       100.8020   35.1220   19.2650 C.2   306  ASP306      0.3668
     41  OD1      101.4240   35.8950   18.5100 O.co2 306  ASP306     -0.2456
     42  OD2      100.8240   35.2590   20.5040 O.co2 306  ASP306     -0.2456
     43  N        103.0550   43.8480   30.9800 N.3   364  ASN364     -0.1240
     44  CA       101.9480   43.6190   30.0620 C.3   364  ASN364      0.1653
     45  C        101.8440   42.1350   29.6990 C.2   364  ASN364      0.2266
     46  O        102.7580   41.5710   29.0940 O.2   364  ASN364     -0.2867
     47  CB       102.1390   44.4900   28.8210 C.3   364  ASN364      0.1155
     48  CG       100.9130   44.5490   27.9450 C.2   364  ASN364      0.2627
     49  OD1      100.2380   43.5440   27.7230 O.2   364  ASN364     -0.2716
     50  ND2      100.5940   45.7470   27.4670 N.am  364  ASN364     -0.0877
     51  N        100.0960   40.7600   27.5450 N.3   366  ASP366     -0.1225
     52  CA       100.0070   40.5360   26.1150 C.3   366  ASP366      0.1805
     53  C        101.3950   40.4990   25.4930 C.2   366  ASP366      0.2598
     54  O        101.5400   40.1330   24.3510 O.2   366  ASP366     -0.2718
     55  CB        99.1610   41.6160   25.4360 C.3   366  ASP366      0.1424
     56  CG        98.6260   41.1730   24.0840 C.2   366  ASP366      0.3668
     57  OD1       98.8290   39.9890   23.7350 O.co2 366  ASP366     -0.2456
     58  OD2       98.0210   42.0050   23.3660 O.co2 366  ASP366     -0.2456
     59  N        102.4350   40.8020   26.2570 N.am  367  ALA367     -0.1966
     60  CA       103.7860   40.6660   25.7210 C.3   367  ALA367      0.1728
     61  C        104.3420   39.3050   26.1020 C.2   367  ALA367      0.2616
     62  O        105.4200   39.1930   26.6740 O.2   367  ALA367     -0.2715
     63  CB       104.6850   41.7880   26.2180 C.3   367  ALA367      0.0334
     64  N        103.5870   38.2710   25.7570 N.am  368  GLU368     -0.1963
     65  CA       103.8440   36.9210   26.2370 C.3   368  GLU368      0.1733
     66  C        104.9370   36.2010   25.4550 C.2   368  GLU368      0.2617
     67  O        105.5990   35.3150   25.9900 O.2   368  GLU368     -0.2715
     68  CB       102.5470   36.0930   26.1970 C.3   368  GLU368      0.0429
     69  CG       102.2240   35.5270   24.8170 C.3   368  GLU368      0.1163
     70  CD       101.7740   36.6130   23.8610 C.2   368  GLU368      0.3649
     71  OE1      101.2490   37.6180   24.3640 O.co2 368  GLU368     -0.2457
     72  OE2      101.9860   36.5050   22.6280 O.co2 368  GLU368     -0.2457
     73  N        105.1370   36.5950   24.2020 N.am  369  GLY369     -0.1940
     74  CA       106.0710   35.9130   23.3260 C.3   369  GLY369      0.2014
     75  C        107.5130   35.9690   23.7900 C.2   369  GLY369      0.2638
     76  O        108.2240   34.9700   23.7380 O.2   369  GLY369     -0.2714
     77  N        107.9510   37.1360   24.2440 N.am  370  ARG370     -0.1977
     78  CA       109.3330   37.2940   24.6790 C.3   370  ARG370      0.1597
     79  C        109.6230   36.4880   25.9390 C.2   370  ARG370      0.2287
     80  O        110.7660   36.1130   26.2020 O.2   370  ARG370     -0.2864
     81  CB       109.6580   38.7700   24.9020 C.3   370  ARG370      0.0334
     82  CG       108.9440   39.4050   26.0740 C.3   370  ARG370      0.0492
     83  CD       109.0860   40.9100   26.0040 C.3   370  ARG370      0.2205
     84  NE       108.3450   41.4570   24.8740 N.pl3 370  ARG370     -0.0865
     85  CZ       108.3460   42.7390   24.5280 C.cat 370  ARG370      0.5346
     86  NH1      109.0620   43.6160   25.2180 N.pl3 370  ARG370      0.1354
     87  NH2      107.6420   43.1430   23.4810 N.pl3 370  ARG370      0.1354
     88  N        105.9580   35.8830   15.7840 N.3   393  THR393     -0.1203
     89  CA       105.0080   36.9720   15.5930 C.3   393  THR393      0.1994
     90  C        104.9920   37.8130   16.8560 C.2   393  THR393      0.2618
     91  O        104.0510   37.7330   17.6390 O.2   393  THR393     -0.2717
     92  CB       103.5880   36.4610   15.3100 C.3   393  THR393      0.1784
     93  OG1      103.1330   35.6820   16.4250 O.3   393  THR393     -0.2211
     94  CG2      103.5650   35.6110   14.0510 C.3   393  THR393      0.0376
     95  N        106.0240   38.6250   17.0570 N.am  394  LEU394     -0.1965
     96  CA       106.2520   39.2130   18.3720 C.3   394  LEU394      0.1728
     97  C        105.5530   40.5590   18.5900 C.2   394  LEU394      0.2617
     98  O        104.8700   40.7430   19.5960 O.2   394  LEU394     -0.2715
     99  CB       107.7530   39.3750   18.6130 C.3   394  LEU394      0.0311
    100  CG       108.2050   39.2150   20.0660 C.3   394  LEU394      0.0022
    101  CD1      107.8490   37.8280   20.5750 C.3   394  LEU394      0.0001
    102  CD2      109.6930   39.4810   20.2280 C.3   394  LEU394      0.0001
    103  N        105.7310   41.4950   17.6600 N.am  395  THR395     -0.1937
    104  CA       105.2320   42.8610   17.8380 C.3   395  THR395      0.2028
    105  C        104.4120   43.3930   16.6590 C.2   395  THR395      0.2643
    106  O        104.8270   43.2970   15.5030 O.2   395  THR395     -0.2714
    107  CB       106.3870   43.8450   18.0870 C.3   395  THR395      0.1808
    108  OG1      107.3200   43.7610   17.0050 O.3   395  THR395     -0.2208
    109  CG2      107.1020   43.5190   19.3930 C.3   395  THR395      0.0379
    110  N        103.2450   43.9540   16.9590 N.am  396  GLY396     -0.1939
    111  CA       102.4030   44.5520   15.9400 C.3   396  GLY396      0.2014
    112  C        102.9690   45.8020   15.2910 C.2   396  GLY396      0.2638
    113  O        102.5320   46.1960   14.2120 O.2   396  GLY396     -0.2714
    114  N        103.9570   46.4180   15.9310 N.am  397  ALA397     -0.1977
    115  CA       104.5790   47.6310   15.3960 C.3   397  ALA397      0.1597
    116  C        105.1980   47.3850   14.0290 C.2   397  ALA397      0.2287
    117  O        105.4060   48.3160   13.2530 O.2   397  ALA397     -0.2864
    118  CB       105.6310   48.1580   16.3590 C.3   397  ALA397      0.0319
    119  N        108.9080   44.9040   29.5350 N.3   454  ILE454     -0.1245
    120  CA       108.6260   45.9480   28.5730 C.3   454  ILE454      0.1561
    121  C        109.1540   47.2770   29.0070 C.2   454  ILE454      0.2260
    122  O        109.3990   47.4940   30.1860 O.2   454  ILE454     -0.2867
    123  CB       107.0860   46.0490   28.2560 C.3   454  ILE454      0.0252
    124  CG1      106.2370   46.3060   29.5440 C.3   454  ILE454      0.0019
    125  CG2      106.5940   44.8340   27.4780 C.3   454  ILE454      0.0019
    126  CD1      104.9000   47.0330   29.3180 C.3   454  ILE454      0.0001
    127  N        108.9920   49.5120   19.9070 N.3   461  SER461     -0.1217
    128  CA       108.6150   48.2630   20.5630 C.3   461  SER461      0.1889
    129  C        109.3030   47.0460   19.9920 C.2   461  SER461      0.2288
    130  O        109.8470   46.2370   20.7500 O.2   461  SER461     -0.2866
    131  CB       107.1080   48.0430   20.4600 C.3   461  SER461      0.2089
    132  OG       106.4900   48.6380   21.5850 O.3   461  SER461     -0.2183
@<TRIPOS>BOND
     1   117   116    2
     2   116   115    1
     3    94    92    1
     4   113   112    2
     5   112   114   am
     6   112   111    1
     7    92    89    1
     8    92    93    1
     9   115   114    1
    10   115   118    1
    11   106   105    2
    12    89    88    1
    13    89    90    1
    14   111   110    1
    15    35    36    1
    16    27    28    1
    17   105   110   am
    18   105   104    1
    19    90    95   am
    20    90    91    2
    21   108   107    1
    22    95    96    1
    23    36    37    1
    24    36    39    1
    25    28    29    1
    26    28    31    1
    27    29    30    2
    28    37    38    2
    29    34    33    1
    30   103   104    1
    31   103    97   am
    32     4     3    2
    33   104   107    1
    34     1     2    1
    35   107   109    1
    36    33    32    1
    37    96    97    1
    38    96    99    1
    39    41    40   ar
    40    97    98    2
    41    99   100    1
    42    39    40    1
    43    32    31    1
    44     3     2    1
    45     5     2    1
    46     5     6    1
    47    40    42   ar
    48     7     6    1
    49     7     8    1
    50   127   128    1
    51   129   128    1
    52   129   130    2
    53   100   102    1
    54   100   101    1
    55     9     8    1
    56   131   128    1
    57   131   132    1
    58    26    25    1
    59    24    25    1
    60    24    23    1
    61    14    11    1
    62    14    15    1
    63    10    11    1
    64    13    12    2
    65    17    15   ar
    66    22    23    1
    67    22    19    1
    68    11    12    1
    69    15    16   ar
    70    21    20    2
    71    72    70   ar
    72    20    19    1
    73    19    18    1
    74    74    75    1
    75    74    73    1
    76    58    56   ar
    77    87    85    1
    78    57    56   ar
    79    76    75    2
    80    75    77   am
    81    70    71   ar
    82    70    69    1
    83    56    55    1
    84    73    66   am
    85    77    78    1
    86    54    53    2
    87    85    84    2
    88    85    86    1
    89    78    81    1
    90    78    79    1
    91    69    68    1
    92    84    83    1
    93    81    82    1
    94    55    52    1
    95    66    67    2
    96    66    65    1
    97    53    52    1
    98    53    59   am
    99    60    61    1
   100    60    63    1
   101    60    59    1
   102    64    61   am
   103    64    65    1
   104    79    80    2
   105    83    82    1
   106    61    62    2
   107    52    51    1
   108    68    65    1
   109    50    48   am
   110   125   123    1
   111    49    48    2
   112    48    47    1
   113   123   120    1
   114   123   124    1
   115   120   121    1
   116   120   119    1
   117    47    44    1
   118   121   122    2
   119    46    45    2
   120   126   124    1
   121    45    44    1
   122    44    43    1
