@<TRIPOS>MOLECULE
tmp/4x2uA00.pdb
 172 163 0 0 0
SMALL
GASTEIGER

@<TRIPOS>ATOM
      1  N         10.0920   17.0920   18.1020 N.3   124  GLU124     -0.1245
      2  CA         9.4640   15.7650   17.8290 C.3   124  GLU124      0.1567
      3  C          9.9370   14.7420   18.8390 C.2   124  GLU124      0.2260
      4  O         11.1420   14.7370   19.1810 O.2   124  GLU124     -0.2867
      5  CB         9.7990   15.2330   16.4350 C.3   124  GLU124      0.0388
      6  CG         8.7910   14.1550   16.0410 C.3   124  GLU124      0.1160
      7  CD         9.0570   13.5810   14.6630 C.2   124  GLU124      0.3649
      8  OE1        9.8310   14.1940   13.9020 O.co2 124  GLU124     -0.2457
      9  OE2        8.4960   12.5170   14.3320 O.co2 124  GLU124     -0.2457
     10  N         20.1260   13.6330   19.4810 N.3   263  ASN263     -0.1225
     11  CA        19.7950   12.2500   19.8550 C.3   263  ASN263      0.1785
     12  C         19.6780   11.3360   18.6670 C.2   263  ASN263      0.2597
     13  O         19.8800   10.1240   18.8150 O.2   263  ASN263     -0.2718
     14  CB        18.4540   12.2030   20.6020 C.3   263  ASN263      0.1169
     15  CG        18.5760   12.7700   22.0330 C.2   263  ASN263      0.2627
     16  OD1       19.6700   12.7590   22.5900 O.2   263  ASN263     -0.2716
     17  ND2       17.4880   13.2580   22.5940 N.am  263  ASN263     -0.0877
     18  N         19.3240   11.8920   17.5090 N.am  264  VAL264     -0.1966
     19  CA        19.2310   11.0290   16.3100 C.3   264  VAL264      0.1727
     20  C         20.0610   11.6190   15.1830 C.2   264  VAL264      0.2617
     21  O         21.0750   12.2690   15.4760 O.2   264  VAL264     -0.2715
     22  CB        17.7440   10.8180   15.9160 C.3   264  VAL264      0.0290
     23  CG1       17.0670   10.1170   17.0680 C.3   264  VAL264      0.0023
     24  CG2       17.0330   12.1140   15.6100 C.3   264  VAL264      0.0023
     25  N         19.6630   11.3850   13.9270 N.am  265  GLY265     -0.1940
     26  CA        20.3950   11.9120   12.7780 C.3   265  GLY265      0.2014
     27  C         19.9930   13.3170   12.3360 C.2   265  GLY265      0.2639
     28  O         20.8360   14.1330   12.0590 O.2   265  GLY265     -0.2714
     29  N         18.6960   13.6140   12.2900 N.am  266  ALA266     -0.1963
     30  CA        18.2580   14.9680   11.9110 C.3   266  ALA266      0.1728
     31  C         16.7830   15.0470   12.1530 C.2   266  ALA266      0.2616
     32  O         16.1730   14.0760   12.6010 O.2   266  ALA266     -0.2715
     33  CB        18.5870   15.2960   10.3980 C.3   266  ALA266      0.0334
     34  N         16.2180   16.2120   11.8590 N.am  267  MET267     -0.1963
     35  CA        14.8070   16.5210   12.1300 C.3   267  MET267      0.1736
     36  C         14.3120   17.5110   11.0970 C.2   267  MET267      0.2616
     37  O         14.9460   18.5480   10.7990 O.2   267  MET267     -0.2715
     38  CB        14.6700   17.1550   13.5330 C.3   267  MET267      0.0427
     39  CG        13.3210   17.7700   13.8850 C.3   267  MET267      0.0599
     40  SD        12.1380   16.3800   13.9350 S.3   267  MET267     -0.1393
     41  CE        10.6290   17.1840   13.2520 C.3   267  MET267      0.0692
     42  N         13.1040   17.2580   10.6150 N.am  268  GLU268     -0.1977
     43  CA        12.5590   18.0210    9.5020 C.3   268  GLU268      0.1602
     44  C         11.7430   19.2790    9.8330 C.2   268  GLU268      0.2287
     45  O         10.7640   19.5870    9.1550 O.2   268  GLU268     -0.2864
     46  CB        11.6660   17.1270    8.6510 C.3   268  GLU268      0.0415
     47  CG        10.3230   16.6900    9.3670 C.3   268  GLU268      0.1163
     48  CD        10.4020   15.4290   10.2160 C.2   268  GLU268      0.3649
     49  OE1       11.5000   14.9730   10.7060 O.co2 268  GLU268     -0.2457
     50  OE2        9.2880   14.8390   10.3500 O.co2 268  GLU268     -0.2457
     51  N         22.2220   16.2500   13.4050 N.3   276  ASN276     -0.1240
     52  CA        23.4620   15.7860   13.9870 C.3   276  ASN276      0.1653
     53  C         24.5770   16.1790   13.0270 C.2   276  ASN276      0.2266
     54  O         24.5100   15.8530   11.8580 O.2   276  ASN276     -0.2867
     55  CB        23.3340   14.2730   14.1830 C.3   276  ASN276      0.1155
     56  CG        24.4340   13.6760   15.0230 C.2   276  ASN276      0.2627
     57  OD1       25.5850   14.0600   14.8920 O.2   276  ASN276     -0.2716
     58  ND2       24.0830   12.7140   15.8860 N.am  276  ASN276     -0.0877
     59  N         25.7970    8.7960    3.9260 N.3   294  ARG294     -0.1245
     60  CA        24.9480    9.1150    5.0940 C.3   294  ARG294      0.1563
     61  C         24.3470   10.4820    4.9070 C.2   294  ARG294      0.2260
     62  O         23.1410   10.6710    5.1450 O.2   294  ARG294     -0.2867
     63  CB        25.7670    9.0350    6.3580 C.3   294  ARG294      0.0307
     64  CG        25.0600    9.5080    7.6100 C.3   294  ARG294      0.0489
     65  CD        23.9340    8.6060    7.9200 C.3   294  ARG294      0.2205
     66  NE        23.3860    9.0190    9.2170 N.pl3 294  ARG294     -0.0865
     67  CZ        22.2880    8.5030    9.7720 C.cat 294  ARG294      0.5346
     68  NH1       21.6180    7.5230    9.1500 N.pl3 294  ARG294      0.1354
     69  NH2       21.8800    8.9970   10.9630 N.pl3 294  ARG294      0.1354
     70  N         21.6600   10.4810    2.2930 N.3   297  THR297     -0.1203
     71  CA        20.4560    9.8960    2.8630 C.3   297  THR297      0.1994
     72  C         19.7090   10.8350    3.8090 C.2   297  THR297      0.2617
     73  O         18.4830   10.9530    3.7000 O.2   297  THR297     -0.2717
     74  CB        20.8250    8.6200    3.6510 C.3   297  THR297      0.1784
     75  OG1       21.0850    7.6130    2.6510 O.3   297  THR297     -0.2211
     76  CG2       19.7030    8.1630    4.6020 C.3   297  THR297      0.0376
     77  N         20.4290   11.4760    4.7280 N.am  298  VAL298     -0.1979
     78  CA        19.7580   12.2070    5.7950 C.3   298  VAL298      0.1595
     79  C         19.2810   13.5640    5.2530 C.2   298  VAL298      0.2287
     80  O         18.1300   13.9270    5.5190 O.2   298  VAL298     -0.2864
     81  CB        20.6610   12.3840    7.0040 C.3   298  VAL298      0.0276
     82  CG1       19.9130   13.1760    8.1090 C.3   298  VAL298      0.0022
     83  CG2       20.9890   10.9500    7.5480 C.3   298  VAL298      0.0022
     84  N         16.2340   12.5140    3.1140 N.3   301  HIS301     -0.1226
     85  CA        15.1190   12.1360    3.9850 C.3   301  HIS301      0.1752
     86  C         14.4330   13.4030    4.5450 C.2   301  HIS301      0.2595
     87  O         13.1940   13.5420    4.4120 O.2   301  HIS301     -0.2718
     88  CB        15.6310   11.3190    5.1480 C.3   301  HIS301      0.0759
     89  CG        14.5640   10.8580    6.0730 C.ar  301  HIS301      0.0818
     90  ND1       14.1200    9.5470    6.0460 N.ar  301  HIS301     -0.2268
     91  CD2       13.9190   11.4720    7.0980 C.ar  301  HIS301      0.1154
     92  CE1       13.2070    9.3900    6.9870 C.ar  301  HIS301      0.1986
     93  NE2       13.0740   10.5350    7.6460 N.ar  301  HIS301     -0.2212
     94  N         15.1970   14.3330    5.1390 N.am  302  GLU302     -0.1979
     95  CA        14.5190   15.4710    5.7770 C.3   302  GLU302      0.1602
     96  C         13.8740   16.3450    4.6950 C.2   302  GLU302      0.2287
     97  O         12.8230   16.9670    4.9260 O.2   302  GLU302     -0.2864
     98  CB        15.4740   16.3090    6.6190 C.3   302  GLU302      0.0415
     99  CG        16.2360   15.4970    7.6780 C.3   302  GLU302      0.1163
    100  CD        15.3510   14.7140    8.6200 C.2   302  GLU302      0.3649
    101  OE1       14.1470   14.9760    8.7370 O.co2 302  GLU302     -0.2457
    102  OE2       15.8760   13.7620    9.2380 O.co2 302  GLU302     -0.2457
    103  N         10.5270   14.9080    3.5840 N.3   305  HIS305     -0.1241
    104  CA         9.4400   15.1480    4.5430 C.3   305  HIS305      0.1621
    105  C          8.6630   16.4080    4.2580 C.2   305  HIS305      0.2264
    106  O          7.5600   16.5820    4.7930 O.2   305  HIS305     -0.2867
    107  CB         9.9770   15.2860    5.9870 C.3   305  HIS305      0.0745
    108  CG        10.0540   14.0130    6.7570 C.ar  305  HIS305      0.0817
    109  ND1        8.9830   13.1360    6.9430 N.ar  305  HIS305     -0.2268
    110  CD2       11.0820   13.5100    7.4620 C.ar  305  HIS305      0.1154
    111  CE1        9.3790   12.1350    7.7240 C.ar  305  HIS305      0.1986
    112  NE2       10.6370   12.3610    8.1040 N.ar  305  HIS305     -0.2212
    113  N          7.1040    8.2360    8.1670 N.3   324  GLU324     -0.1245
    114  CA         8.4770    7.7200    8.1770 C.3   324  GLU324      0.1567
    115  C          8.6970    6.6350    7.1240 C.2   324  GLU324      0.2260
    116  O          9.6990    6.6200    6.4390 O.2   324  GLU324     -0.2867
    117  CB         8.8410    7.1860    9.5520 C.3   324  GLU324      0.0388
    118  CG         8.9430    8.3590   10.5810 C.3   324  GLU324      0.1160
    119  CD         9.8760    9.5030   10.1470 C.2   324  GLU324      0.3649
    120  OE1       10.7610    9.3170    9.2990 O.co2 324  GLU324     -0.2457
    121  OE2        9.7510   10.5690   10.7110 O.co2 324  GLU324     -0.2457
    122  N         11.2630    7.2590    4.1580 N.3   328  VAL328     -0.1245
    123  CA        12.4060    6.3570    3.9330 C.3   328  VAL328      0.1561
    124  C         12.3330    5.7560    2.5120 C.2   328  VAL328      0.2260
    125  O         13.3410    5.7040    1.8200 O.2   328  VAL328     -0.2867
    126  CB        12.4500    5.2430    4.9970 C.3   328  VAL328      0.0252
    127  CG1       13.5140    4.1960    4.6420 C.3   328  VAL328      0.0019
    128  CG2       12.7460    5.8350    6.3540 C.3   328  VAL328      0.0019
    129  N         10.0000    4.9590   17.5910 N.3   380  TYR380     -0.1241
    130  CA        10.7600    5.2770   16.4150 C.3   380  TYR380      0.1605
    131  C         11.6890    4.1190   16.1470 C.2   380  TYR380      0.2264
    132  O         12.8860    4.1640   16.4130 O.2   380  TYR380     -0.2867
    133  CB        11.5250    6.5840   16.6250 C.3   380  TYR380      0.0534
    134  CG        10.5600    7.7620   16.5920 C.ar  380  TYR380     -0.0201
    135  CD1        9.7600    8.0960   17.6820 C.ar  380  TYR380     -0.0009
    136  CD2       10.4430    8.5610   15.4430 C.ar  380  TYR380     -0.0009
    137  CE1        8.8740    9.1790   17.6370 C.ar  380  TYR380      0.0417
    138  CE2        9.5370    9.6180   15.3810 C.ar  380  TYR380      0.0417
    139  CZ         8.7610    9.9260   16.4820 C.ar  380  TYR380      0.1957
    140  OH         7.8950   10.9740   16.4500 O.3   380  TYR380     -0.2866
    141  N         10.1390    2.3540   10.6010 N.3   385  TYR385     -0.1241
    142  CA        10.8870    2.9950    9.5110 C.3   385  TYR385      0.1605
    143  C         11.1670    2.0550    8.3320 C.2   385  TYR385      0.2264
    144  O         10.8510    2.4020    7.1820 O.2   385  TYR385     -0.2867
    145  CB        12.2190    3.5220   10.0550 C.3   385  TYR385      0.0534
    146  CG        12.1210    4.8450   10.7110 C.ar  385  TYR385     -0.0201
    147  CD1       11.4270    5.0410   11.8840 C.ar  385  TYR385     -0.0009
    148  CD2       12.7910    5.9190   10.1390 C.ar  385  TYR385     -0.0009
    149  CE1       11.3560    6.3360   12.4850 C.ar  385  TYR385      0.0417
    150  CE2       12.7130    7.1790   10.7050 C.ar  385  TYR385      0.0417
    151  CZ        11.9770    7.3580   11.8620 C.ar  385  TYR385      0.1957
    152  OH        11.9420    8.6040   12.4580 O.3   385  TYR385     -0.2866
    153  N         27.8440    6.6190   22.1220 N.3   802  ARG802     -0.1245
    154  CA        27.5440    5.5480   21.1470 C.3   802  ARG802      0.1563
    155  C         28.8080    5.0590   20.4520 C.2   802  ARG802      0.2260
    156  O         28.8970    3.8600   20.1790 O.2   802  ARG802     -0.2867
    157  CB        26.5400    6.0530   20.0810 C.3   802  ARG802      0.0307
    158  CG        25.1360    6.2870   20.6580 C.3   802  ARG802      0.0489
    159  CD        24.0780    6.6960   19.6200 C.3   802  ARG802      0.2205
    160  NE        24.3020    8.0430   19.0520 N.pl3 802  ARG802     -0.0865
    161  CZ        23.4320    9.0460   19.1150 C.cat 802  ARG802      0.5346
    162  NH1       23.7720   10.1970   18.5250 N.pl3 802  ARG802      0.1354
    163  NH2       22.2370    8.8960   19.7040 N.pl3 802  ARG802      0.1354
    164  N         18.6260    3.5370   23.3650 N.3   843  GLN843     -0.1245
    165  CA        19.4290    3.1050   22.2290 C.3   843  GLN843      0.1566
    166  C         20.5400    2.1470   22.6530 C.2   843  GLN843      0.2260
    167  O         20.8980    1.2040   21.8870 O.2   843  GLN843     -0.2867
    168  CB        20.0720    4.3240   21.4990 C.3   843  GLN843      0.0367
    169  CG        19.0360    5.2480   20.8470 C.3   843  GLN843      0.0905
    170  CD        19.6720    6.5440   20.4180 C.2   843  GLN843      0.2608
    171  OE1       20.8750    6.7690   20.6590 O.2   843  GLN843     -0.2717
    172  NE2       18.8410    7.4630   19.8690 N.am  843  GLN843     -0.0878
@<TRIPOS>BOND
     1   125   124    2
     2    70    71    1
     3   124   123    1
     4    75    74    1
     5    71    74    1
     6    71    72    1
     7    84    85    1
     8   103   104    1
     9    74    76    1
    10    73    72    2
    11    72    77   am
    12    59    60    1
    13   123   122    1
    14   123   126    1
    15    85    86    1
    16    85    88    1
    17   105   104    1
    18   105   106    2
    19    87    86    2
    20   104   107    1
    21    86    94   am
    22   127   126    1
    23    96    97    2
    24    96    95    1
    25    77    78    1
    26    61    60    1
    27    61    62    2
    28   126   128    1
    29    60    63    1
    30    94    95    1
    31    88    89    1
    32    79    80    2
    33    79    78    1
    34    95    98    1
    35    78    81    1
    36   107   108    1
    37    90    89   ar
    38    90    92   ar
    39    89    91   ar
    40    63    64    1
    41   116   115    2
    42    98    99    1
    43   108   109   ar
    44   108   110   ar
    45   109   111   ar
    46    92    93   ar
    47    81    83    1
    48    81    82    1
    49    91    93   ar
    50   115   114    1
    51   144   143    2
    52   110   112   ar
    53    64    65    1
    54    99   100    1
    55   111   112   ar
    56    65    66    1
    57   113   114    1
    58   114   117    1
    59   143   142    1
    60   100   101   ar
    61   100   102   ar
    62    46    47    1
    63    46    43    1
    64    68    67    1
    65    45    44    2
    66    66    67    2
    67   120   119   ar
    68    47    48    1
    69    43    44    1
    70    43    42    1
    71   142   145    1
    72   142   141    1
    73   117   118    1
    74    67    69    1
    75   145   146    1
    76   148   150   ar
    77   148   146   ar
    78   119   118    1
    79   119   121   ar
    80    48    50   ar
    81    48    49   ar
    82    33    30    1
    83    42    36   am
    84   150   151   ar
    85   146   147   ar
    86    37    36    2
    87    36    35    1
    88    54    53    2
    89    34    35    1
    90    34    31   am
    91   151   152    1
    92   151   149   ar
    93   147   149   ar
    94    30    31    1
    95    30    29    1
    96    28    27    2
    97    35    38    1
    98    31    32    2
    99    29    27   am
   100    27    26    1
   101    26    25    1
   102    53    52    1
   103    41    40    1
   104    51    52    1
   105    38    39    1
   106    39    40    1
   107     8     7   ar
   108    25    20   am
   109    52    55    1
   110    55    56    1
   111     9     7   ar
   112     7     6    1
   113    57    56    2
   114    56    58   am
   115    20    21    2
   116    20    19    1
   117   138   136   ar
   118   138   139   ar
   119   136   134   ar
   120    24    22    1
   121    22    19    1
   122    22    23    1
   123     6     5    1
   124   131   132    2
   125   131   130    1
   126    19    18    1
   127   130   133    1
   128   130   129    1
   129     5     2    1
   130   140   139    1
   131   139   137   ar
   132   134   133    1
   133   134   135   ar
   134    18    12   am
   135   137   135   ar
   136     2     1    1
   137     2     3    1
   138   162   161    1
   139    12    13    2
   140    12    11    1
   141     3     4    2
   142   160   161    2
   143   160   159    1
   144   161   163    1
   145    10    11    1
   146   159   158    1
   147    11    14    1
   148   172   170   am
   149   157   158    1
   150   157   154    1
   151   156   155    2
   152   170   171    2
   153   170   169    1
   154   155   154    1
   155    14    15    1
   156   169   168    1
   157   154   153    1
   158   168   165    1
   159   167   166    2
   160    15    16    2
   161    15    17   am
   162   165   166    1
   163   165   164    1
