@<TRIPOS>MOLECULE
tmp/4x2vD00.pdb
 87 83 0 0 0
SMALL
GASTEIGER

@<TRIPOS>ATOM
      1  N        -39.4480   15.8710  106.4180 N.3   101  SER101     -0.1202
      2  CA       -39.4760   17.3140  106.1520 C.3   101  SER101      0.2020
      3  C        -40.2710   18.0610  107.2290 C.2   101  SER101      0.2619
      4  O        -41.2210   17.5170  107.8280 O.2   101  SER101     -0.2717
      5  CB       -40.0170   17.6500  104.7170 C.3   101  SER101      0.2103
      6  OG       -40.8930   16.6590  104.1980 O.3   101  SER101     -0.2182
      7  N        -39.8200   19.2880  107.5130 N.am  102  GLN102     -0.1965
      8  CA       -40.5030   20.1870  108.4590 C.3   102  GLN102      0.1733
      9  C        -41.8320   20.5970  107.8220 C.2   102  GLN102      0.2616
     10  O        -41.8480   21.2660  106.7990 O.2   102  GLN102     -0.2715
     11  CB       -39.6140   21.3890  108.8790 C.3   102  GLN102      0.0408
     12  CG       -38.9360   21.1980  110.2510 C.3   102  GLN102      0.0908
     13  CD       -37.5970   21.9270  110.4360 C.2   102  GLN102      0.2608
     14  OE1      -36.7750   22.0120  109.5140 O.2   102  GLN102     -0.2717
     15  NE2      -37.3480   22.4050  111.6650 N.am  102  GLN102     -0.0878
     16  N        -42.9210   20.1910  108.4770 N.am  103  ALA103     -0.1963
     17  CA       -44.2740   20.1470  107.9270 C.3   103  ALA103      0.1728
     18  C        -45.2860   20.4880  109.0400 C.2   103  ALA103      0.2616
     19  O        -44.8980   21.0990  110.0270 O.2   103  ALA103     -0.2715
     20  CB       -44.5280   18.7710  107.3600 C.3   103  ALA103      0.0334
     21  N        -46.5690   20.1440  108.8980 N.am  104  ALA104     -0.1963
     22  CA       -47.5800   20.5540  109.8760 C.3   104  ALA104      0.1728
     23  C        -48.7950   19.6430  110.0090 C.2   104  ALA104      0.2616
     24  O        -49.0440   18.8460  109.1510 O.2   104  ALA104     -0.2715
     25  CB       -48.1210   21.8470  109.3650 C.3   104  ALA104      0.0334
     26  N        -49.5900   19.8920  111.0530 N.am  105  ILE105     -0.1963
     27  CA       -51.0490   19.5700  111.1160 C.3   105  ILE105      0.1727
     28  C        -51.4180   18.2550  111.8150 C.2   105  ILE105      0.2616
     29  O        -51.1210   17.1670  111.3290 O.2   105  ILE105     -0.2715
     30  CB       -51.7650   19.7070  109.7440 C.3   105  ILE105      0.0290
     31  CG1      -53.1960   20.2440  109.9210 C.3   105  ILE105      0.0022
     32  CG2      -51.7970   18.3700  109.0450 C.3   105  ILE105      0.0023
     33  CD1      -53.4950   21.4870  109.1040 C.3   105  ILE105      0.0001
     34  N        -52.0670   18.3810  112.9650 N.am  106  LYS106     -0.1963
     35  CA       -52.6190   17.2480  113.6720 C.3   106  LYS106      0.1728
     36  C        -53.9970   17.6570  114.1160 C.2   106  LYS106      0.2616
     37  O        -54.1680   18.7440  114.6740 O.2   106  LYS106     -0.2715
     38  CB       -51.7480   16.9370  114.8750 C.3   106  LYS106      0.0311
     39  CG       -52.0580   15.6610  115.6680 C.3   106  LYS106      0.0038
     40  CD       -51.2700   15.6000  116.9790 C.3   106  LYS106      0.0206
     41  CE       -51.9190   14.7810  118.1060 C.3   106  LYS106      0.1093
     42  NZ       -51.9530   13.3170  117.8300 N.3   106  LYS106     -0.1314
     43  N        -54.9650   16.7790  113.8830 N.am  107  ILE107     -0.1977
     44  CA       -56.3700   17.0720  114.1410 C.3   107  ILE107      0.1596
     45  C        -56.6610   16.7880  115.6240 C.2   107  ILE107      0.2287
     46  O        -57.2630   15.7690  115.9520 O.2   107  ILE107     -0.2864
     47  CB       -57.3200   16.2650  113.2110 C.3   107  ILE107      0.0276
     48  CG1      -57.0760   16.6040  111.7320 C.3   107  ILE107      0.0022
     49  CG2      -58.7700   16.5390  113.5850 C.3   107  ILE107      0.0022
     50  CD1      -57.9790   15.8780  110.7550 C.3   107  ILE107      0.0001
     51  N        -47.3060   22.5560  114.3790 N.3   113  HIS113     -0.1241
     52  CA       -46.1610   22.4240  113.4700 C.3   113  HIS113      0.1621
     53  C        -44.8380   21.8750  114.0550 C.2   113  HIS113      0.2264
     54  O        -44.4560   22.0770  115.2340 O.2   113  HIS113     -0.2867
     55  CB       -45.9290   23.7570  112.7520 C.3   113  HIS113      0.0745
     56  CG       -47.1670   24.3170  112.1060 C.ar  113  HIS113      0.0817
     57  ND1      -47.5550   23.9600  110.8360 N.ar  113  HIS113     -0.2268
     58  CD2      -48.0890   25.2190  112.5390 C.ar  113  HIS113      0.1154
     59  CE1      -48.6590   24.6080  110.5070 C.ar  113  HIS113      0.1986
     60  NE2      -49.0090   25.3770  111.5250 N.ar  113  HIS113     -0.2212
     61  N        -41.7900   15.5000  110.5880 N.3   116  THR116     -0.1218
     62  CA       -42.1510   14.0870  110.5170 C.3   116  THR116      0.1862
     63  C        -40.8920   13.2360  110.4570 C.2   116  THR116      0.2287
     64  O        -39.8250   13.7290  110.0810 O.2   116  THR116     -0.2866
     65  CB       -42.9480   13.7970  109.2370 C.3   116  THR116      0.1770
     66  OG1      -42.1480   14.1290  108.0930 O.3   116  THR116     -0.2211
     67  CG2      -44.2130   14.6240  109.2170 C.3   116  THR116      0.0375
     68  N        -48.3530   10.0070  116.2690 N.3   158  ALA158     -0.1231
     69  CA       -48.0150    9.0140  115.2440 C.3   158  ALA158      0.1694
     70  C        -49.2530    8.7400  114.3740 C.2   158  ALA158      0.2592
     71  O        -50.3700    9.0570  114.7820 O.2   158  ALA158     -0.2718
     72  CB       -47.5320    7.7340  115.9140 C.3   158  ALA158      0.0304
     73  N        -49.0560    8.1770  113.1760 N.am  159  THR159     -0.1953
     74  CA       -50.1900    7.8190  112.2890 C.3   159  THR159      0.1897
     75  C        -50.8490    6.5170  112.7310 C.2   159  THR159      0.2313
     76  O        -50.2820    5.7890  113.5430 O.2   159  THR159     -0.2863
     77  CB       -49.7410    7.6500  110.8370 C.3   159  THR159      0.1794
     78  OG1      -48.6440    6.7220  110.7900 O.3   159  THR159     -0.2208
     79  CG2      -49.3150    8.9750  110.2690 C.3   159  THR159      0.0378
     80  N        -44.3520   12.2920  114.5780 N.3   166  ILE166     -0.1245
     81  CA       -44.3310   13.7460  114.4840 C.3   166  ILE166      0.1561
     82  C        -43.7160   14.3410  115.7490 C.2   166  ILE166      0.2260
     83  O        -44.1660   14.0550  116.8530 O.2   166  ILE166     -0.2867
     84  CB       -45.7550   14.2980  114.3340 C.3   166  ILE166      0.0252
     85  CG1      -46.5190   13.4630  113.2950 C.3   166  ILE166      0.0019
     86  CG2      -45.6960   15.7770  113.9870 C.3   166  ILE166      0.0019
     87  CD1      -47.8460   14.0270  112.8300 C.3   166  ILE166      0.0001
@<TRIPOS>BOND
     1     6     5    1
     2     5     2    1
     3     2     1    1
     4     2     3    1
     5    10     9    2
     6     3     7   am
     7     3     4    2
     8    20    17    1
     9     7     8    1
    10     9     8    1
    11     9    16   am
    12    17    16    1
    13    17    18    1
    14    66    65    1
    15     8    11    1
    16    11    12    1
    17    21    18   am
    18    21    22    1
    19    18    19    2
    20    32    30    1
    21    33    31    1
    22    24    23    2
    23    67    65    1
    24    65    62    1
    25    25    22    1
    26    14    13    2
    27    30    31    1
    28    30    27    1
    29    22    23    1
    30    23    26   am
    31    64    63    2
    32    12    13    1
    33    79    77    1
    34    13    15   am
    35    63    62    1
    36    59    57   ar
    37    59    60   ar
    38    62    61    1
    39    50    48    1
    40    78    77    1
    41    57    56   ar
    42    77    74    1
    43    26    27    1
    44    27    28    1
    45    29    28    2
    46    60    58   ar
    47    48    47    1
    48    28    34   am
    49    56    58   ar
    50    56    55    1
    51    74    75    1
    52    74    73    1
    53    75    76    2
    54    55    52    1
    55    87    85    1
    56    34    35    1
    57    73    70   am
    58    47    49    1
    59    47    44    1
    60    85    84    1
    61    52    53    1
    62    52    51    1
    63    35    36    1
    64    35    38    1
    65    43    36   am
    66    43    44    1
    67    86    84    1
    68    53    54    2
    69    36    37    2
    70    44    45    1
    71    84    81    1
    72    70    71    2
    73    70    69    1
    74    81    80    1
    75    81    82    1
    76    38    39    1
    77    69    72    1
    78    69    68    1
    79    45    46    2
    80    39    40    1
    81    82    83    2
    82    40    41    1
    83    42    41    1
