@<TRIPOS>MOLECULE
tmp/4x2vA00.pdb
 110 104 0 0 0
SMALL
GASTEIGER

@<TRIPOS>ATOM
      1  N        -43.6500   17.5330   78.7750 N.3    14  THR14      -0.1218
      2  CA       -42.3040   17.8470   79.3070 C.3    14  THR14       0.1862
      3  C        -41.8260   16.8340   80.3480 C.2    14  THR14       0.2287
      4  O        -40.8860   17.0820   81.0830 O.2    14  THR14      -0.2866
      5  CB       -42.2740   19.2520   79.9270 C.3    14  THR14       0.1770
      6  OG1      -43.3380   19.3620   80.8780 O.3    14  THR14      -0.2211
      7  CG2      -42.4610   20.3050   78.8660 C.3    14  THR14       0.0375
      8  N        -49.2160   18.4560   85.3090 N.3    30  HIS30      -0.1226
      9  CA       -48.3690   19.6290   85.0470 C.3    30  HIS30       0.1752
     10  C        -47.3010   19.4650   83.9620 C.2    30  HIS30       0.2595
     11  O        -46.7150   20.4680   83.5370 O.2    30  HIS30      -0.2718
     12  CB       -47.7100   20.1520   86.3290 C.3    30  HIS30       0.0759
     13  CG       -46.5160   19.3770   86.7790 C.ar   30  HIS30       0.0818
     14  ND1      -46.6030   18.3220   87.6600 N.ar   30  HIS30      -0.2268
     15  CD2      -45.1970   19.5480   86.5230 C.ar   30  HIS30       0.1154
     16  CE1      -45.3910   17.8420   87.8980 C.ar   30  HIS30       0.1986
     17  NE2      -44.5160   18.5790   87.2340 N.ar   30  HIS30      -0.2212
     18  N        -47.0960   18.2440   83.4770 N.am   31  VAL31      -0.1980
     19  CA       -46.2160   18.0230   82.3020 C.3    31  VAL31       0.1595
     20  C        -46.9690   17.8640   80.9360 C.2    31  VAL31       0.2287
     21  O        -46.3410   17.9380   79.8630 O.2    31  VAL31      -0.2864
     22  CB       -45.2970   16.8080   82.4950 C.3    31  VAL31       0.0276
     23  CG1      -44.5580   16.8950   83.8200 C.3    31  VAL31       0.0022
     24  CG2      -46.0800   15.5060   82.3920 C.3    31  VAL31       0.0022
     25  N        -52.9600   16.7270   90.6480 N.3    54  ASP54      -0.1239
     26  CA       -51.9470   16.6400   89.6020 C.3    54  ASP54       0.1674
     27  C        -51.8650   15.2280   89.0290 C.2    54  ASP54       0.2266
     28  O        -50.8900   14.8810   88.3640 O.2    54  ASP54      -0.2867
     29  CB       -50.5920   17.0550   90.1880 C.3    54  ASP54       0.1410
     30  CG       -49.5820   17.4780   89.1290 C.2    54  ASP54       0.3668
     31  OD1      -49.9700   18.1420   88.1470 O.co2  54  ASP54      -0.2456
     32  OD2      -48.3900   17.1200   89.2700 O.co2  54  ASP54      -0.2456
     33  N        -50.2120   18.6090   99.8360 N.3   107  ILE107     -0.1231
     34  CA       -49.9130   20.0510   99.7350 C.3   107  ILE107      0.1692
     35  C        -48.9630   20.4690   98.6030 C.2   107  ILE107      0.2591
     36  O        -47.8250   20.0100   98.5320 O.2   107  ILE107     -0.2718
     37  CB       -49.2870   20.6550  101.0350 C.3   107  ILE107      0.0266
     38  CG1      -50.1920   20.4890  102.3130 C.3   107  ILE107      0.0019
     39  CG2      -48.9260   22.1190  100.7780 C.3   107  ILE107      0.0020
     40  CD1      -50.7780   21.7390  102.9850 C.3   107  ILE107      0.0001
     41  N        -49.4280   21.3880   97.7620 N.am  108  LYS108     -0.1980
     42  CA       -48.5310   22.3350   97.0730 C.3   108  LYS108      0.1596
     43  C        -48.3730   23.6110   97.9470 C.2   108  LYS108      0.2287
     44  O        -47.3040   23.8520   98.5460 O.2   108  LYS108     -0.2864
     45  CB       -49.0620   22.6650   95.6560 C.3   108  LYS108      0.0298
     46  CG       -48.4780   23.8890   94.9500 C.3   108  LYS108      0.0038
     47  CD       -49.0630   23.9840   93.5370 C.3   108  LYS108      0.0206
     48  CE       -49.5750   25.3690   93.1850 C.3   108  LYS108      0.1093
     49  NZ       -48.5020   26.3850   93.0250 N.3   108  LYS108     -0.1314
     50  N        -53.3760   20.1430   96.4710 N.3   114  VAL114     -0.1245
     51  CA       -53.4450   18.9220   95.6650 C.3   114  VAL114      0.1561
     52  C        -53.0410   17.7310   96.4960 C.2   114  VAL114      0.2260
     53  O        -52.2640   17.8370   97.4290 O.2   114  VAL114     -0.2867
     54  CB       -52.5860   18.9300   94.3680 C.3   114  VAL114      0.0252
     55  CG1      -53.1370   19.9290   93.3550 C.3   114  VAL114      0.0019
     56  CG2      -51.1120   19.1730   94.6470 C.3   114  VAL114      0.0019
     57  N        -36.7200   17.2030   88.5580 N.3   136  PRO136     -0.2102
     58  CA       -37.9960   17.5320   87.9440 C.3   136  PRO136      0.1504
     59  C        -37.8890   17.2460   86.4340 C.2   136  PRO136      0.2576
     60  O        -36.8740   17.6010   85.7690 O.2   136  PRO136     -0.2718
     61  CB       -38.1260   19.0190   88.2070 C.3   136  PRO136      0.0282
     62  CG       -36.7160   19.5170   88.3390 C.3   136  PRO136      0.0208
     63  CD       -35.8290   18.3700   88.6860 C.3   136  PRO136      0.0893
     64  N        -38.8780   16.6240   85.8600 N.am  137  GLY137     -0.1957
     65  CA       -38.6890   16.1850   84.4630 C.3   137  GLY137      0.1869
     66  C        -38.6810   14.6890   84.4080 C.2   137  GLY137      0.2309
     67  O        -38.7790   14.1160   83.3400 O.2   137  GLY137     -0.2863
     68  N        -44.4960   13.5520   90.9500 N.3   158  VAL158     -0.1231
     69  CA       -44.7250   14.9950   90.8250 C.3   158  VAL158      0.1692
     70  C        -43.5320   15.8160   91.1960 C.2   158  VAL158      0.2592
     71  O        -43.2270   16.7910   90.5310 O.2   158  VAL158     -0.2718
     72  CB       -45.7900   15.4370   91.8540 C.3   158  VAL158      0.0266
     73  CG1      -45.9680   16.9410   91.9120 C.3   158  VAL158      0.0020
     74  CG2      -47.1030   14.7320   91.6130 C.3   158  VAL158      0.0020
     75  N        -42.9210   15.4930   92.3240 N.am  159  ALA159     -0.1966
     76  CA       -41.8400   16.3170   92.8480 C.3   159  ALA159      0.1728
     77  C        -41.0310   15.6430   93.9450 C.2   159  ALA159      0.2616
     78  O        -41.4330   14.6150   94.5120 O.2   159  ALA159     -0.2715
     79  CB       -42.3760   17.6430   93.3400 C.3   159  ALA159      0.0334
     80  N        -39.9070   16.2890   94.2650 N.am  160  ALA160     -0.1963
     81  CA       -39.0190   15.8870   95.3500 C.3   160  ALA160      0.1728
     82  C        -38.6100   17.1320   96.1830 C.2   160  ALA160      0.2617
     83  O        -38.7550   18.2670   95.7250 O.2   160  ALA160     -0.2715
     84  CB       -37.8000   15.2190   94.7680 C.3   160  ALA160      0.0334
     85  N        -38.1280   16.9250   97.4120 N.am  161  THR161     -0.1937
     86  CA       -37.6550   18.0370   98.2540 C.3   161  THR161      0.2028
     87  C        -36.2720   18.4840   97.8330 C.2   161  THR161      0.2642
     88  O        -35.5960   17.7830   97.0860 O.2   161  THR161     -0.2714
     89  CB       -37.5930   17.6330   99.7340 C.3   161  THR161      0.1808
     90  OG1      -36.8400   16.4270   99.8680 O.3   161  THR161     -0.2208
     91  CG2      -38.9880   17.4140  100.2880 C.3   161  THR161      0.0379
     92  N        -35.8330   19.6230   98.3550 N.am  162  ARG162     -0.1977
     93  CA       -34.5790   20.2450   97.9330 C.3   162  ARG162      0.1597
     94  C        -33.3950   19.2970   98.0900 C.2   162  ARG162      0.2287
     95  O        -32.5920   19.0970   97.1730 O.2   162  ARG162     -0.2864
     96  CB       -34.3380   21.5320   98.7110 C.3   162  ARG162      0.0334
     97  CG       -32.9250   22.0580   98.6350 C.3   162  ARG162      0.0492
     98  CD       -32.5750   22.4160   97.1930 C.3   162  ARG162      0.2205
     99  NE       -31.2500   23.0710   97.0690 N.pl3 162  ARG162     -0.0865
    100  CZ       -30.2510   22.6340   96.2830 C.cat 162  ARG162      0.5346
    101  NH1      -30.3640   21.5210   95.5340 N.pl3 162  ARG162      0.1354
    102  NH2      -29.1100   23.3090   96.2580 N.pl3 162  ARG162      0.1354
    103  N        -42.7970   12.6840   96.0770 N.3   168  ILE168     -0.1245
    104  CA       -44.2390   12.8780   96.1290 C.3   168  ILE168      0.1561
    105  C        -44.8720   12.2950   94.8510 C.2   168  ILE168      0.2260
    106  O        -44.4940   12.6800   93.7540 O.2   168  ILE168     -0.2867
    107  CB       -44.5870   14.3660   96.2120 C.3   168  ILE168      0.0252
    108  CG1      -43.6910   15.0480   97.2670 C.3   168  ILE168      0.0019
    109  CG2      -46.0750   14.5440   96.5020 C.3   168  ILE168      0.0019
    110  CD1      -44.0850   16.4380   97.6640 C.3   168  ILE168      0.0001
@<TRIPOS>BOND
     1     1     2    1
     2     7     5    1
     3     2     5    1
     4     2     3    1
     5    21    20    2
     6     5     6    1
     7     3     4    2
     8    20    19    1
     9    19    22    1
    10    19    18    1
    11    24    22    1
    12    22    23    1
    13    67    66    2
    14    18    10   am
    15    11    10    2
    16    10     9    1
    17    66    65    1
    18    65    64    1
    19     9     8    1
    20     9    12    1
    21    60    59    2
    22    64    59   am
    23    12    13    1
    24    59    58    1
    25    15    13   ar
    26    15    17   ar
    27    13    14   ar
    28    17    16   ar
    29    14    16   ar
    30    58    61    1
    31    58    57    1
    32    31    30   ar
    33    61    62    1
    34    62    63    1
    35    28    27    2
    36    57    63    1
    37    27    26    1
    38    30    32   ar
    39    30    29    1
    40    26    29    1
    41    26    25    1
    42    71    70    2
    43    69    68    1
    44    69    70    1
    45    69    72    1
    46    70    75   am
    47    74    72    1
    48    72    73    1
    49    75    76    1
    50    76    79    1
    51    76    77    1
    52    49    48    1
    53    48    47    1
    54    55    54    1
    55    47    46    1
    56   106   105    2
    57    77    80   am
    58    77    78    2
    59    80    81    1
    60    54    56    1
    61    54    51    1
    62    84    81    1
    63   105   104    1
    64    46    45    1
    65    81    82    1
    66   101   100    1
    67    45    42    1
    68    51    50    1
    69    51    52    1
    70    83    82    2
    71   103   104    1
    72   104   107    1
    73    82    85   am
    74   107   109    1
    75   107   108    1
    76   102   100    1
    77   100    99    2
    78    52    53    2
    79    99    98    1
    80    42    41    1
    81    42    43    1
    82    88    87    2
    83    95    94    2
    84    98    97    1
    85   108   110    1
    86    85    86    1
    87    41    35   am
    88    87    86    1
    89    87    92   am
    90    93    94    1
    91    93    92    1
    92    93    96    1
    93    43    44    2
    94    86    89    1
    95    36    35    2
    96    35    34    1
    97    97    96    1
    98    89    90    1
    99    89    91    1
   100    34    33    1
   101    34    37    1
   102    39    37    1
   103    37    38    1
   104    38    40    1
