@<TRIPOS>MOLECULE
tmp/4x30A00.pdb
 142 132 0 0 0
SMALL
GASTEIGER

@<TRIPOS>ATOM
      1  N        -11.1550   10.0130  -31.3280 N.3     7  SER7       -0.1202
      2  CA       -10.3980   10.2010  -30.0760 C.3     7  SER7        0.2020
      3  C         -8.9260    9.8110  -30.2180 C.2     7  SER7        0.2619
      4  O         -8.0450   10.5850  -29.8390 O.2     7  SER7       -0.2717
      5  CB       -11.0780    9.4820  -28.8910 C.3     7  SER7        0.2103
      6  OG       -11.1380    8.0860  -29.0760 O.3     7  SER7       -0.2182
      7  N         -8.6700    8.6220  -30.7610 N.am    8  SER8       -0.1951
      8  CA        -7.3040    8.1300  -30.9450 C.3     8  SER8        0.1924
      9  C         -6.5400    8.9800  -31.9600 C.2     8  SER8        0.2314
     10  O         -5.3800    9.3450  -31.7300 O.2     8  SER8       -0.2863
     11  CB        -7.3090    6.6520  -31.3590 C.3     8  SER8        0.2116
     12  OG        -7.7670    5.8310  -30.2880 O.3     8  SER8       -0.2180
     13  N         -5.7290   12.3700  -30.4310 N.3    11  ALA11      -0.1245
     14  CA        -4.6770   12.2170  -29.4180 C.3    11  ALA11       0.1562
     15  C         -3.3220   12.0760  -30.0830 C.2    11  ALA11       0.2260
     16  O         -2.3520   12.7070  -29.6740 O.2    11  ALA11      -0.2867
     17  CB        -4.9540   11.0200  -28.5140 C.3    11  ALA11       0.0290
     18  N         -3.3650   10.3740  -11.6560 N.3   222  GLN222     -0.1245
     19  CA        -4.6410   10.8720  -12.1510 C.3   222  GLN222      0.1566
     20  C         -5.3340   11.6560  -11.0310 C.2   222  GLN222      0.2260
     21  O         -5.4600   11.1430   -9.9170 O.2   222  GLN222     -0.2867
     22  CB        -5.5070    9.6950  -12.5650 C.3   222  GLN222      0.0367
     23  CG        -6.9340   10.0640  -13.0000 C.3   222  GLN222      0.0905
     24  CD        -7.7690    8.8350  -13.2570 C.2   222  GLN222      0.2608
     25  OE1       -7.2420    7.7940  -13.6450 O.2   222  GLN222     -0.2717
     26  NE2       -9.0720    8.9370  -13.0210 N.am  222  GLN222     -0.0878
     27  N        -10.4120   15.2800  -16.1750 N.3   230  LEU230     -0.1245
     28  CA        -9.3810   14.7970  -15.2650 C.3   230  LEU230      0.1561
     29  C         -8.0130   15.2640  -15.7060 C.2   230  LEU230      0.2260
     30  O         -7.8060   15.6050  -16.8680 O.2   230  LEU230     -0.2867
     31  CB        -9.3830   13.2680  -15.1520 C.3   230  LEU230      0.0270
     32  CG        -9.1580   12.5490  -16.4820 C.3   230  LEU230      0.0019
     33  CD1       -8.2300   11.3560  -16.3400 C.3   230  LEU230      0.0001
     34  CD2      -10.4800   12.1950  -17.1410 C.3   230  LEU230      0.0001
     35  N         -3.9120   14.2780  -15.8250 N.3   232  LEU232     -0.1245
     36  CA        -2.8100   13.3360  -15.6600 C.3   232  LEU232      0.1561
     37  C         -1.5110   14.0980  -15.5070 C.2   232  LEU232      0.2260
     38  O         -1.1510   14.8960  -16.3790 O.2   232  LEU232     -0.2867
     39  CB        -2.6780   12.4370  -16.8730 C.3   232  LEU232      0.0270
     40  CG        -3.7960   11.4710  -17.1850 C.3   232  LEU232      0.0019
     41  CD1       -3.4120   10.6470  -18.4140 C.3   232  LEU232      0.0001
     42  CD2       -4.0990   10.5790  -15.9970 C.3   232  LEU232      0.0001
     43  N         -1.5060    7.7120  -28.5620 N.3   250  SER250     -0.1217
     44  CA        -2.8010    7.1560  -28.1840 C.3   250  SER250      0.1889
     45  C         -2.6300    5.7450  -27.6240 C.2   250  SER250      0.2288
     46  O         -3.3650    5.3550  -26.7180 O.2   250  SER250     -0.2866
     47  CB        -3.7930    7.1680  -29.3620 C.3   250  SER250      0.2089
     48  OG        -3.4250    6.2670  -30.3910 O.3   250  SER250     -0.2183
     49  N         -1.7560    6.0440  -23.9400 N.3   253  LEU253     -0.1231
     50  CA        -2.9350    6.3430  -23.1380 C.3   253  LEU253      0.1693
     51  C         -3.7830    5.1120  -22.9300 C.2   253  LEU253      0.2591
     52  O         -4.2330    4.8810  -21.8290 O.2   253  LEU253     -0.2718
     53  CB        -3.7610    7.4590  -23.7580 C.3   253  LEU253      0.0284
     54  CG        -3.1170    8.8410  -23.8280 C.3   253  LEU253      0.0019
     55  CD1       -4.0920    9.8490  -24.4300 C.3   253  LEU253      0.0001
     56  CD2       -2.6150    9.3040  -22.4630 C.3   253  LEU253      0.0001
     57  N         -3.9550    4.2890  -23.9580 N.am  254  LYS254     -0.1980
     58  CA        -4.6840    3.0450  -23.7790 C.3   254  LYS254      0.1596
     59  C         -4.0160    2.1290  -22.7530 C.2   254  LYS254      0.2287
     60  O         -4.7000    1.4920  -21.9170 O.2   254  LYS254     -0.2864
     61  CB        -4.8780    2.3390  -25.1090 C.3   254  LYS254      0.0298
     62  CG        -5.9800    3.0100  -25.9180 C.3   254  LYS254      0.0038
     63  CD        -5.8040    2.8300  -27.4110 C.3   254  LYS254      0.0206
     64  CE        -6.6500    3.8430  -28.1790 C.3   254  LYS254      0.1093
     65  NZ        -6.3630    5.2600  -27.7770 N.3   254  LYS254     -0.1314
     66  N         -2.0310    3.0160  -20.2280 N.3   256  TRP256     -0.1227
     67  CA        -2.2350    3.5780  -18.9070 C.3   256  TRP256      0.1737
     68  C         -3.6790    3.4030  -18.4290 C.2   256  TRP256      0.2595
     69  O         -3.9050    3.1560  -17.2490 O.2   256  TRP256     -0.2718
     70  CB        -1.8500    5.0470  -18.8830 C.3   256  TRP256      0.0564
     71  CG        -0.3820    5.2910  -19.0750 C.ar  256  TRP256      0.0003
     72  CD1        0.6330    4.3670  -19.0370 C.ar  256  TRP256      0.0946
     73  CD2        0.2420    6.5610  -19.2780 C.ar  256  TRP256      0.0152
     74  NE1        1.8310    4.9920  -19.2220 N.ar  256  TRP256     -0.2442
     75  CE2        1.6230    6.3340  -19.3750 C.ar  256  TRP256      0.0810
     76  CE3       -0.2360    7.8680  -19.3800 C.ar  256  TRP256      0.0012
     77  CZ2        2.5370    7.3760  -19.5760 C.ar  256  TRP256      0.0191
     78  CZ3        0.6750    8.9020  -19.5730 C.ar  256  TRP256      0.0001
     79  CH2        2.0420    8.6420  -19.6640 C.ar  256  TRP256      0.0015
     80  N         -4.6520    3.5140  -19.3250 N.am  257  ASN257     -0.1974
     81  CA        -6.0500    3.3450  -18.9430 C.3   257  ASN257      0.1688
     82  C         -6.2770    1.9940  -18.2910 C.2   257  ASN257      0.2292
     83  O         -7.0200    1.8950  -17.3060 O.2   257  ASN257     -0.2864
     84  CB        -6.9730    3.5160  -20.1460 C.3   257  ASN257      0.1181
     85  CG        -8.4160    3.6540  -19.7520 C.2   257  ASN257      0.2629
     86  OD1       -8.8710    4.7370  -19.4080 O.2   257  ASN257     -0.2716
     87  ND2       -9.1610    2.5710  -19.8580 N.am  257  ASN257     -0.0877
     88  N         -3.5150    1.8510  -14.7090 N.3   260  LEU260     -0.1245
     89  CA        -3.7380    2.7130  -13.5410 C.3   260  LEU260      0.1561
     90  C         -4.4730    1.9500  -12.4450 C.2   260  LEU260      0.2260
     91  O         -5.4670    1.2890  -12.7130 O.2   260  LEU260     -0.2867
     92  CB        -4.5320    3.9460  -13.9590 C.3   260  LEU260      0.0270
     93  CG        -3.7210    5.0190  -14.6950 C.3   260  LEU260      0.0019
     94  CD1       -4.6570    5.9290  -15.4320 C.3   260  LEU260      0.0001
     95  CD2       -2.8710    5.8460  -13.7390 C.3   260  LEU260      0.0001
     96  N         -7.8310   15.7860  -19.7140 N.3   354  LEU354     -0.1231
     97  CA        -8.6430   14.9550  -20.5810 C.3   354  LEU354      0.1693
     98  C        -10.1270   15.0980  -20.2500 C.2   354  LEU354      0.2592
     99  O        -10.4960   15.3480  -19.1030 O.2   354  LEU354     -0.2718
    100  CB        -8.2570   13.4850  -20.4170 C.3   354  LEU354      0.0284
    101  CG        -6.7670   13.1360  -20.5470 C.3   354  LEU354      0.0019
    102  CD1       -6.4060   11.7070  -20.1940 C.3   354  LEU354      0.0001
    103  CD2       -6.3060   13.4440  -21.9480 C.3   354  LEU354      0.0001
    104  N        -10.9680   14.9090  -21.2510 N.am  355  GLU355     -0.1966
    105  CA       -12.4140   14.9940  -21.0790 C.3   355  GLU355      0.1733
    106  C        -12.9220   13.5910  -21.3610 C.2   355  GLU355      0.2616
    107  O        -12.6130   13.0180  -22.3830 O.2   355  GLU355     -0.2715
    108  CB       -13.0170   16.0360  -22.0110 C.3   355  GLU355      0.0429
    109  CG       -14.4680   16.4080  -21.7220 C.3   355  GLU355      0.1163
    110  CD       -15.4270   15.3310  -22.1640 C.2   355  GLU355      0.3649
    111  OE1      -15.1670   14.7420  -23.2320 O.co2 355  GLU355     -0.2457
    112  OE2      -16.4180   15.0540  -21.4300 O.co2 355  GLU355     -0.2457
    113  N        -13.7010   13.0620  -20.4220 N.am  356  ARG356     -0.1977
    114  CA       -14.1060   11.6770  -20.3970 C.3   356  ARG356      0.1597
    115  C        -15.1400   11.2300  -21.4290 C.2   356  ARG356      0.2287
    116  O        -15.0240   10.1260  -21.9750 O.2   356  ARG356     -0.2864
    117  CB       -14.6890   11.4010  -18.9960 C.3   356  ARG356      0.0334
    118  CG       -14.5560   10.0020  -18.4930 C.3   356  ARG356      0.0492
    119  CD       -15.0790    9.9120  -17.0600 C.3   356  ARG356      0.2205
    120  NE       -14.3220   10.6960  -16.0770 N.pl3 356  ARG356     -0.0865
    121  CZ       -13.4920   10.1910  -15.1630 C.cat 356  ARG356      0.5346
    122  NH1      -13.2610    8.8780  -15.0870 N.pl3 356  ARG356      0.1354
    123  NH2      -12.8980   10.9910  -14.2980 N.pl3 356  ARG356      0.1354
    124  N        -13.3010   11.5380  -24.8410 N.3   359  ARG359     -0.1245
    125  CA       -11.8730   11.1810  -24.8290 C.3   359  ARG359      0.1563
    126  C        -11.0350   12.2080  -25.5930 C.2   359  ARG359      0.2260
    127  O        -10.1320   11.8540  -26.3430 O.2   359  ARG359     -0.2867
    128  CB       -11.6160    9.7670  -25.3610 C.3   359  ARG359      0.0307
    129  CG       -12.1670    8.6880  -24.4530 C.3   359  ARG359      0.0489
    130  CD       -11.9530    7.3270  -25.0770 C.3   359  ARG359      0.2205
    131  NE       -12.4700    6.2850  -24.1990 N.pl3 359  ARG359     -0.0865
    132  CZ       -12.6200    5.0200  -24.5610 C.cat 359  ARG359      0.5346
    133  NH1      -13.0820    4.1540  -23.6760 N.pl3 359  ARG359      0.1354
    134  NH2      -12.2920    4.6120  -25.7810 N.pl3 359  ARG359      0.1354
    135  N         -8.3960   15.5500  -25.6040 N.3   361  ILE361     -0.1245
    136  CA        -7.3530   16.1850  -24.8210 C.3   361  ILE361      0.1561
    137  C         -7.6340   17.6820  -24.8550 C.2   361  ILE361      0.2260
    138  O         -7.4600   18.3510  -25.8700 O.2   361  ILE361     -0.2867
    139  CB        -5.9480   15.8760  -25.3630 C.3   361  ILE361      0.0252
    140  CG1       -5.7390   14.3570  -25.4740 C.3   361  ILE361      0.0019
    141  CG2       -4.8970   16.5150  -24.4600 C.3   361  ILE361      0.0019
    142  CD1       -4.3700   13.9420  -25.9480 C.3   361  ILE361      0.0001
@<TRIPOS>BOND
     1     9    10    2
     2     9     8    1
     3    11     8    1
     4    11    12    1
     5     1     2    1
     6     8     7    1
     7     7     3   am
     8    13    14    1
     9    48    47    1
    10     3     2    1
    11     3     4    2
    12    15    16    2
    13    15    14    1
    14     2     5    1
    15    14    17    1
    16    47    44    1
    17     6     5    1
    18    43    44    1
    19    44    45    1
    20    64    65    1
    21    64    63    1
    22    45    46    2
    23    63    62    1
    24   127   126    2
    25   142   140    1
    26    62    61    1
    27   138   137    2
    28   134   132    1
    29   135   136    1
    30   126   125    1
    31   140   139    1
    32   139   136    1
    33   139   141    1
    34   128   125    1
    35   128   129    1
    36    61    58    1
    37   130   129    1
    38   130   131    1
    39   137   136    1
    40   124   125    1
    41   132   131    2
    42   132   133    1
    43    55    54    1
    44    57    58    1
    45    57    51   am
    46    49    50    1
    47    54    53    1
    48    54    56    1
    49    58    59    1
    50    53    50    1
    51   111   110   ar
    52    50    51    1
    53    51    52    2
    54    59    60    2
    55   107   106    2
    56   110   109    1
    57   110   112   ar
    58   108   109    1
    59   108   105    1
    60   116   115    2
    61   103   101    1
    62   115   114    1
    63   106   105    1
    64   106   113   am
    65   104   105    1
    66   104    98   am
    67    97   100    1
    68    97    98    1
    69    97    96    1
    70   101   100    1
    71   101   102    1
    72   113   114    1
    73   114   117    1
    74    98    99    2
    75    66    67    1
    76    84    85    1
    77    84    81    1
    78    87    85   am
    79    85    86    2
    80    79    77   ar
    81    79    78   ar
    82    77    75   ar
    83    78    76   ar
    84    76    73   ar
    85    75    73   ar
    86    75    74   ar
    87    80    81    1
    88    80    68   am
    89    73    71   ar
    90    74    72   ar
    91    71    72   ar
    92    71    70    1
    93   117   118    1
    94    81    82    1
    95    67    70    1
    96    67    68    1
    97   118   119    1
    98    68    69    2
    99    41    40    1
   100    82    83    2
   101    40    39    1
   102    40    42    1
   103    34    32    1
   104   119   120    1
   105    39    36    1
   106    30    29    2
   107    32    33    1
   108    32    31    1
   109    38    37    2
   110    27    28    1
   111   120   121    2
   112    35    36    1
   113    29    28    1
   114    36    37    1
   115    94    93    1
   116    28    31    1
   117   121   122    1
   118   121   123    1
   119    88    89    1
   120    93    92    1
   121    93    95    1
   122    92    89    1
   123    25    24    2
   124    89    90    1
   125    24    26   am
   126    24    23    1
   127    23    22    1
   128    91    90    2
   129    22    19    1
   130    19    18    1
   131    19    20    1
   132    20    21    2
