@<TRIPOS>MOLECULE
tmp/4x32A04.pdb
 113 106 0 0 0
SMALL
GASTEIGER

@<TRIPOS>ATOM
      1  N         71.0620   30.0320   -3.3460 N.3    17  GLY17      -0.1225
      2  CA        70.0420   29.0220   -3.6620 C.3    17  GLY17       0.1811
      3  C         69.1700   29.4420   -4.8380 C.2    17  GLY17       0.2280
      4  O         68.9580   28.6660   -5.7750 O.2    17  GLY17      -0.2866
      5  N         71.2130   29.5680   -8.1060 N.3    20  THR20      -0.1203
      6  CA        71.3500   28.2170   -8.6340 C.3    20  THR20       0.1994
      7  C         70.0990   27.7700   -9.3770 C.2    20  THR20       0.2617
      8  O         70.1840   27.2650  -10.4940 O.2    20  THR20      -0.2717
      9  CB        71.6320   27.1940   -7.5050 C.3    20  THR20       0.1784
     10  OG1       72.7710   27.6240   -6.7640 O.3    20  THR20      -0.2211
     11  CG2       71.8730   25.7790   -8.0730 C.3    20  THR20       0.0376
     12  N         68.9370   27.9450   -8.7470 N.am   21  LEU21      -0.1979
     13  CA        67.6790   27.5290   -9.3730 C.3    21  LEU21       0.1596
     14  C         67.4440   28.2920  -10.6740 C.2    21  LEU21       0.2287
     15  O         67.0370   27.7040  -11.6710 O.2    21  LEU21      -0.2864
     16  CB        66.4990   27.7160   -8.4280 C.3    21  LEU21       0.0297
     17  CG        66.5580   26.8600   -7.1520 C.3    21  LEU21       0.0022
     18  CD1       65.3380   27.0900   -6.2870 C.3    21  LEU21       0.0001
     19  CD2       66.6920   25.3800   -7.4640 C.3    21  LEU21       0.0001
     20  N         69.6990   29.6490  -12.7290 N.3    23  PHE23      -0.1227
     21  CA        70.6230   29.1700  -13.7680 C.3    23  PHE23       0.1736
     22  C         70.2480   27.7770  -14.2250 C.2    23  PHE23       0.2595
     23  O         70.2950   27.4640  -15.4240 O.2    23  PHE23      -0.2718
     24  CB        72.0800   29.2190  -13.2990 C.3    23  PHE23       0.0547
     25  CG        72.5960   30.6090  -13.0250 C.ar   23  PHE23      -0.0202
     26  CD1       72.2190   31.6960  -13.8190 C.ar   23  PHE23      -0.0042
     27  CD2       73.4900   30.8350  -12.0030 C.ar   23  PHE23      -0.0042
     28  CE1       72.7150   32.9700  -13.5480 C.ar   23  PHE23      -0.0003
     29  CE2       73.9940   32.1070  -11.7470 C.ar   23  PHE23      -0.0003
     30  CZ        73.6000   33.1760  -12.5100 C.ar   23  PHE23      -0.0000
     31  N         69.8140   26.9460  -13.2860 N.am   24  LEU24      -0.1980
     32  CA        69.2980   25.6220  -13.6380 C.3    24  LEU24       0.1596
     33  C         68.1580   25.7100  -14.6320 C.2    24  LEU24       0.2287
     34  O         68.1360   24.9630  -15.6120 O.2    24  LEU24      -0.2864
     35  CB        68.8040   24.8770  -12.4040 C.3    24  LEU24       0.0297
     36  CG        69.8360   23.9410  -11.8030 C.3    24  LEU24       0.0022
     37  CD1       69.3710   23.4790  -10.4220 C.3    24  LEU24       0.0001
     38  CD2       70.1000   22.7680  -12.7580 C.3    24  LEU24       0.0001
     39  N         69.2770   27.0580  -18.1400 N.3    27  GLY27      -0.1225
     40  CA        70.0560   26.1090  -18.9160 C.3    27  GLY27       0.1811
     41  C         69.2920   24.9060  -19.4450 C.2    27  GLY27       0.2280
     42  O         69.8580   24.1030  -20.1960 O.2    27  GLY27      -0.2866
     43  N         69.1050   23.6100  -23.4520 N.3    30  VAL30      -0.1245
     44  CA        70.2920   24.0910  -24.1570 C.3    30  VAL30       0.1561
     45  C         71.0200   22.8930  -24.7600 C.2    30  VAL30       0.2260
     46  O         71.3950   21.9580  -24.0500 O.2    30  VAL30      -0.2867
     47  CB        71.2220   24.8910  -23.2200 C.3    30  VAL30       0.0252
     48  CG1       72.6030   25.0740  -23.8340 C.3    30  VAL30       0.0019
     49  CG2       70.5990   26.2420  -22.8940 C.3    30  VAL30       0.0019
     50  N         76.6300   24.5340  -23.1450 N.3    36  LYS36      -0.1245
     51  CA        76.4610   23.5370  -22.0740 C.3    36  LYS36       0.1561
     52  C         77.6070   23.6090  -21.0710 C.2    36  LYS36       0.2260
     53  O         77.3850   23.5440  -19.8610 O.2    36  LYS36      -0.2867
     54  CB        76.3070   22.1210  -22.6440 C.3    36  LYS36       0.0271
     55  CG        74.9330   21.8770  -23.2470 C.3    36  LYS36       0.0035
     56  CD        74.8540   20.6050  -24.0720 C.3    36  LYS36       0.0206
     57  CE        74.3680   19.4240  -23.2480 C.3    36  LYS36       0.1093
     58  NZ        74.1330   18.2450  -24.1240 N.3    36  LYS36      -0.1314
     59  N         76.9040   26.9020  -19.0000 N.3    39  TYR39      -0.1227
     60  CA        75.8030   26.7070  -18.0550 C.3    39  TYR39       0.1736
     61  C         76.1770   25.7910  -16.8900 C.2    39  TYR39       0.2595
     62  O         75.7840   26.0540  -15.7470 O.2    39  TYR39      -0.2718
     63  CB        74.5500   26.2290  -18.7580 C.3    39  TYR39       0.0548
     64  CG        73.7490   27.3680  -19.3390 C.ar   39  TYR39      -0.0200
     65  CD1       72.9090   28.1270  -18.5340 C.ar   39  TYR39      -0.0009
     66  CD2       73.8400   27.6950  -20.6750 C.ar   39  TYR39      -0.0009
     67  CE1       72.1550   29.1630  -19.0590 C.ar   39  TYR39       0.0417
     68  CE2       73.0940   28.7350  -21.2080 C.ar   39  TYR39       0.0417
     69  CZ        72.2520   29.4600  -20.3920 C.ar   39  TYR39       0.1957
     70  OH        71.5230   30.5010  -20.9150 O.3    39  TYR39      -0.2866
     71  N         76.9740   24.7600  -17.1680 N.am   40  ALA40      -0.1980
     72  CA        77.3660   23.8000  -16.1310 C.3    40  ALA40       0.1597
     73  C         78.2710   24.4810  -15.1260 C.2    40  ALA40       0.2287
     74  O         78.0360   24.4380  -13.8930 O.2    40  ALA40      -0.2864
     75  CB        78.0620   22.5960  -16.7560 C.3    40  ALA40       0.0319
     76  N         76.2810   27.3770  -13.1870 N.3    43  THR43      -0.1203
     77  CA        75.2770   26.8770  -12.2670 C.3    43  THR43       0.1994
     78  C         75.9480   26.2100  -11.0680 C.2    43  THR43       0.2617
     79  O         75.5070   26.3790   -9.9250 O.2    43  THR43      -0.2717
     80  CB        74.3200   25.9070  -12.9810 C.3    43  THR43       0.1784
     81  OG1       73.7280   26.5750  -14.1120 O.3    43  THR43      -0.2211
     82  CG2       73.1980   25.4350  -12.0440 C.3    43  THR43       0.0376
     83  N         77.0350   25.4870  -11.3090 N.am   44  LEU44      -0.1979
     84  CA        77.7510   24.8140  -10.2090 C.3    44  LEU44       0.1596
     85  C         78.2760   25.7630   -9.1590 C.2    44  LEU44       0.2287
     86  O         78.3380   25.4340   -7.9550 O.2    44  LEU44      -0.2864
     87  CB        78.9320   23.9960  -10.7460 C.3    44  LEU44       0.0297
     88  CG        78.5750   22.5780  -11.1760 C.3    44  LEU44       0.0022
     89  CD1       79.7090   21.9400  -11.9660 C.3    44  LEU44       0.0001
     90  CD2       78.2470   21.7330   -9.9340 C.3    44  LEU44       0.0001
     91  N         75.7310   26.7460   -6.6700 N.3    47  ALA47      -0.1245
     92  CA        75.2730   25.5270   -5.9800 C.3    47  ALA47       0.1562
     93  C         76.2230   25.1760   -4.8730 C.2    47  ALA47       0.2260
     94  O         75.8010   24.8810   -3.7390 O.2    47  ALA47      -0.2867
     95  CB        75.1490   24.3580   -6.9370 C.3    47  ALA47       0.0290
     96  N         76.0100   27.8420   -2.1930 N.3    50  PHE50      -0.1227
     97  CA        74.8200   27.5420   -1.4220 C.3    50  PHE50       0.1736
     98  C         75.1130   26.5800   -0.2830 C.2    50  PHE50       0.2596
     99  O         74.7340   26.8520    0.8760 O.2    50  PHE50      -0.2718
    100  CB        73.7100   26.9640   -2.2880 C.3    50  PHE50       0.0547
    101  CG        72.5930   26.3520   -1.4990 C.ar   50  PHE50      -0.0202
    102  CD1       71.6600   27.1500   -0.8580 C.ar   50  PHE50      -0.0042
    103  CD2       72.4960   24.9790   -1.3620 C.ar   50  PHE50      -0.0042
    104  CE1       70.6400   26.5950   -0.1250 C.ar   50  PHE50      -0.0003
    105  CE2       71.4730   24.4160   -0.6230 C.ar   50  PHE50      -0.0003
    106  CZ        70.5500   25.2260    0.0050 C.ar   50  PHE50      -0.0000
    107  N         75.7760   25.4750   -0.6090 N.am   51  THR51      -0.1953
    108  CA        76.0570   24.4480    0.3830 C.3    51  THR51       0.1897
    109  C         76.9750   24.9600    1.4810 C.2    51  THR51       0.2313
    110  O         76.7630   24.6830    2.6770 O.2    51  THR51      -0.2863
    111  CB        76.6180   23.1360   -0.2270 C.3    51  THR51       0.1794
    112  OG1       77.9550   23.3280   -0.7260 O.3    51  THR51      -0.2208
    113  CG2       75.7080   22.5970   -1.3010 C.3    51  THR51       0.0378
@<TRIPOS>BOND
     1    45    44    1
     2    45    46    2
     3    44    43    1
     4    44    47    1
     5    58    57    1
     6    56    57    1
     7    56    55    1
     8    48    47    1
     9    55    54    1
    10    47    49    1
    11    50    51    1
    12    54    51    1
    13    51    52    1
    14    68    66   ar
    15    68    69   ar
    16    52    53    2
    17    70    69    1
    18    66    64   ar
    19    69    67   ar
    20    42    41    2
    21    41    40    1
    22    64    63    1
    23    64    65   ar
    24    67    65   ar
    25    59    60    1
    26    40    39    1
    27    63    60    1
    28    60    61    1
    29    71    61   am
    30    71    72    1
    31    61    62    2
    32    75    72    1
    33    72    73    1
    34    34    33    2
    35    23    22    2
    36    73    74    2
    37    33    32    1
    38    22    21    1
    39    22    31   am
    40    81    80    1
    41    26    28   ar
    42    26    25   ar
    43    21    24    1
    44    21    20    1
    45    32    31    1
    46    32    35    1
    47    28    30   ar
    48    24    25    1
    49    76    77    1
    50    25    27   ar
    51    80    77    1
    52    80    82    1
    53    38    36    1
    54    30    29   ar
    55    35    36    1
    56    77    78    1
    57    27    29   ar
    58    89    88    1
    59    36    37    1
    60    15    14    2
    61    83    78   am
    62    83    84    1
    63    88    87    1
    64    88    90    1
    65    78    79    2
    66    87    84    1
    67    14    13    1
    68     8     7    2
    69    84    85    1
    70     7    12   am
    71     7     6    1
    72    13    12    1
    73    13    16    1
    74    85    86    2
    75     6     5    1
    76     6     9    1
    77    16    17    1
    78    11     9    1
    79     9    10    1
    80    19    17    1
    81    17    18    1
    82    95    92    1
    83    91    92    1
    84    92    93    1
    85     4     3    2
    86    93    94    2
    87     3     2    1
    88     2     1    1
    89   100   101    1
    90   100    97    1
    91    96    97    1
    92   101   103   ar
    93   101   102   ar
    94    97    98    1
    95   103   105   ar
    96   113   111    1
    97   102   104   ar
    98   112   111    1
    99   105   106   ar
   100   107    98   am
   101   107   108    1
   102    98    99    2
   103   111   108    1
   104   104   106   ar
   105   108   109    1
   106   109   110    2
