@<TRIPOS>MOLECULE
tmp/4x3cA00.pdb
 219 219 0 0 0
SMALL
GASTEIGER

@<TRIPOS>ATOM
      1  N         59.2140  168.3070  156.8090 N.3    69  TYR69      -0.1227
      2  CA        59.2560  167.9080  158.2090 C.3    69  TYR69       0.1736
      3  C         60.0710  166.6560  158.3120 C.2    69  TYR69       0.2595
      4  O         60.0560  165.8330  157.3980 O.2    69  TYR69      -0.2718
      5  CB        57.8460  167.6050  158.6940 C.3    69  TYR69       0.0548
      6  CG        57.6460  167.2740  160.1710 C.ar   69  TYR69      -0.0200
      7  CD1       57.7530  165.9590  160.6480 C.ar   69  TYR69      -0.0009
      8  CD2       57.2240  168.2700  161.0790 C.ar   69  TYR69      -0.0009
      9  CE1       57.5080  165.6650  161.9990 C.ar   69  TYR69       0.0417
     10  CE2       56.9760  167.9770  162.4170 C.ar   69  TYR69       0.0417
     11  CZ        57.1180  166.6770  162.8810 C.ar   69  TYR69       0.1957
     12  OH        56.8530  166.3820  164.2140 O.3    69  TYR69      -0.2866
     13  N         60.7480  166.4970  159.4430 N.am   70  VAL70      -0.1966
     14  CA        61.7570  165.4770  159.5760 C.3    70  VAL70       0.1727
     15  C         61.4180  164.5800  160.7500 C.2    70  VAL70       0.2616
     16  O         61.1410  165.0560  161.8530 O.2    70  VAL70      -0.2715
     17  CB        63.1260  166.1580  159.7610 C.3    70  VAL70       0.0290
     18  CG1       64.1480  165.1930  160.3180 C.3    70  VAL70       0.0023
     19  CG2       63.5820  166.7570  158.4390 C.3    70  VAL70       0.0023
     20  N         61.4610  163.2810  160.5060 N.am   71  ASP71      -0.1957
     21  CA        61.1400  162.2820  161.5040 C.3    71  ASP71       0.1840
     22  C         62.2260  162.2690  162.5760 C.2    71  ASP71       0.2622
     23  O         63.4210  162.2110  162.2550 O.2    71  ASP71      -0.2715
     24  CB        61.0350  160.9260  160.8300 C.3    71  ASP71       0.1450
     25  CG        60.5740  159.8500  161.7540 C.2    71  ASP71       0.3671
     26  OD1       60.5860  160.0610  162.9630 O.co2  71  ASP71      -0.2456
     27  OD2       60.1910  158.7820  161.2650 O.co2  71  ASP71      -0.2456
     28  N         61.8030  162.3520  163.8430 N.am   72  GLU72      -0.1963
     29  CA        62.7220  162.2890  164.9710 C.3    72  GLU72       0.1733
     30  C         62.1820  161.3910  166.1060 C.2    72  GLU72       0.2616
     31  O         62.6470  161.4480  167.2420 O.2    72  GLU72      -0.2715
     32  CB        62.9950  163.6920  165.4910 C.3    72  GLU72       0.0429
     33  CG        63.8580  164.5770  164.6170 C.3    72  GLU72       0.1163
     34  CD        63.9160  166.0070  165.1620 C.2    72  GLU72       0.3649
     35  OE1       64.2190  166.2070  166.3450 O.co2  72  GLU72      -0.2457
     36  OE2       63.6210  166.9540  164.4210 O.co2  72  GLU72      -0.2457
     37  N         61.2160  160.5440  165.7970 N.am   73  GLN73      -0.1977
     38  CA        60.6710  159.6350  166.7850 C.3    73  GLN73       0.1601
     39  C         61.6690  158.6060  167.2230 C.2    73  GLN73       0.2287
     40  O         61.6550  158.2070  168.3460 O.2    73  GLN73      -0.2864
     41  CB        59.4500  158.9410  166.1980 C.3    73  GLN73       0.0394
     42  CG        58.7160  157.9770  167.1230 C.3    73  GLN73       0.0908
     43  CD        58.0140  158.6720  168.2710 C.2    73  GLN73       0.2608
     44  OE1       56.8310  158.9720  168.1780 O.2    73  GLN73      -0.2717
     45  NE2       58.7450  158.9280  169.3580 N.am   73  GLN73      -0.0878
     46  N         63.2750  154.3320  160.5620 N.3    80  SER80      -0.1217
     47  CA        62.5920  155.6090  160.3280 C.3    80  SER80       0.1889
     48  C         63.4960  156.6160  159.6030 C.2    80  SER80       0.2288
     49  O         63.0260  157.5520  158.8900 O.2    80  SER80      -0.2866
     50  CB        62.1670  156.2030  161.6700 C.3    80  SER80       0.2089
     51  OG        63.2930  156.3750  162.5140 O.3    80  SER80      -0.2183
     52  N         64.0610  157.1170  155.7220 N.3    83  TRP83      -0.1227
     53  CA        63.0530  157.8550  154.9470 C.3    83  TRP83       0.1737
     54  C         63.3260  159.3620  154.9680 C.2    83  TRP83       0.2595
     55  O         62.7300  160.1360  154.2170 O.2    83  TRP83      -0.2718
     56  CB        61.6430  157.5600  155.4680 C.3    83  TRP83       0.0564
     57  CG        61.2900  156.0780  155.5090 C.ar   83  TRP83       0.0003
     58  CD1       61.1680  155.2830  156.6250 C.ar   83  TRP83       0.0946
     59  CD2       61.0180  155.2210  154.3870 C.ar   83  TRP83       0.0152
     60  NE1       60.8390  153.9910  156.2560 N.ar   83  TRP83      -0.2442
     61  CE2       60.7460  153.9350  154.8900 C.ar   83  TRP83       0.0810
     62  CE3       60.9790  155.4190  153.0070 C.ar   83  TRP83       0.0012
     63  CZ2       60.4410  152.8630  154.0560 C.ar   83  TRP83       0.0191
     64  CZ3       60.6730  154.3520  152.1900 C.ar   83  TRP83       0.0001
     65  CH2       60.4090  153.0940  152.7120 C.ar   83  TRP83       0.0015
     66  N         64.2370  159.7820  155.8300 N.am   84  ASN84      -0.1974
     67  CA        64.4910  161.1980  155.9900 C.3    84  ASN84       0.1688
     68  C         65.3950  161.6900  154.8910 C.2    84  ASN84       0.2292
     69  O         66.1190  160.9090  154.2620 O.2    84  ASN84      -0.2864
     70  CB        65.2010  161.4580  157.3390 C.3    84  ASN84       0.1181
     71  CG        64.2460  161.5780  158.5480 C.2    84  ASN84       0.2629
     72  OD1       63.1120  161.9450  158.4350 O.2    84  ASN84      -0.2716
     73  ND2       64.7570  161.2670  159.7100 N.am   84  ASN84      -0.0877
     74  N         57.0530  158.7080  147.5350 N.3   116  GLY116     -0.1210
     75  CA        55.9690  158.9980  148.4560 C.3   116  GLY116      0.1956
     76  C         56.3560  159.8800  149.6450 C.2   116  GLY116      0.2612
     77  O         57.3640  160.6330  149.5970 O.2   116  GLY116     -0.2717
     78  N         55.5150  159.7810  150.6980 N.am  117  GLY117     -0.1956
     79  CA        55.6860  160.5710  151.9150 C.3   117  GLY117      0.1869
     80  C         54.5640  161.5340  152.2190 C.2   117  GLY117      0.2309
     81  O         54.7980  162.6040  152.8340 O.2   117  GLY117     -0.2863
     82  N         53.9420  165.4960  152.1110 N.3   120  TYR120     -0.1227
     83  CA        54.5460  166.3750  153.1480 C.3   120  TYR120      0.1736
     84  C         56.0720  166.1420  153.3070 C.2   120  TYR120      0.2596
     85  O         56.7790  166.8750  154.0010 O.2   120  TYR120     -0.2718
     86  CB        53.8120  166.1980  154.5020 C.3   120  TYR120      0.0548
     87  CG        54.1330  164.9450  155.2580 C.ar  120  TYR120     -0.0200
     88  CD1       55.3290  164.8050  155.9330 C.ar  120  TYR120     -0.0009
     89  CD2       53.2270  163.8950  155.3070 C.ar  120  TYR120     -0.0009
     90  CE1       55.6240  163.6620  156.6300 C.ar  120  TYR120      0.0417
     91  CE2       53.4980  162.7470  156.0030 C.ar  120  TYR120      0.0417
     92  CZ        54.7050  162.6270  156.6410 C.ar  120  TYR120      0.1957
     93  OH        54.9940  161.4340  157.3280 O.3   120  TYR120     -0.2866
     94  N         56.5450  165.0950  152.6560 N.am  121  SER121     -0.1952
     95  CA        57.8920  164.6580  152.8090 C.3   121  SER121      0.1924
     96  C         58.2320  163.8070  151.5990 C.2   121  SER121      0.2314
     97  O         57.3490  163.4880  150.8100 O.2   121  SER121     -0.2863
     98  CB        58.0400  163.8610  154.1260 C.3   121  SER121      0.2116
     99  OG        57.2870  162.6710  154.0920 O.3   121  SER121     -0.2180
    100  N         65.7850  154.3440  147.1310 N.3   129  TYR129     -0.1241
    101  CA        65.3490  154.7940  145.8170 C.3   129  TYR129      0.1605
    102  C         66.4740  154.8530  144.7780 C.2   129  TYR129      0.2264
    103  O         66.2580  155.3450  143.6580 O.2   129  TYR129     -0.2867
    104  CB        64.7020  156.1510  145.9110 C.3   129  TYR129      0.0534
    105  CG        63.4740  156.2640  146.7880 C.ar  129  TYR129     -0.0201
    106  CD1       62.6710  155.1710  147.0890 C.ar  129  TYR129     -0.0009
    107  CD2       63.1030  157.5100  147.2590 C.ar  129  TYR129     -0.0009
    108  CE1       61.5720  155.3230  147.8940 C.ar  129  TYR129      0.0417
    109  CE2       61.9990  157.6820  148.0380 C.ar  129  TYR129      0.0417
    110  CZ        61.2260  156.5940  148.3640 C.ar  129  TYR129      0.1957
    111  OH        60.1110  156.8000  149.1710 O.3   129  TYR129     -0.2866
    112  N         55.0470  155.0170  144.9260 N.3   198  GLU198     -0.1231
    113  CA        54.5260  154.3930  146.1330 C.3   198  GLU198      0.1699
    114  C         53.8480  155.4080  147.0250 C.2   198  GLU198      0.2592
    115  O         54.3010  156.5360  147.1400 O.2   198  GLU198     -0.2718
    116  CB        55.6680  153.7260  146.8680 C.3   198  GLU198      0.0402
    117  CG        55.2080  152.8330  148.0130 C.3   198  GLU198      0.1161
    118  CD        55.1420  153.5370  149.3670 C.2   198  GLU198      0.3649
    119  OE1       55.6380  154.6570  149.4890 O.co2 198  GLU198     -0.2457
    120  OE2       54.5880  152.9200  150.2960 O.co2 198  GLU198     -0.2457
    121  N         52.7450  155.0270  147.6510 N.am  199  SER199     -0.1952
    122  CA        52.0900  155.9300  148.6090 C.3   199  SER199      0.1924
    123  C         51.5570  157.1770  147.8870 C.2   199  SER199      0.2314
    124  O         50.7660  157.0610  146.9320 O.2   199  SER199     -0.2863
    125  CB        53.0570  156.3000  149.7650 C.3   199  SER199      0.2116
    126  OG        52.4230  157.0770  150.7800 O.3   199  SER199     -0.2180
    127  N         51.2840  171.0080  160.9160 N.3   278  TRP278     -0.1241
    128  CA        50.3440  170.0100  161.3720 C.3   278  TRP278      0.1605
    129  C         49.1450  170.5520  162.0770 C.2   278  TRP278      0.2264
    130  O         48.1610  169.8300  162.1650 O.2   278  TRP278     -0.2867
    131  CB        51.0390  168.9740  162.2460 C.3   278  TRP278      0.0550
    132  CG        52.0620  168.2720  161.4680 C.ar  278  TRP278      0.0003
    133  CD1       53.3650  168.6160  161.3500 C.ar  278  TRP278      0.0946
    134  CD2       51.8610  167.1350  160.6310 C.ar  278  TRP278      0.0152
    135  NE1       54.0180  167.7270  160.5240 N.ar  278  TRP278     -0.2442
    136  CE2       53.1150  166.8140  160.0550 C.ar  278  TRP278      0.0810
    137  CE3       50.7520  166.3420  160.3250 C.ar  278  TRP278      0.0012
    138  CZ2       53.2950  165.7340  159.1800 C.ar  278  TRP278      0.0191
    139  CZ3       50.9320  165.2510  159.4640 C.ar  278  TRP278      0.0001
    140  CH2       52.2080  164.9560  158.9060 C.ar  278  TRP278      0.0015
    141  N         52.3370  151.3490  160.4950 N.3   329  PHE329     -0.1241
    142  CA        53.2660  152.4360  160.7210 C.3   329  PHE329      0.1605
    143  C         52.5190  153.6670  161.2440 C.2   329  PHE329      0.2264
    144  O         53.0460  154.3810  162.0770 O.2   329  PHE329     -0.2867
    145  CB        54.1060  152.6720  159.4400 C.3   329  PHE329      0.0534
    146  CG        54.2470  154.1140  159.0110 C.ar  329  PHE329     -0.0203
    147  CD1       54.9750  155.0070  159.7480 C.ar  329  PHE329     -0.0042
    148  CD2       53.6860  154.5430  157.8420 C.ar  329  PHE329     -0.0042
    149  CE1       55.1060  156.3280  159.3540 C.ar  329  PHE329     -0.0003
    150  CE2       53.8080  155.8630  157.4300 C.ar  329  PHE329     -0.0003
    151  CZ        54.5310  156.7600  158.1890 C.ar  329  PHE329     -0.0000
    152  N         53.0570  155.5430  165.0770 N.3   333  TYR333     -0.1241
    153  CA        53.3740  156.9450  165.3020 C.3   333  TYR333      0.1605
    154  C         52.2500  157.7490  165.9300 C.2   333  TYR333      0.2264
    155  O         52.5020  158.7930  166.5640 O.2   333  TYR333     -0.2867
    156  CB        53.7710  157.6370  163.9720 C.3   333  TYR333      0.0534
    157  CG        55.2210  157.4280  163.5500 C.ar  333  TYR333     -0.0201
    158  CD1       55.6790  156.1720  163.1840 C.ar  333  TYR333     -0.0009
    159  CD2       56.1200  158.4720  163.5050 C.ar  333  TYR333     -0.0009
    160  CE1       57.0010  155.9570  162.8270 C.ar  333  TYR333      0.0417
    161  CE2       57.4560  158.2770  163.1250 C.ar  333  TYR333      0.0417
    162  CZ        57.8910  157.0030  162.7980 C.ar  333  TYR333      0.1957
    163  OH        59.1790  156.7470  162.3760 O.3   333  TYR333     -0.2866
    164  N         62.0960  146.6060  162.3090 N.3   431  TRP431     -0.1241
    165  CA        60.8730  146.9270  163.0300 C.3   431  TRP431      0.1605
    166  C         60.3250  145.6740  163.7260 C.2   431  TRP431      0.2264
    167  O         60.7190  144.5770  163.4140 O.2   431  TRP431     -0.2867
    168  CB        59.8070  147.4910  162.0630 C.3   431  TRP431      0.0550
    169  CG        60.1260  148.7770  161.4030 C.ar  431  TRP431      0.0003
    170  CD1       60.5970  148.9590  160.1130 C.ar  431  TRP431      0.0946
    171  CD2       59.9770  150.0780  161.9470 C.ar  431  TRP431      0.0152
    172  NE1       60.7770  150.2960  159.8520 N.ar  431  TRP431     -0.2442
    173  CE2       60.3890  151.0020  160.9580 C.ar  431  TRP431      0.0810
    174  CE3       59.5690  150.5590  163.1770 C.ar  431  TRP431      0.0012
    175  CZ2       60.3770  152.3680  161.1760 C.ar  431  TRP431      0.0191
    176  CZ3       59.5730  151.9190  163.3960 C.ar  431  TRP431      0.0001
    177  CH2       59.9640  152.8080  162.4060 C.ar  431  TRP431      0.0015
    178  N         54.1180  144.8250  163.2830 N.3   435  MET435     -0.1245
    179  CA        53.8130  145.7840  162.2150 C.3   435  MET435      0.1570
    180  C         53.7110  145.0560  160.8770 C.2   435  MET435      0.2261
    181  O         53.2760  145.6320  159.8700 O.2   435  MET435     -0.2867
    182  CB        54.9270  146.8830  162.1550 C.3   435  MET435      0.0387
    183  CG        55.0190  147.7420  163.4220 C.3   435  MET435      0.0595
    184  SD        56.3010  148.9980  163.4710 S.3   435  MET435     -0.1393
    185  CE        55.7800  150.0460  162.1120 C.3   435  MET435      0.0692
    186  N         55.0640  146.1670  156.0810 N.3   438  ILE438     -0.1231
    187  CA        54.8140  147.6040  156.3110 C.3   438  ILE438      0.1692
    188  C         54.7600  148.4690  155.0500 C.2   438  ILE438      0.2592
    189  O         55.4530  148.2250  154.0490 O.2   438  ILE438     -0.2718
    190  CB        55.9180  148.1240  157.2300 C.3   438  ILE438      0.0266
    191  CG1       55.8370  147.3550  158.5360 C.3   438  ILE438      0.0019
    192  CG2       55.8260  149.6330  157.5010 C.3   438  ILE438      0.0020
    193  CD1       57.0490  147.5360  159.4030 C.3   438  ILE438      0.0001
    194  N         53.9270  149.4940  155.1240 N.am  439  HIS439     -0.1962
    195  CA        53.8920  150.5300  154.1540 C.3   439  HIS439      0.1787
    196  C         55.2970  150.9610  153.7410 C.2   439  HIS439      0.2621
    197  O         56.0360  151.5190  154.5680 O.2   439  HIS439     -0.2715
    198  CB        53.1580  151.6900  154.7590 C.3   439  HIS439      0.0785
    199  CG        52.6960  152.7000  153.7720 C.ar  439  HIS439      0.0821
    200  ND1       51.8360  152.3820  152.7440 N.ar  439  HIS439     -0.2267
    201  CD2       52.9000  154.0370  153.7050 C.ar  439  HIS439      0.1154
    202  CE1       51.5390  153.4830  152.0730 C.ar  439  HIS439      0.1986
    203  NE2       52.1830  154.5000  152.6250 N.ar  439  HIS439     -0.2212
    204  N         55.6560  150.6900  152.4690 N.am  440  GLY440     -0.1940
    205  CA        56.9560  151.0850  151.8950 C.3   440  GLY440      0.2014
    206  C         58.0230  150.0050  151.8640 C.2   440  GLY440      0.2638
    207  O         59.1490  150.2080  151.3540 O.2   440  GLY440     -0.2714
    208  N         57.6830  148.8240  152.3650 N.am  441  TYR441     -0.1973
    209  CA        58.6950  147.7720  152.4860 C.3   441  TYR441      0.1639
    210  C         58.6810  146.7810  151.3420 C.2   441  TYR441      0.2290
    211  O         59.4020  145.7780  151.3660 O.2   441  TYR441     -0.2864
    212  CB        58.7030  147.1340  153.8990 C.3   441  TYR441      0.0560
    213  CG        59.4320  148.0590  154.8480 C.ar  441  TYR441     -0.0198
    214  CD1       58.7990  149.2060  155.3730 C.ar  441  TYR441     -0.0009
    215  CD2       60.7860  147.8610  155.1540 C.ar  441  TYR441     -0.0009
    216  CE1       59.4810  150.0960  156.2050 C.ar  441  TYR441      0.0417
    217  CE2       61.4650  148.7500  155.9830 C.ar  441  TYR441      0.0417
    218  CZ        60.8130  149.8700  156.4940 C.ar  441  TYR441      0.1957
    219  OH        61.5040  150.7520  157.2940 O.3   441  TYR441     -0.2866
@<TRIPOS>BOND
     1   103   102    2
     2   102   101    1
     3   112   113    1
     4   101   104    1
     5   101   100    1
     6   104   105    1
     7   113   116    1
     8   113   114    1
     9   105   106   ar
    10   105   107   ar
    11   116   117    1
    12   124   123    2
    13   114   115    2
    14   114   121   am
    15   106   108   ar
    16   107   109   ar
    17    74    75    1
    18   121   122    1
    19   123   122    1
    20   108   110   ar
    21   117   118    1
    22   109   110   ar
    23   110   111    1
    24    75    76    1
    25   122   125    1
    26   118   119   ar
    27   118   120   ar
    28    77    76    2
    29    76    78   am
    30   125   126    1
    31    78    79    1
    32    97    96    2
    33   210   211    2
    34   210   209    1
    35   207   206    2
    36    96    95    1
    37   206   205    1
    38   206   208   am
    39   205   204    1
    40    79    80    1
    41   202   203   ar
    42   202   200   ar
    43    82    83    1
    44    64    65   ar
    45    64    62   ar
    46    80    81    2
    47   208   209    1
    48   204   196   am
    49   209   212    1
    50   203   201   ar
    51    94    95    1
    52    94    84   am
    53    65    63   ar
    54   200   199   ar
    55    95    98    1
    56    62    59   ar
    57    83    84    1
    58    83    86    1
    59    84    85    2
    60   201   199   ar
    61   196   195    1
    62   196   197    2
    63   199   198    1
    64   212   213    1
    65   189   188    2
    66    63    61   ar
    67    99    98    1
    68   195   198    1
    69   195   194    1
    70    55    54    2
    71    69    68    2
    72    59    61   ar
    73    59    57   ar
    74    86    87    1
    75   213   215   ar
    76   213   214   ar
    77    61    60   ar
    78    68    67    1
    79    53    54    1
    80    53    56    1
    81    53    52    1
    82    54    66   am
    83   188   194   am
    84   188   187    1
    85   215   217   ar
    86    87    89   ar
    87    87    88   ar
    88    89    91   ar
    89   214   216   ar
    90    56    57    1
    91    57    58   ar
    92    66    67    1
    93    88    90   ar
    94   217   218   ar
    95    67    70    1
    96    91    92   ar
    97   186   187    1
    98   216   218   ar
    99    60    58   ar
   100   187   190    1
   101   218   219    1
   102    90    92   ar
   103    92    93    1
   104     1     2    1
   105   190   192    1
   106   190   191    1
   107    70    71    1
   108     4     3    2
   109   150   148   ar
   110   150   151   ar
   111   148   146   ar
   112   151   149   ar
   113     2     3    1
   114     2     5    1
   115     3    13   am
   116    72    71    2
   117    19    17    1
   118   191   193    1
   119    71    73   am
   120     5     6    1
   121    49    48    2
   122   140   138   ar
   123   140   139   ar
   124   146   145    1
   125   146   147   ar
   126   138   136   ar
   127   149   147   ar
   128   145   142    1
   129    13    14    1
   130   139   137   ar
   131    14    17    1
   132    14    15    1
   133    48    47    1
   134    17    18    1
   135   172   170   ar
   136   172   173   ar
   137   181   180    2
   138   136   135   ar
   139   136   134   ar
   140   170   169   ar
   141     6     7   ar
   142     6     8   ar
   143   137   134   ar
   144    47    46    1
   145    47    50    1
   146   141   142    1
   147    20    15   am
   148    20    21    1
   149   135   133   ar
   150   134   132   ar
   151     7     9   ar
   152   142   143    1
   153    15    16    2
   154    24    21    1
   155    24    25    1
   156   180   179    1
   157   127   128    1
   158   173   175   ar
   159   173   171   ar
   160     8    10   ar
   161   175   177   ar
   162   143   144    2
   163    27    25   ar
   164   133   132   ar
   165   128   129    1
   166   128   131    1
   167   169   171   ar
   168   169   168    1
   169   132   131    1
   170    21    22    1
   171    50    51    1
   172    25    26   ar
   173   171   174   ar
   174     9    11   ar
   175   168   165    1
   176   129   130    2
   177   185   184    1
   178   182   179    1
   179   182   183    1
   180   179   178    1
   181    23    22    2
   182   164   165    1
   183   163   162    1
   184   177   176   ar
   185    10    11   ar
   186    22    28   am
   187   162   160   ar
   188   162   161   ar
   189   160   158   ar
   190    11    12    1
   191   165   166    1
   192   161   159   ar
   193   174   176   ar
   194   158   157   ar
   195   167   166    2
   196   183   184    1
   197   159   157   ar
   198   157   156    1
   199    28    29    1
   200   156   153    1
   201    36    34   ar
   202    33    34    1
   203    33    32    1
   204    29    32    1
   205    29    30    1
   206   152   153    1
   207    34    35   ar
   208   153   154    1
   209    37    30   am
   210    37    38    1
   211   154   155    2
   212    30    31    2
   213    41    38    1
   214    41    42    1
   215    38    39    1
   216    42    43    1
   217    39    40    2
   218    44    43    2
   219    43    45   am
