@<TRIPOS>MOLECULE
tmp/4x3jA00.pdb
 184 174 0 0 0
SMALL
GASTEIGER

@<TRIPOS>ATOM
      1  N         15.5790   37.4750   56.6850 N.3     1  VAL1       -0.1245
      2  CA        17.0180   37.1880   56.6310 C.3     1  VAL1        0.1561
      3  C         17.6270   37.7540   55.3420 C.2     1  VAL1        0.2260
      4  O         17.4090   37.2090   54.2610 O.2     1  VAL1       -0.2867
      5  CB        17.3740   35.6890   56.8760 C.3     1  VAL1        0.0252
      6  CG1       18.8780   35.4350   56.7350 C.3     1  VAL1        0.0019
      7  CG2       16.8870   35.2270   58.2450 C.3     1  VAL1        0.0019
      8  N         24.8880   38.4410   57.5210 N.3     9  ALA9       -0.1245
      9  CA        23.5420   37.9810   57.1990 C.3     9  ALA9        0.1562
     10  C         22.7210   38.3480   58.4320 C.2     9  ALA9        0.2260
     11  O         22.9500   37.8030   59.5190 O.2     9  ALA9       -0.2867
     12  CB        23.5310   36.4770   56.9650 C.3     9  ALA9        0.0290
     13  N         19.3050   38.7480   60.6640 N.3    11  LYS11      -0.1245
     14  CA        18.0330   38.0640   60.8980 C.3    11  LYS11       0.1561
     15  C         16.8680   39.0540   61.0500 C.2    11  LYS11       0.2260
     16  O         16.9850   40.0690   61.7360 O.2    11  LYS11      -0.2867
     17  CB        18.1340   37.1310   62.1180 C.3    11  LYS11       0.0271
     18  CG        17.2230   35.9180   61.9900 C.3    11  LYS11       0.0035
     19  CD        17.3370   34.9320   63.1530 C.3    11  LYS11       0.0206
     20  CE        16.3890   33.7680   62.9830 C.3    11  LYS11       0.1093
     21  NZ        16.7170   32.9510   61.7720 N.3    11  LYS11      -0.1314
     22  N         18.3150   32.1190   70.0860 N.3    12  GLU12      -0.1245
     23  CA        19.5430   31.6390   69.4480 C.3    12  GLU12       0.1567
     24  C         20.7460   32.5610   69.6670 C.2    12  GLU12       0.2260
     25  O         21.8790   32.1460   69.4100 O.2    12  GLU12      -0.2867
     26  CB        19.3330   31.3350   67.9430 C.3    12  GLU12       0.0388
     27  CG        19.0140   32.4970   67.0140 C.3    12  GLU12       0.1160
     28  CD        18.2410   32.0550   65.7860 C.2    12  GLU12       0.3649
     29  OE1       16.9900   32.0300   65.8570 O.co2  12  GLU12      -0.2457
     30  OE2       18.8820   31.6740   64.7790 O.co2  12  GLU12      -0.2457
     31  N         23.3620   31.1200   72.2070 N.3    15  VAL15      -0.1231
     32  CA        23.9190   29.9410   71.5310 C.3    15  VAL15       0.1692
     33  C         25.1210   30.2970   70.6100 C.2    15  VAL15       0.2591
     34  O         26.1750   29.6700   70.7090 O.2    15  VAL15      -0.2718
     35  CB        22.7730   29.1880   70.7800 C.3    15  VAL15       0.0266
     36  CG1       23.3040   28.2060   69.7450 C.3    15  VAL15       0.0020
     37  CG2       21.8170   28.4970   71.7510 C.3    15  VAL15       0.0020
     38  N         24.9620   31.3250   69.7590 N.am   16  LEU16      -0.1980
     39  CA        25.9850   31.7520   68.8060 C.3    16  LEU16       0.1596
     40  C         27.2070   32.4480   69.4420 C.2    16  LEU16       0.2287
     41  O         28.3210   32.3110   68.9230 O.2    16  LEU16      -0.2864
     42  CB        25.3560   32.6140   67.7090 C.3    16  LEU16       0.0297
     43  CG        24.1530   31.9830   66.9870 C.3    16  LEU16       0.0022
     44  CD1       23.3800   33.0160   66.2020 C.3    16  LEU16       0.0001
     45  CD2       24.5620   30.7980   66.1220 C.3    16  LEU16       0.0001
     46  N         28.7540   29.3610   72.1570 N.3    19  LEU19      -0.1245
     47  CA        29.3990   28.2790   71.4050 C.3    19  LEU19       0.1561
     48  C         30.4620   28.9090   70.4860 C.2    19  LEU19       0.2260
     49  O         30.4570   28.7170   69.2570 O.2    19  LEU19      -0.2867
     50  CB        28.3800   27.4140   70.6280 C.3    19  LEU19       0.0270
     51  CG        27.2700   26.7120   71.4360 C.3    19  LEU19       0.0019
     52  CD1       26.1610   26.2300   70.5280 C.3    19  LEU19       0.0001
     53  CD2       27.8100   25.5520   72.2630 C.3    19  LEU19       0.0001
     54  N         31.2380   26.1040   63.4300 N.3    25  ILE25      -0.1231
     55  CA        29.9460   26.4850   63.9890 C.3    25  ILE25       0.1692
     56  C         29.6950   27.9090   63.5370 C.2    25  ILE25       0.2591
     57  O         30.5700   28.7630   63.7120 O.2    25  ILE25      -0.2718
     58  CB        29.8970   26.3090   65.5370 C.3    25  ILE25       0.0266
     59  CG1       29.7030   24.8350   65.9030 C.3    25  ILE25       0.0019
     60  CG2       28.7810   27.1410   66.1910 C.3    25  ILE25       0.0020
     61  CD1       30.8280   24.2570   66.6050 C.3    25  ILE25       0.0001
     62  N         28.5330   28.1720   62.9350 N.am   26  ILE26      -0.1980
     63  CA        28.2040   29.5290   62.5100 C.3    26  ILE26       0.1595
     64  C         28.2980   30.5110   63.7080 C.2    26  ILE26       0.2287
     65  O         27.8300   30.1980   64.8030 O.2    26  ILE26      -0.2864
     66  CB        26.8610   29.6020   61.7320 C.3    26  ILE26       0.0276
     67  CG1       26.8620   30.7520   60.7150 C.3    26  ILE26       0.0022
     68  CG2       25.6340   29.6400   62.6450 C.3    26  ILE26       0.0022
     69  CD1       27.6660   30.4850   59.3840 C.3    26  ILE26       0.0001
     70  N         24.7760   37.4310   61.7940 N.3    34  ILE34      -0.1231
     71  CA        25.3700   36.0870   61.7360 C.3    34  ILE34       0.1692
     72  C         26.4810   36.1580   60.7050 C.2    34  ILE34       0.2592
     73  O         26.3570   36.9260   59.7470 O.2    34  ILE34      -0.2718
     74  CB        24.3180   34.9920   61.3530 C.3    34  ILE34       0.0266
     75  CG1       23.0410   35.0720   62.2210 C.3    34  ILE34       0.0019
     76  CG2       24.9120   33.5900   61.4390 C.3    34  ILE34       0.0020
     77  CD1       21.7520   34.8430   61.4450 C.3    34  ILE34       0.0001
     78  N         27.5590   35.3670   60.8800 N.am   35  GLU35      -0.1966
     79  CA        28.6350   35.3380   59.8960 C.3    35  GLU35       0.1733
     80  C         28.0920   34.8000   58.5800 C.2    35  GLU35       0.2616
     81  O         27.3850   33.7800   58.5630 O.2    35  GLU35      -0.2715
     82  CB        29.9130   34.6340   60.3900 C.3    35  GLU35       0.0429
     83  CG        29.7980   33.1480   60.6800 C.3    35  GLU35       0.1163
     84  CD        31.1160   32.3990   60.6770 C.2    35  GLU35       0.3649
     85  OE1       31.3740   31.6530   61.6490 O.co2  35  GLU35      -0.2457
     86  OE2       31.8950   32.5570   59.7080 O.co2  35  GLU35      -0.2457
     87  N         28.2920   35.5820   57.5090 N.am   36  TYR36      -0.1960
     88  CA        27.7740   35.2450   56.1980 C.3    36  TYR36       0.1771
     89  C         28.5110   34.0920   55.5490 C.2    36  TYR36       0.2619
     90  O         29.7450   34.0660   55.5300 O.2    36  TYR36      -0.2715
     91  CB        27.7390   36.4870   55.2820 C.3    36  TYR36       0.0574
     92  CG        27.3030   36.2060   53.8590 C.ar   36  TYR36      -0.0198
     93  CD1       25.9790   35.8860   53.5630 C.ar   36  TYR36      -0.0009
     94  CD2       28.2080   36.2710   52.8070 C.ar   36  TYR36      -0.0009
     95  CE1       25.5760   35.6110   52.2560 C.ar   36  TYR36       0.0417
     96  CE2       27.8130   36.0230   51.4940 C.ar   36  TYR36       0.0417
     97  CZ        26.5000   35.6760   51.2240 C.ar   36  TYR36       0.1957
     98  OH        26.1170   35.4240   49.9300 O.3    36  TYR36      -0.2866
     99  N         27.7310   33.1370   55.0250 N.am   37  ALA37      -0.1977
    100  CA        28.2000   31.9930   54.2610 C.3    37  ALA37       0.1597
    101  C         27.9370   32.3080   52.7600 C.2    37  ALA37       0.2287
    102  O         26.7780   32.4640   52.3640 O.2    37  ALA37      -0.2864
    103  CB        27.4580   30.7400   54.6920 C.3    37  ALA37       0.0319
    104  N         26.0160   29.3120   50.4240 N.3    40  GLY40      -0.1210
    105  CA        24.7340   28.8630   50.9560 C.3    40  GLY40       0.1956
    106  C         24.8220   27.5700   51.7340 C.2    40  GLY40       0.2611
    107  O         25.9060   27.1940   52.1910 O.2    40  GLY40      -0.2717
    108  N         23.6770   26.8850   51.8920 N.am   41  ASN41      -0.1974
    109  CA        23.6090   25.6130   52.6130 C.3    41  ASN41       0.1688
    110  C         24.2560   24.4620   51.8210 C.2    41  ASN41       0.2292
    111  O         24.3110   24.5100   50.5810 O.2    41  ASN41      -0.2864
    112  CB        22.1860   25.2870   53.0690 C.3    41  ASN41       0.1181
    113  CG        21.2840   24.7260   52.0030 C.2    41  ASN41       0.2629
    114  OD1       21.3390   23.5450   51.6710 O.2    41  ASN41      -0.2716
    115  ND2       20.4110   25.5530   51.4670 N.am   41  ASN41      -0.0877
    116  N         30.5410   20.6220   70.1130 N.3    87  LEU87      -0.1245
    117  CA        29.1850   20.7010   70.6350 C.3    87  LEU87       0.1561
    118  C         28.9650   19.7160   71.7670 C.2    87  LEU87       0.2260
    119  O         28.5650   20.1490   72.8380 O.2    87  LEU87      -0.2867
    120  CB        28.1280   20.5820   69.5240 C.3    87  LEU87       0.0270
    121  CG        27.9640   21.8410   68.6380 C.3    87  LEU87       0.0019
    122  CD1       26.6610   21.8020   67.8560 C.3    87  LEU87       0.0001
    123  CD2       28.0130   23.1340   69.4650 C.3    87  LEU87       0.0001
    124  N         26.1080   20.2440   74.4680 N.3    92  PHE92      -0.1241
    125  CA        25.0720   20.8020   73.6230 C.3    92  PHE92       0.1605
    126  C         24.5490   19.7510   72.6260 C.2    92  PHE92       0.2264
    127  O         25.3260   19.1820   71.8610 O.2    92  PHE92      -0.2867
    128  CB        25.6210   22.0510   72.8960 C.3    92  PHE92       0.0534
    129  CG        24.5630   22.8390   72.1670 C.ar   92  PHE92      -0.0203
    130  CD1       24.2010   22.5100   70.8610 C.ar   92  PHE92      -0.0042
    131  CD2       23.9010   23.8890   72.7920 C.ar   92  PHE92      -0.0042
    132  CE1       23.1780   23.2010   70.2080 C.ar   92  PHE92      -0.0003
    133  CE2       22.8840   24.5850   72.1320 C.ar   92  PHE92      -0.0003
    134  CZ        22.5360   24.2400   70.8420 C.ar   92  PHE92      -0.0000
    135  N         22.2310   19.1970   69.3520 N.3    94  HIS94      -0.1241
    136  CA        21.7570   19.9460   68.1990 C.3    94  HIS94       0.1621
    137  C         20.2660   19.7430   67.9010 C.2    94  HIS94       0.2264
    138  O         19.5660   20.7340   67.6870 O.2    94  HIS94      -0.2867
    139  CB        22.6260   19.6510   66.9630 C.3    94  HIS94       0.0745
    140  CG        22.3750   20.5950   65.8300 C.ar   94  HIS94       0.0817
    141  ND1       21.2050   20.5350   65.0770 N.ar   94  HIS94      -0.2268
    142  CD2       23.1360   21.6150   65.3720 C.ar   94  HIS94       0.1154
    143  CE1       21.2910   21.5190   64.1930 C.ar   94  HIS94       0.1986
    144  NE2       22.4440   22.1850   64.3140 N.ar   94  HIS94      -0.2212
    145  N         26.2080   25.2020   56.5230 N.3   103  LEU103     -0.1245
    146  CA        26.4820   26.2780   55.5900 C.3   103  LEU103      0.1561
    147  C         27.8940   26.1130   55.0430 C.2   103  LEU103      0.2260
    148  O         28.7820   25.6730   55.7570 O.2   103  LEU103     -0.2867
    149  CB        26.2770   27.6440   56.2830 C.3   103  LEU103      0.0270
    150  CG        24.7890   28.0250   56.5880 C.3   103  LEU103      0.0019
    151  CD1       24.6900   29.1380   57.5840 C.3   103  LEU103      0.0001
    152  CD2       24.0150   28.3870   55.3140 C.3   103  LEU103      0.0001
    153  N         28.1940   24.4390   60.9890 N.3   112  ILE112     -0.1231
    154  CA        26.9750   23.9380   61.6360 C.3   112  ILE112      0.1692
    155  C         26.0960   25.1300   61.9880 C.2   112  ILE112      0.2592
    156  O         26.5850   26.1230   62.5360 O.2   112  ILE112     -0.2718
    157  CB        27.2950   23.0490   62.8780 C.3   112  ILE112      0.0266
    158  CG1       27.9530   21.7000   62.4360 C.3   112  ILE112      0.0019
    159  CG2       26.0460   22.8260   63.7760 C.3   112  ILE112      0.0020
    160  CD1       28.7920   21.0800   63.4620 C.3   112  ILE112      0.0001
    161  N         24.8090   25.0330   61.6250 N.am  113  ALA113     -0.1966
    162  CA        23.7960   26.0470   61.8680 C.3   113  ALA113      0.1728
    163  C         22.4620   25.3570   62.2310 C.2   113  ALA113      0.2616
    164  O         22.4100   24.1220   62.2860 O.2   113  ALA113     -0.2715
    165  CB        23.6440   26.9170   60.6220 C.3   113  ALA113      0.0334
    166  N         21.4090   26.1550   62.5190 N.am  114  ASP114     -0.1957
    167  CA        20.0650   25.6830   62.8490 C.3   114  ASP114      0.1840
    168  C         19.0360   26.7760   62.5630 C.2   114  ASP114      0.2622
    169  O         18.8290   27.6950   63.3700 O.2   114  ASP114     -0.2715
    170  CB        19.9560   25.1200   64.2810 C.3   114  ASP114      0.1450
    171  CG        18.6810   24.3230   64.5390 C.2   114  ASP114      0.3671
    172  OD1       17.8930   24.1230   63.5780 O.co2 114  ASP114     -0.2456
    173  OD2       18.4740   23.8910   65.6930 O.co2 114  ASP114     -0.2456
    174  N         18.4190   26.6670   61.3770 N.am  115  PHE115     -0.1974
    175  CA        17.4440   27.5950   60.8140 C.3   115  PHE115      0.1639
    176  C         16.3760   26.8600   59.9820 C.2   115  PHE115      0.2290
    177  O         16.6260   25.7540   59.4800 O.2   115  PHE115     -0.2864
    178  CB        18.1660   28.6490   59.9360 C.3   115  PHE115      0.0560
    179  CG        19.0070   28.1070   58.7970 C.ar  115  PHE115     -0.0200
    180  CD1       20.3590   27.8360   58.9750 C.ar  115  PHE115     -0.0042
    181  CD2       18.4530   27.8950   57.5400 C.ar  115  PHE115     -0.0042
    182  CE1       21.1320   27.3170   57.9320 C.ar  115  PHE115     -0.0003
    183  CE2       19.2300   27.3880   56.4920 C.ar  115  PHE115     -0.0003
    184  CZ        20.5630   27.0980   56.6980 C.ar  115  PHE115     -0.0000
@<TRIPOS>BOND
     1    98    97    1
     2   104   105    1
     3   111   110    2
     4   105   106    1
     5    97    96   ar
     6    97    95   ar
     7   115   113   am
     8    96    94   ar
     9   114   113    2
    10   106   108   am
    11   106   107    2
    12   110   109    1
    13   108   109    1
    14   113   112    1
    15    95    93   ar
    16   102   101    2
    17   109   112    1
    18   101   100    1
    19    94    92   ar
    20    93    92   ar
    21    92    91    1
    22   100   103    1
    23   100    99    1
    24     4     3    2
    25    99    89   am
    26   147   146    1
    27   147   148    2
    28    91    88    1
    29   152   150    1
    30     3     2    1
    31    90    89    2
    32    89    88    1
    33   146   149    1
    34   146   145    1
    35    88    87    1
    36   149   150    1
    37   183   184   ar
    38   183   181   ar
    39   150   151    1
    40     2     1    1
    41     2     5    1
    42   184   182   ar
    43     6     5    1
    44     5     7    1
    45    12     9    1
    46     9     8    1
    47     9    10    1
    48    87    80   am
    49   181   179   ar
    50   182   180   ar
    51    10    11    2
    52    81    80    2
    53    80    79    1
    54   179   180   ar
    55   179   178    1
    56    69    67    1
    57   177   176    2
    58    86    84   ar
    59    73    72    2
    60    79    82    1
    61    79    78    1
    62   178   175    1
    63   176   175    1
    64    82    83    1
    65   165   162    1
    66    13    14    1
    67    84    83    1
    68    84    85   ar
    69    72    78   am
    70    72    71    1
    71    67    66    1
    72   175   174    1
    73    14    15    1
    74    14    17    1
    75   153   154    1
    76    15    16    2
    77    74    76    1
    78    74    71    1
    79    74    75    1
    80   174   168   am
    81    77    75    1
    82   161   162    1
    83   161   155   am
    84   154   155    1
    85   154   157    1
    86    66    63    1
    87    66    68    1
    88    71    70    1
    89    21    20    1
    90   162   163    1
    91   155   156    2
    92    18    17    1
    93    18    19    1
    94   163   164    2
    95   163   166   am
    96   158   157    1
    97   158   160    1
    98    63    62    1
    99    63    64    1
   100   166   167    1
   101   168   167    1
   102   168   169    2
   103   167   170    1
   104   157   159    1
   105    62    56   am
   106    20    19    1
   107    54    55    1
   108    56    57    2
   109    56    55    1
   110   172   171   ar
   111    64    65    2
   112    55    58    1
   113   143   144   ar
   114   143   141   ar
   115   170   171    1
   116   144   142   ar
   117   171   173   ar
   118    30    28   ar
   119   141   140   ar
   120   142   140   ar
   121    58    59    1
   122    58    60    1
   123    28    29   ar
   124    28    27    1
   125   140   139    1
   126    59    61    1
   127    45    43    1
   128    44    43    1
   129   139   136    1
   130    43    42    1
   131    27    26    1
   132   138   137    2
   133    42    39    1
   134   122   121    1
   135   137   136    1
   136    26    23    1
   137   136   135    1
   138   121   123    1
   139   121   120    1
   140    39    40    1
   141    39    38    1
   142    41    40    2
   143    49    48    2
   144    25    24    2
   145    23    24    1
   146    23    22    1
   147   120   117    1
   148    36    35    1
   149    38    33   am
   150   116   117    1
   151   132   134   ar
   152   132   130   ar
   153    48    47    1
   154    52    51    1
   155    33    34    2
   156    33    32    1
   157    50    47    1
   158    50    51    1
   159   117   118    1
   160    35    32    1
   161    35    37    1
   162   134   133   ar
   163   130   129   ar
   164    47    46    1
   165    51    53    1
   166    32    31    1
   167   118   119    2
   168   127   126    2
   169   133   131   ar
   170   129   131   ar
   171   129   128    1
   172   126   125    1
   173   128   125    1
   174   125   124    1
