@<TRIPOS>MOLECULE
tmp/4x3lA00.pdb
 124 117 0 0 0
SMALL
GASTEIGER

@<TRIPOS>ATOM
      1  N         15.1890    0.4500   15.1150 N.3   186  ALA186     -0.1231
      2  CA        14.9660    0.3430   13.6820 C.3   186  ALA186      0.1694
      3  C         15.6830   -0.8720   13.1340 C.2   186  ALA186      0.2593
      4  O         16.9080   -1.0070   13.2430 O.2   186  ALA186     -0.2718
      5  CB        15.4340    1.6200   12.9680 C.3   186  ALA186      0.0304
      6  N         14.9220   -1.7990   12.5680 N.am  187  THR187     -0.1940
      7  CA        15.5340   -3.0010   12.0160 C.3   187  THR187      0.2013
      8  C         14.6320   -3.5280   10.8990 C.2   187  THR187      0.2484
      9  O         13.4150   -3.4050   10.9820 O.2   187  THR187     -0.2729
     10  CB        15.7680   -4.0610   13.1270 C.3   187  THR187      0.1807
     11  OG1       16.5620   -5.1410   12.6210 O.3   187  THR187     -0.2208
     12  CG2       14.4520   -4.5840   13.6660 C.3   187  THR187      0.0379
     13  N         15.2370   -4.0640    9.8330 N.am  188  PRO188     -0.2726
     14  CA        14.5010   -4.4580    8.6320 C.3   188  PRO188      0.1402
     15  C         13.4120   -5.4910    8.9060 C.2   188  PRO188      0.2269
     16  O         12.4810   -5.5600    8.1060 O.2   188  PRO188     -0.2865
     17  CB        15.5920   -5.0370    7.7310 C.3   188  PRO188      0.0296
     18  CG        16.8330   -4.3510    8.1760 C.3   188  PRO188      0.0237
     19  CD        16.6910   -4.2150    9.6560 C.3   188  PRO188      0.0939
     20  N         19.7190    2.9070   15.9310 N.3   207  LEU207     -0.1231
     21  CA        20.1860    2.4680   14.6290 C.3   207  LEU207      0.1693
     22  C         21.5280    1.7840   14.7840 C.2   207  LEU207      0.2593
     23  O         22.4140    2.2770   15.4880 O.2   207  LEU207     -0.2718
     24  CB        20.3180    3.6420   13.6620 C.3   207  LEU207      0.0284
     25  CG        19.0610    4.1080   12.9420 C.3   207  LEU207      0.0019
     26  CD1       18.1670    4.8590   13.8950 C.3   207  LEU207      0.0001
     27  CD2       19.4500    4.9610   11.7520 C.3   207  LEU207      0.0001
     28  N         21.6790    0.6470   14.1230 N.am  208  GLY208     -0.1942
     29  CA        22.9570   -0.0400   14.1240 C.3   208  GLY208      0.2014
     30  C         23.8140    0.3390   12.9340 C.2   208  GLY208      0.2639
     31  O         23.4210    1.1590   12.1030 O.2   208  GLY208     -0.2714
     32  N         24.9950   -0.2640   12.8460 N.am  209  ALA209     -0.1963
     33  CA        25.8920   -0.0170   11.7210 C.3   209  ALA209      0.1728
     34  C         25.6490   -1.0320   10.6100 C.2   209  ALA209      0.2616
     35  O         24.9950   -2.0500   10.8320 O.2   209  ALA209     -0.2715
     36  CB        27.3400   -0.0610   12.1760 C.3   209  ALA209      0.0334
     37  N         26.1740   -0.7420    9.4220 N.am  210  GLU210     -0.1977
     38  CA        26.0350   -1.6150    8.2540 C.3   210  GLU210      0.1602
     39  C         26.4070   -3.0710    8.5320 C.2   210  GLU210      0.2287
     40  O         25.5800   -3.9750    8.4010 O.2   210  GLU210     -0.2864
     41  CB        26.9060   -1.1040    7.0990 C.3   210  GLU210      0.0415
     42  CG        26.2030   -0.2210    6.0780 C.3   210  GLU210      0.1163
     43  CD        26.0780    1.2280    6.5220 C.2   210  GLU210      0.3649
     44  OE1       26.6860    1.5980    7.5520 O.co2 210  GLU210     -0.2457
     45  OE2       25.3670    1.9950    5.8350 O.co2 210  GLU210     -0.2457
     46  N         24.4380   -4.3800   12.4330 N.3   213  GLY213     -0.1210
     47  CA        23.0620   -4.1910   12.8450 C.3   213  GLY213      0.1956
     48  C         23.0490   -3.9680   14.3430 C.2   213  GLY213      0.2611
     49  O         24.1050   -3.8820   14.9670 O.2   213  GLY213     -0.2717
     50  N         21.8600   -3.8770   14.9260 N.am  214  LEU214     -0.1979
     51  CA        21.7280   -3.6340   16.3560 C.3   214  LEU214      0.1596
     52  C         22.0370   -4.8680   17.1940 C.2   214  LEU214      0.2287
     53  O         21.5990   -5.9700   16.8630 O.2   214  LEU214     -0.2864
     54  CB        20.3150   -3.1550   16.6850 C.3   214  LEU214      0.0297
     55  CG        19.8920   -1.7330   16.3270 C.3   214  LEU214      0.0022
     56  CD1       18.4040   -1.5820   16.5720 C.3   214  LEU214      0.0001
     57  CD2       20.6620   -0.7190   17.1560 C.3   214  LEU214      0.0001
     58  N         10.8190   -1.3050   14.6770 N.3   226  VAL226     -0.1245
     59  CA        10.1240   -0.8800   13.4670 C.3   226  VAL226      0.1561
     60  C         10.9440   -1.1150   12.2140 C.2   226  VAL226      0.2260
     61  O         12.1700   -1.0360   12.2170 O.2   226  VAL226     -0.2867
     62  CB         9.7240    0.6230   13.5000 C.3   226  VAL226      0.0252
     63  CG1        8.7250    0.9200   14.6040 C.3   226  VAL226      0.0019
     64  CG2       10.9560    1.5200   13.6520 C.3   226  VAL226      0.0019
     65  N         11.4020   -0.2170    7.9710 N.3   228  ILE228     -0.1245
     66  CA        11.0680    0.5150    6.7630 C.3   228  ILE228      0.1561
     67  C         10.8310   -0.5240    5.6680 C.2   228  ILE228      0.2260
     68  O         11.6880   -1.3710    5.4110 O.2   228  ILE228     -0.2867
     69  CB        12.1810    1.4870    6.3820 C.3   228  ILE228      0.0252
     70  CG1       12.3860    2.4730    7.5460 C.3   228  ILE228      0.0019
     71  CG2       11.8420    2.2300    5.0790 C.3   228  ILE228      0.0019
     72  CD1       13.5390    3.4050    7.3730 C.3   228  ILE228      0.0001
     73  N         10.6740   -2.6920    2.3400 N.3   230  MET230     -0.1245
     74  CA        11.5440   -2.7860    1.1730 C.3   230  MET230      0.1570
     75  C         10.8310   -3.6020    0.1060 C.2   230  MET230      0.2261
     76  O         10.6250   -4.8070    0.2750 O.2   230  MET230     -0.2867
     77  CB        12.8770   -3.4360    1.5380 C.3   230  MET230      0.0387
     78  CG        13.5920   -2.7510    2.6650 C.3   230  MET230      0.0595
     79  SD        14.2130   -1.1790    2.0770 S.3   230  MET230     -0.1393
     80  CE        15.4130   -1.7100    0.8520 C.3   230  MET230      0.0692
     81  N         17.5850   -5.7750    0.7090 N.3   235  ASP235     -0.1225
     82  CA        17.1080   -6.1270    2.0380 C.3   235  ASP235      0.1805
     83  C         17.0990   -4.9420    2.9950 C.2   235  ASP235      0.2598
     84  O         16.3060   -4.8860    3.9340 O.2   235  ASP235     -0.2718
     85  CB        17.9850   -7.2370    2.6180 C.3   235  ASP235      0.1424
     86  CG        17.1890   -8.4550    3.0300 C.2   235  ASP235      0.3668
     87  OD1       16.0310   -8.5930    2.5800 O.co2 235  ASP235     -0.2456
     88  OD2       17.7260   -9.2800    3.8000 O.co2 235  ASP235     -0.2456
     89  N         18.0010   -4.0010    2.7580 N.am  236  SER236     -0.1938
     90  CA        18.2100   -2.9070    3.6940 C.3   236  SER236      0.2055
     91  C         18.5990   -1.6390    2.9620 C.2   236  SER236      0.2643
     92  O         19.0750   -1.6860    1.8360 O.2   236  SER236     -0.2714
     93  CB        19.2910   -3.2800    4.7090 C.3   236  SER236      0.2130
     94  OG        20.5280   -3.5050    4.0550 O.3   236  SER236     -0.2179
     95  N         18.3830   -0.4980    3.6080 N.am  237  LEU237     -0.1963
     96  CA        18.8350    0.7650    3.0710 C.3   237  LEU237      0.1728
     97  C         20.0870    1.1960    3.8180 C.2   237  LEU237      0.2616
     98  O         20.3980    0.6640    4.8810 O.2   237  LEU237     -0.2715
     99  CB        17.7530    1.8350    3.2070 C.3   237  LEU237      0.0311
    100  CG        16.4310    1.6010    2.4690 C.3   237  LEU237      0.0022
    101  CD1       15.3610    2.5350    3.0240 C.3   237  LEU237      0.0001
    102  CD2       16.6300    1.8160    0.9810 C.3   237  LEU237      0.0001
    103  N         20.7920    2.1680    3.2580 N.am  238  ASN238     -0.1958
    104  CA        21.9340    2.7630    3.9480 C.3   238  ASN238      0.1819
    105  C         21.4870    3.3580    5.2830 C.2   238  ASN238      0.2621
    106  O         20.3730    3.8700    5.3920 O.2   238  ASN238     -0.2715
    107  CB        22.5900    3.8280    3.0730 C.3   238  ASN238      0.1195
    108  CG        23.6810    4.5850    3.8060 C.2   238  ASN238      0.2630
    109  OD1       23.4070    5.5660    4.4990 O.2   238  ASN238     -0.2716
    110  ND2       24.9210    4.1210    3.6770 N.am  238  ASN238     -0.0877
    111  N         22.3500    3.2860    6.2970 N.am  239  VAL239     -0.1977
    112  CA        21.9600    3.6600    7.6580 C.3   239  VAL239      0.1596
    113  C         21.5820    5.1380    7.7480 C.2   239  VAL239      0.2287
    114  O         20.6880    5.5170    8.5080 O.2   239  VAL239     -0.2864
    115  CB        23.0830    3.3450    8.6810 C.3   239  VAL239      0.0276
    116  CG1       24.3230    4.1690    8.3970 C.3   239  VAL239      0.0022
    117  CG2       22.5920    3.5710   10.1070 C.3   239  VAL239      0.0022
    118  N         18.1140    5.5750    6.3100 N.3   242  THR242     -0.1218
    119  CA        17.1880    5.1030    7.3370 C.3   242  THR242      0.1862
    120  C         16.9900    6.1670    8.4110 C.2   242  THR242      0.2287
    121  O         15.8670    6.4600    8.8150 O.2   242  THR242     -0.2866
    122  CB        17.6950    3.8050    7.9770 C.3   242  THR242      0.1770
    123  OG1       17.8620    2.8160    6.9530 O.3   242  THR242     -0.2211
    124  CG2       16.7260    3.3260    9.0370 C.3   242  THR242      0.0375
@<TRIPOS>BOND
     1    75    76    2
     2    75    74    1
     3    81    82    1
     4    80    79    1
     5   102   100    1
     6    74    77    1
     7    74    73    1
     8    77    78    1
     9    92    91    2
    10    82    85    1
    11    82    83    1
    12    79    78    1
    13   100   101    1
    14   100    99    1
    15    87    86   ar
    16    85    86    1
    17    89    83   am
    18    89    90    1
    19    91    95   am
    20    91    90    1
    21    83    84    2
    22    86    88   ar
    23    96    99    1
    24    96    95    1
    25    96    97    1
    26   107   108    1
    27   107   104    1
    28   103    97   am
    29   103   104    1
    30   110   108   am
    31    90    93    1
    32   108   109    2
    33    97    98    2
    34   104   105    1
    35    94    93    1
    36    71    69    1
    37   105   106    2
    38   105   111   am
    39    68    67    2
    40    67    66    1
    41    45    43   ar
    42    42    43    1
    43    42    41    1
    44   111   112    1
    45   118   119    1
    46    69    66    1
    47    69    70    1
    48    43    44   ar
    49    66    65    1
    50   123   122    1
    51    41    38    1
    52   119   122    1
    53   119   120    1
    54    72    70    1
    55   112   113    1
    56   112   115    1
    57    17    18    1
    58    17    14    1
    59   113   114    2
    60   122   124    1
    61    16    15    2
    62    18    19    1
    63    38    39    1
    64    38    37    1
    65   116   115    1
    66    40    39    2
    67   120   121    2
    68    14    15    1
    69    14    13    1
    70   115   117    1
    71    37    34   am
    72    19    13    1
    73    13     8   am
    74    34    35    2
    75    34    33    1
    76     8     9    2
    77     8     7    1
    78    33    36    1
    79    33    32    1
    80    27    25    1
    81     7     6    1
    82     7    10    1
    83    31    30    2
    84    60    61    2
    85    60    59    1
    86    46    47    1
    87     6     3   am
    88    11    10    1
    89    47    48    1
    90    32    30   am
    91    30    29    1
    92    25    24    1
    93    25    26    1
    94     5     2    1
    95    10    12    1
    96     3     4    2
    97     3     2    1
    98    59    62    1
    99    59    58    1
   100    62    64    1
   101    62    63    1
   102    24    21    1
   103     2     1    1
   104    28    29    1
   105    28    22   am
   106    48    50   am
   107    48    49    2
   108    21    22    1
   109    21    20    1
   110    22    23    2
   111    50    51    1
   112    55    56    1
   113    55    54    1
   114    55    57    1
   115    51    54    1
   116    51    52    1
   117    53    52    2
