@<TRIPOS>MOLECULE
tmp/4x3mB00.pdb
 135 128 0 0 0
SMALL
GASTEIGER

@<TRIPOS>ATOM
      1  N         -5.4460   -3.0420  -22.0320 N.3   186  ALA186     -0.1231
      2  CA        -4.7570   -3.4610  -20.8210 C.3   186  ALA186      0.1694
      3  C         -5.1710   -2.5520  -19.6800 C.2   186  ALA186      0.2593
      4  O         -5.1220   -1.3350  -19.8080 O.2   186  ALA186     -0.2718
      5  CB        -3.2560   -3.4170  -21.0120 C.3   186  ALA186      0.0304
      6  N         -5.5750   -3.1450  -18.5660 N.am  187  THR187     -0.1940
      7  CA        -5.9130   -2.3790  -17.3700 C.3   187  THR187      0.2013
      8  C         -5.9290   -3.3140  -16.1740 C.2   187  THR187      0.2484
      9  O         -6.3600   -4.4600  -16.2930 O.2   187  THR187     -0.2729
     10  CB        -7.2840   -1.6650  -17.5000 C.3   187  THR187      0.1807
     11  OG1       -7.7800   -1.3450  -16.1940 O.3   187  THR187     -0.2208
     12  CG2       -8.3040   -2.5600  -18.2040 C.3   187  THR187      0.0379
     13  N         -5.4520   -2.8360  -15.0140 N.am  188  PRO188     -0.2726
     14  CA        -5.4230   -3.7140  -13.8400 C.3   188  PRO188      0.1402
     15  C         -6.8290   -4.1390  -13.4290 C.2   188  PRO188      0.2269
     16  O         -6.9770   -5.1210  -12.7130 O.2   188  PRO188     -0.2865
     17  CB        -4.7640   -2.8430  -12.7620 C.3   188  PRO188      0.0296
     18  CG        -4.0110   -1.7990  -13.5300 C.3   188  PRO188      0.0237
     19  CD        -4.8500   -1.5230  -14.7370 C.3   188  PRO188      0.0939
     20  N         -2.7980    0.6000  -24.4050 N.3   207  LEU207     -0.1231
     21  CA        -2.0580    0.8130  -23.1640 C.3   207  LEU207      0.1693
     22  C         -1.9370    2.3000  -22.8700 C.2   207  LEU207      0.2593
     23  O         -1.4250    3.0560  -23.6920 O.2   207  LEU207     -0.2718
     24  CB        -0.6630    0.1850  -23.2590 C.3   207  LEU207      0.0284
     25  CG         0.2430    0.2970  -22.0360 C.3   207  LEU207      0.0019
     26  CD1       -0.3670   -0.4730  -20.8760 C.3   207  LEU207      0.0001
     27  CD2        1.6280   -0.2500  -22.3710 C.3   207  LEU207      0.0001
     28  N         -2.4080    2.7270  -21.7030 N.am  208  GLY208     -0.1942
     29  CA        -2.3000    4.1290  -21.3370 C.3   208  GLY208      0.2014
     30  C         -0.9210    4.5040  -20.8180 C.2   208  GLY208      0.2639
     31  O         -0.2550    3.7050  -20.1520 O.2   208  GLY208     -0.2714
     32  N         -0.4900    5.7220  -21.1220 N.am  209  ALA209     -0.1963
     33  CA         0.7600    6.2530  -20.5880 C.3   209  ALA209      0.1728
     34  C          0.7030    6.3400  -19.0580 C.2   209  ALA209      0.2616
     35  O         -0.3770    6.4400  -18.4730 O.2   209  ALA209     -0.2715
     36  CB         1.0560    7.6160  -21.1930 C.3   209  ALA209      0.0334
     37  N          1.8700    6.3140  -18.4240 N.am  210  GLU210     -0.1977
     38  CA         1.9890    6.1880  -16.9670 C.3   210  GLU210      0.1602
     39  C          1.0810    7.0970  -16.1410 C.2   210  GLU210      0.2287
     40  O          0.4100    6.6340  -15.2180 O.2   210  GLU210     -0.2864
     41  CB         3.4390    6.4360  -16.5450 C.3   210  GLU210      0.0415
     42  CG         3.6210    6.6020  -15.0480 C.3   210  GLU210      0.1163
     43  CD         5.0800    6.6430  -14.6420 C.2   210  GLU210      0.3649
     44  OE1        5.5760    7.7410  -14.3070 O.co2 210  GLU210     -0.2457
     45  OE2        5.7320    5.5800  -14.6610 O.co2 210  GLU210     -0.2457
     46  N         -3.0550    6.9450  -17.8650 N.3   213  GLY213     -0.1210
     47  CA        -3.8250    5.7190  -17.7660 C.3   213  GLY213      0.1956
     48  C         -4.6910    5.5170  -18.9960 C.2   213  GLY213      0.2611
     49  O         -4.7010    6.3380  -19.9080 O.2   213  GLY213     -0.2717
     50  N         -5.4210    4.4120  -19.0260 N.am  214  LEU214     -0.1979
     51  CA        -6.2730    4.1060  -20.1670 C.3   214  LEU214      0.1596
     52  C         -7.5350    4.9670  -20.1580 C.2   214  LEU214      0.2287
     53  O         -8.2680    4.9650  -19.1820 O.2   214  LEU214     -0.2864
     54  CB        -6.6500    2.6300  -20.1550 C.3   214  LEU214      0.0297
     55  CG        -7.4810    2.1550  -21.3430 C.3   214  LEU214      0.0022
     56  CD1       -6.6740    2.2520  -22.6200 C.3   214  LEU214      0.0001
     57  CD2       -7.9600    0.7370  -21.1040 C.3   214  LEU214      0.0001
     58  N         -8.0590   -6.7940  -20.4510 N.3   226  VAL226     -0.1231
     59  CA        -7.2470   -7.7910  -19.7810 C.3   226  VAL226      0.1692
     60  C         -6.3800   -7.1700  -18.7060 C.2   226  VAL226      0.2592
     61  O         -5.9590   -6.0160  -18.8150 O.2   226  VAL226     -0.2718
     62  CB        -6.3380   -8.5580  -20.7750 C.3   226  VAL226      0.0266
     63  CG1       -7.1820   -9.2670  -21.8170 C.3   226  VAL226      0.0020
     64  CG2       -5.3360   -7.6210  -21.4430 C.3   226  VAL226      0.0020
     65  N         -6.1300   -7.9370  -17.6540 N.am  227  ARG227     -0.1966
     66  CA        -5.2460   -7.4930  -16.5920 C.3   227  ARG227      0.1729
     67  C         -4.0470   -8.4040  -16.5160 C.2   227  ARG227      0.2616
     68  O         -4.1290   -9.5840  -16.8400 O.2   227  ARG227     -0.2715
     69  CB        -5.9710   -7.4760  -15.2420 C.3   227  ARG227      0.0348
     70  CG        -6.2800   -8.8630  -14.6920 C.3   227  ARG227      0.0492
     71  CD        -7.1630   -8.7990  -13.4390 C.3   227  ARG227      0.2205
     72  NE        -7.3350  -10.1290  -12.8530 N.pl3 227  ARG227     -0.0865
     73  CZ        -8.2800  -10.9920  -13.2190 C.cat 227  ARG227      0.5346
     74  NH1       -9.1590  -10.6650  -14.1620 N.pl3 227  ARG227      0.1354
     75  NH2       -8.3490  -12.1850  -12.6380 N.pl3 227  ARG227      0.1354
     76  N         -2.9230   -7.8500  -16.0960 N.am  228  ILE228     -0.1977
     77  CA        -1.8110   -8.6690  -15.6550 C.3   228  ILE228      0.1596
     78  C         -2.0260   -8.8670  -14.1620 C.2   228  ILE228      0.2287
     79  O         -2.2700   -7.8970  -13.4410 O.2   228  ILE228     -0.2864
     80  CB        -0.4640   -7.9980  -15.9690 C.3   228  ILE228      0.0276
     81  CG1       -0.2810   -7.9260  -17.4920 C.3   228  ILE228      0.0022
     82  CG2        0.7000   -8.7640  -15.3230 C.3   228  ILE228      0.0022
     83  CD1        0.7200   -6.8960  -17.9320 C.3   228  ILE228      0.0001
     84  N         -1.8430   -9.1600  -10.2530 N.3   230  MET230     -0.1245
     85  CA        -0.9960   -8.6050   -9.2060 C.3   230  MET230      0.1570
     86  C         -1.1910   -9.4350   -7.9410 C.2   230  MET230      0.2261
     87  O         -2.3030   -9.5150   -7.4140 O.2   230  MET230     -0.2867
     88  CB        -1.3350   -7.1340   -8.9470 C.3   230  MET230      0.0387
     89  CG        -1.2470   -6.2410  -10.1810 C.3   230  MET230      0.0595
     90  SD         0.4300   -6.1540  -10.8530 S.3   230  MET230     -0.1393
     91  CE         1.2960   -5.2750   -9.5500 C.3   230  MET230      0.0692
     92  N         -0.0600   -1.9760   -9.2830 N.3   236  SER236     -0.1202
     93  CA         0.1780   -1.8990  -10.7220 C.3   236  SER236      0.2020
     94  C          1.6560   -2.0120  -11.0680 C.2   236  SER236      0.2619
     95  O          2.5300   -1.8330  -10.2120 O.2   236  SER236     -0.2717
     96  CB        -0.3720   -0.5890  -11.2790 C.3   236  SER236      0.2103
     97  OG         0.4490    0.4890  -10.8730 O.3   236  SER236     -0.2182
     98  N          1.9310   -2.3040  -12.3320 N.am  237  LEU237     -0.1965
     99  CA         3.3060   -2.4180  -12.8120 C.3   237  LEU237      0.1728
    100  C          3.6970   -1.1530  -13.5560 C.2   237  LEU237      0.2616
    101  O          2.8340   -0.3740  -13.9520 O.2   237  LEU237     -0.2715
    102  CB         3.4570   -3.6400  -13.7300 C.3   237  LEU237      0.0311
    103  CG         3.1570   -5.0030  -13.1040 C.3   237  LEU237      0.0022
    104  CD1        2.9730   -6.0610  -14.1810 C.3   237  LEU237      0.0001
    105  CD2        4.2860   -5.3910  -12.1580 C.3   237  LEU237      0.0001
    106  N          4.9980   -0.9470  -13.7350 N.am  238  ASN238     -0.1958
    107  CA         5.4790    0.1320  -14.5830 C.3   238  ASN238      0.1819
    108  C          4.9820   -0.0650  -16.0130 C.2   238  ASN238      0.2621
    109  O          4.8210   -1.1900  -16.4640 O.2   238  ASN238     -0.2715
    110  CB         7.0020    0.2120  -14.5550 C.3   238  ASN238      0.1195
    111  CG         7.5480    1.1580  -15.6140 C.2   238  ASN238      0.2630
    112  OD1        7.9740    0.7230  -16.6800 O.2   238  ASN238     -0.2716
    113  ND2        7.4990    2.4600  -15.3370 N.am  238  ASN238     -0.0877
    114  N          4.7300    1.0320  -16.7190 N.am  239  VAL239     -0.1977
    115  CA         4.0920    0.9620  -18.0330 C.3   239  VAL239      0.1596
    116  C          4.9320    0.1750  -19.0510 C.2   239  VAL239      0.2287
    117  O          4.3840   -0.5440  -19.8990 O.2   239  VAL239     -0.2864
    118  CB         3.7780    2.3910  -18.5720 C.3   239  VAL239      0.0276
    119  CG1        5.0530    3.2190  -18.7680 C.3   239  VAL239      0.0022
    120  CG2        2.9610    2.3150  -19.8620 C.3   239  VAL239      0.0022
    121  N          4.6930   -3.5010  -18.2770 N.3   242  THR242     -0.1218
    122  CA         3.3780   -3.9250  -18.7720 C.3   242  THR242      0.1862
    123  C          3.4050   -4.1550  -20.2800 C.2   242  THR242      0.2287
    124  O          2.9260   -5.1790  -20.7770 O.2   242  THR242     -0.2866
    125  CB         2.2860   -2.8900  -18.4410 C.3   242  THR242      0.1770
    126  OG1        2.1740   -2.7570  -17.0150 O.3   242  THR242     -0.2211
    127  CG2        0.9290   -3.3320  -19.0100 C.3   242  THR242      0.0375
    128  N          2.7800   -7.8740  -22.2230 N.3   246  LEU246     -0.1245
    129  CA         1.7200   -8.0360  -23.2100 C.3   246  LEU246      0.1561
    130  C          2.2750   -8.5150  -24.5490 C.2   246  LEU246      0.2260
    131  O          1.7590   -9.4600  -25.1530 O.2   246  LEU246     -0.2867
    132  CB         0.9670   -6.7150  -23.4090 C.3   246  LEU246      0.0270
    133  CG         0.1850   -6.1590  -22.2190 C.3   246  LEU246      0.0019
    134  CD1       -0.2990   -4.7440  -22.5390 C.3   246  LEU246      0.0001
    135  CD2       -1.0030   -7.0780  -21.8700 C.3   246  LEU246      0.0001
@<TRIPOS>BOND
     1   131   130    2
     2   130   129    1
     3    20    21    1
     4    23    22    2
     5   132   129    1
     6   132   133    1
     7    24    21    1
     8    24    25    1
     9   129   128    1
    10    21    22    1
    11    22    28   am
    12    56    55    1
    13   134   133    1
    14    27    25    1
    15   133   135    1
    16    25    26    1
    17     1     2    1
    18    63    62    1
    19    28    29    1
    20    64    62    1
    21    55    57    1
    22    55    54    1
    23    29    30    1
    24    36    33    1
    25    32    30   am
    26    32    33    1
    27     5     2    1
    28     2     3    1
    29    30    31    2
    30   124   123    2
    31    62    59    1
    32    33    34    1
    33    58    59    1
    34   123   122    1
    35    51    52    1
    36    51    54    1
    37    51    50    1
    38    52    53    2
    39    49    48    2
    40   117   116    2
    41   120   118    1
    42     4     3    2
    43    59    60    1
    44     3     6   am
    45    34    35    2
    46    34    37   am
    47   116   115    1
    48    50    48   am
    49   127   125    1
    50    48    47    1
    51    61    60    2
    52   122   125    1
    53   122   121    1
    54   119   118    1
    55    60    65   am
    56   118   115    1
    57     6     7    1
    58   125   126    1
    59    37    38    1
    60    12    10    1
    61   115   114    1
    62    83    81    1
    63    46    47    1
    64    65    66    1
    65    10     7    1
    66    10    11    1
    67    81    80    1
    68     7     8    1
    69    38    41    1
    70    38    39    1
    71    68    67    2
    72   114   108   am
    73   112   111    2
    74    66    67    1
    75    66    69    1
    76    41    42    1
    77    67    76   am
    78   109   108    2
    79     9     8    2
    80     8    13   am
    81    39    40    2
    82    76    77    1
    83   108   107    1
    84    80    77    1
    85    80    82    1
    86    77    78    1
    87   111   113   am
    88   111   110    1
    89    69    70    1
    90    42    43    1
    91    13    19    1
    92    13    14    1
    93    19    18    1
    94    70    71    1
    95    45    43   ar
    96    43    44   ar
    97   107   110    1
    98   107   106    1
    99   104   103    1
   100    78    79    2
   101    74    73    1
   102   101   100    2
   103    14    15    1
   104    14    17    1
   105   106   100   am
   106   102   103    1
   107   102    99    1
   108   100    99    1
   109    18    17    1
   110    71    72    1
   111    15    16    2
   112    73    72    2
   113    73    75    1
   114   103   105    1
   115    99    98    1
   116    98    94   am
   117    96    97    1
   118    96    93    1
   119    94    93    1
   120    94    95    2
   121    90    89    1
   122    90    91    1
   123    93    92    1
   124    84    85    1
   125    89    88    1
   126    85    88    1
   127    85    86    1
   128    86    87    2
