@<TRIPOS>MOLECULE
tmp/4x3rA07.pdb
 160 152 0 0 0
SMALL
GASTEIGER

@<TRIPOS>ATOM
      1  N         21.6550   14.8990   43.6620 N.3   155  PHE155     -0.1227
      2  CA        20.4890   15.7670   43.6610 C.3   155  PHE155      0.1736
      3  C         20.1500   16.2260   45.0760 C.2   155  PHE155      0.2595
      4  O         20.1110   15.4110   46.0310 O.2   155  PHE155     -0.2718
      5  CB        19.2930   15.0450   43.0640 C.3   155  PHE155      0.0547
      6  CG        17.9840   15.8380   43.0900 C.ar  155  PHE155     -0.0202
      7  CD1       17.8580   17.0290   42.4550 C.ar  155  PHE155     -0.0042
      8  CD2       16.8300   15.2730   43.7010 C.ar  155  PHE155     -0.0042
      9  CE1       16.6530   17.7370   42.4200 C.ar  155  PHE155     -0.0003
     10  CE2       15.6320   15.9990   43.7160 C.ar  155  PHE155     -0.0003
     11  CZ        15.5610   17.2490   43.1100 C.ar  155  PHE155     -0.0000
     12  N         19.8810   17.5270   45.2010 N.am  156  ARG156     -0.1980
     13  CA        19.6200   18.0920   46.5250 C.3   156  ARG156      0.1597
     14  C         18.3950   17.5550   47.2750 C.2   156  ARG156      0.2287
     15  O         18.3670   17.5210   48.5130 O.2   156  ARG156     -0.2864
     16  CB        19.5630   19.6240   46.4120 C.3   156  ARG156      0.0334
     17  CG        18.2990   20.1870   45.6890 C.3   156  ARG156      0.0492
     18  CD        18.3490   21.7220   45.4580 C.3   156  ARG156      0.2205
     19  NE        19.1340   22.1460   44.2810 N.pl3 156  ARG156     -0.0865
     20  CZ        18.7440   21.9180   43.0450 C.cat 156  ARG156      0.5346
     21  NH1       17.6180   21.3160   42.8630 N.pl3 156  ARG156      0.1354
     22  NH2       19.4440   22.3080   41.9970 N.pl3 156  ARG156      0.1354
     23  N         16.9810   25.9150   43.8770 N.3   202  GLY202     -0.1210
     24  CA        16.4810   24.6150   43.4110 C.3   202  GLY202      0.1956
     25  C         15.4980   23.9060   44.3310 C.2   202  GLY202      0.2611
     26  O         15.5230   24.0660   45.5600 O.2   202  GLY202     -0.2717
     27  N         14.5940   23.1150   43.7270 N.am  203  ASN203     -0.1974
     28  CA        13.6050   22.4420   44.5340 C.3   203  ASN203      0.1688
     29  C         14.2270   21.2710   45.2450 C.2   203  ASN203      0.2292
     30  O         15.2930   20.7720   44.8380 O.2   203  ASN203     -0.2864
     31  CB        12.3930   21.9920   43.6940 C.3   203  ASN203      0.1181
     32  CG        12.5990   20.6310   42.9670 C.2   203  ASN203      0.2629
     33  OD1       12.5650   19.5510   43.5800 O.2   203  ASN203     -0.2716
     34  ND2       12.7360   20.6670   41.6380 N.am  203  ASN203     -0.0877
     35  N          9.8310   13.4830   44.3880 N.3   207  LEU207     -0.1245
     36  CA         8.6180   13.1170   43.7250 C.3   207  LEU207      0.1561
     37  C          8.6400   11.6700   43.1710 C.2   207  LEU207      0.2260
     38  O          7.5630   11.1270   42.9050 O.2   207  LEU207     -0.2867
     39  CB         8.4110   14.0460   42.5470 C.3   207  LEU207      0.0270
     40  CG         8.0390   15.4970   42.9240 C.3   207  LEU207      0.0019
     41  CD1        7.8810   16.3300   41.6530 C.3   207  LEU207      0.0001
     42  CD2        6.7280   15.4790   43.6710 C.3   207  LEU207      0.0001
     43  N         11.5120   23.4760   36.7420 N.3   371  GLU371     -0.1245
     44  CA        12.3300   23.7500   37.9110 C.3   371  GLU371      0.1567
     45  C         11.7040   23.3600   39.2150 C.2   371  GLU371      0.2260
     46  O         12.4060   23.1890   40.2120 O.2   371  GLU371     -0.2867
     47  CB        12.8380   25.2060   37.9430 C.3   371  GLU371      0.0388
     48  CG        13.7800   25.6250   36.7790 C.3   371  GLU371      0.1160
     49  CD        15.1710   24.9740   36.7660 C.2   371  GLU371      0.3649
     50  OE1       15.4530   23.9990   37.5560 O.co2 371  GLU371     -0.2457
     51  OE2       15.9520   25.3380   35.8890 O.co2 371  GLU371     -0.2457
     52  N          9.9080   20.5670   39.5870 N.3   373  GLY373     -0.1210
     53  CA         9.7010   19.1140   39.6710 C.3   373  GLY373      0.1956
     54  C          9.2280   18.4560   38.4010 C.2   373  GLY373      0.2611
     55  O          8.4900   17.4630   38.4460 O.2   373  GLY373     -0.2717
     56  N          9.6020   18.9920   37.2550 N.am  374  LEU374     -0.1979
     57  CA         9.2070   18.4200   36.0040 C.3   374  LEU374      0.1596
     58  C          7.7080   18.4340   35.8470 C.2   374  LEU374      0.2287
     59  O          7.1000   17.5480   35.2440 O.2   374  LEU374     -0.2864
     60  CB         9.7470   16.9700   35.8570 C.3   374  LEU374      0.0297
     61  CG        11.1380   16.6470   36.3950 C.3   374  LEU374      0.0022
     62  CD1       11.5290   15.1640   36.3260 C.3   374  LEU374      0.0001
     63  CD2       12.2190   17.4580   35.7310 C.3   374  LEU374      0.0001
     64  N         16.9610   20.7500   27.1780 N.3   399  ASP399     -0.1225
     65  CA        17.3230   21.7260   28.1420 C.3   399  ASP399      0.1805
     66  C         18.6950   22.2810   27.6690 C.2   399  ASP399      0.2598
     67  O         18.9960   22.2270   26.4740 O.2   399  ASP399     -0.2718
     68  CB        17.3240   21.1200   29.5540 C.3   399  ASP399      0.1424
     69  CG        17.1940   22.1260   30.6680 C.2   399  ASP399      0.3668
     70  OD1       17.2090   23.3390   30.3720 O.co2 399  ASP399     -0.2456
     71  OD2       17.1430   21.7130   31.8830 O.co2 399  ASP399     -0.2456
     72  N         19.4700   22.8360   28.6170 N.am  400  SER400     -0.1952
     73  CA        20.7060   23.5030   28.3610 C.3   400  SER400      0.1924
     74  C         21.5650   22.8610   27.2500 C.2   400  SER400      0.2314
     75  O         21.8400   21.6630   27.2740 O.2   400  SER400     -0.2863
     76  CB        21.5130   23.6280   29.6460 C.3   400  SER400      0.2116
     77  OG        20.7230   23.9820   30.7560 O.3   400  SER400     -0.2180
     78  N         17.8890   11.1490   35.7340 N.3   463  SER463     -0.1202
     79  CA        16.7160   11.9690   35.7410 C.3   463  SER463      0.2020
     80  C         17.0700   13.4170   36.1690 C.2   463  SER463      0.2619
     81  O         18.2040   13.8900   35.9460 O.2   463  SER463     -0.2717
     82  CB        15.6350   11.3300   36.5890 C.3   463  SER463      0.2103
     83  OG        14.4290   12.0510   36.5110 O.3   463  SER463     -0.2182
     84  N         16.0500   14.1390   36.6660 N.am  464  GLY464     -0.1942
     85  CA        16.2230   15.5230   36.9270 C.3   464  GLY464      0.2014
     86  C         16.0460   16.3540   35.6620 C.2   464  GLY464      0.2638
     87  O         16.5020   17.5020   35.5770 O.2   464  GLY464     -0.2714
     88  N         15.3010   15.8090   34.6960 N.am  465  ASN465     -0.1972
     89  CA        14.8500   16.5770   33.5490 C.3   465  ASN465      0.1688
     90  C         13.6040   15.9810   32.8850 C.2   465  ASN465      0.2292
     91  O         13.1550   14.9200   33.2660 O.2   465  ASN465     -0.2864
     92  CB        15.9950   16.8020   32.5710 C.3   465  ASN465      0.1181
     93  CG        15.9810   18.2620   32.0200 C.2   465  ASN465      0.2629
     94  OD1       15.0490   18.6780   31.3100 O.2   465  ASN465     -0.2716
     95  ND2       16.9500   19.0320   32.4110 N.am  465  ASN465     -0.0877
     96  N         19.1350   12.7350   25.0240 N.3   480  ARG480     -0.1245
     97  CA        19.5490   14.1160   25.2210 C.3   480  ARG480      0.1563
     98  C         21.0320   14.2670   24.7840 C.2   480  ARG480      0.2260
     99  O         21.7890   13.2940   24.7210 O.2   480  ARG480     -0.2867
    100  CB        19.3530   14.4400   26.6930 C.3   480  ARG480      0.0307
    101  CG        20.3720   13.8230   27.6330 C.3   480  ARG480      0.0489
    102  CD        19.9810   13.9340   29.0950 C.3   480  ARG480      0.2205
    103  NE        19.8210   15.3290   29.5180 N.pl3 480  ARG480     -0.0865
    104  CZ        19.7670   15.7140   30.7980 C.cat 480  ARG480      0.5346
    105  NH1       19.5600   17.0040   31.0840 N.pl3 480  ARG480      0.1354
    106  NH2       19.8880   14.8260   31.8130 N.pl3 480  ARG480      0.1354
    107  N         24.2450   17.5910   24.6520 N.3   482  ARG482     -0.1245
    108  CA        24.6990   18.9510   24.9200 C.3   482  ARG482      0.1563
    109  C         26.1850   18.9650   24.8610 C.2   482  ARG482      0.2260
    110  O         26.8170   17.8970   24.8440 O.2   482  ARG482     -0.2867
    111  CB        24.1890   19.4310   26.2830 C.3   482  ARG482      0.0307
    112  CG        24.7780   18.7610   27.5210 C.3   482  ARG482      0.0489
    113  CD        24.4320   19.5430   28.8080 C.3   482  ARG482      0.2205
    114  NE        22.9870   19.7000   28.9690 N.pl3 482  ARG482     -0.0865
    115  CZ        22.3710   19.7760   30.1510 C.cat 482  ARG482      0.5346
    116  NH1       23.0370   19.6550   31.3230 N.pl3 482  ARG482      0.1354
    117  NH2       21.0810   19.9380   30.1810 N.pl3 482  ARG482      0.1354
    118  N         28.1080   23.1760   36.1620 N.3   492  TYR492     -0.1241
    119  CA        28.8040   24.4620   35.9140 C.3   492  TYR492      0.1605
    120  C         28.6590   25.4100   37.1520 C.2   492  TYR492      0.2264
    121  O         27.6620   25.3480   37.8690 O.2   492  TYR492     -0.2867
    122  CB        28.3600   25.0510   34.5780 C.3   492  TYR492      0.0534
    123  CG        26.8810   25.3690   34.4700 C.ar  492  TYR492     -0.0201
    124  CD1       25.9330   24.3810   34.1130 C.ar  492  TYR492     -0.0009
    125  CD2       26.4020   26.6440   34.7450 C.ar  492  TYR492     -0.0009
    126  CE1       24.6020   24.6670   34.0330 C.ar  492  TYR492      0.0417
    127  CE2       25.0500   26.9020   34.6770 C.ar  492  TYR492      0.0417
    128  CZ        24.1420   25.9290   34.3250 C.ar  492  TYR492      0.1957
    129  OH        22.7690   26.1360   34.2600 O.3   492  TYR492     -0.2866
    130  N         21.8920   27.8440   38.3240 N.3   496  HIS496     -0.1241
    131  CA        20.7100   28.2820   39.1320 C.3   496  HIS496      0.1621
    132  C         20.9510   29.5390   40.0120 C.2   496  HIS496      0.2264
    133  O         20.2350   29.7970   40.9870 O.2   496  HIS496     -0.2867
    134  CB        20.1880   27.1490   40.0090 C.3   496  HIS496      0.0745
    135  CG        19.4480   26.0400   39.2730 C.ar  496  HIS496      0.0817
    136  ND1       18.8480   25.0030   39.9380 N.ar  496  HIS496     -0.2268
    137  CD2       19.2290   25.8050   37.9580 C.ar  496  HIS496      0.1154
    138  CE1       18.2200   24.2090   39.0760 C.ar  496  HIS496      0.1986
    139  NE2       18.4420   24.6730   37.8690 N.ar  496  HIS496     -0.2212
    140  N         18.9180   11.2480   42.1560 N.3   639  LYS639     -0.1231
    141  CA        17.9850   11.3740   41.0190 C.3   639  LYS639      0.1693
    142  C         18.6810   11.7550   39.7180 C.2   639  LYS639      0.2592
    143  O         18.2060   11.3650   38.6470 O.2   639  LYS639     -0.2718
    144  CB        16.9410   12.4510   41.3760 C.3   639  LYS639      0.0285
    145  CG        15.8460   12.5490   40.3520 C.3   639  LYS639      0.0035
    146  CD        14.8280   13.5600   40.8300 C.3   639  LYS639      0.0206
    147  CE        13.4940   13.4060   40.1110 C.3   639  LYS639      0.1093
    148  NZ        12.5500   14.5350   40.3950 N.3   639  LYS639     -0.1314
    149  N         19.8480   12.3830   39.7730 N.am  640  TYR640     -0.1976
    150  CA        20.5370   12.6910   38.5130 C.3   640  TYR640      0.1639
    151  C         21.1440   11.5000   37.8390 C.2   640  TYR640      0.2290
    152  O         21.4610   11.5960   36.6560 O.2   640  TYR640     -0.2864
    153  CB        21.6330   13.7270   38.7130 C.3   640  TYR640      0.0560
    154  CG        21.1550   15.1200   39.2540 C.ar  640  TYR640     -0.0198
    155  CD1       20.0650   15.7850   38.6580 C.ar  640  TYR640     -0.0009
    156  CD2       21.9060   15.8070   40.1790 C.ar  640  TYR640     -0.0009
    157  CE1       19.6630   17.0360   39.0530 C.ar  640  TYR640      0.0417
    158  CE2       21.5260   17.0830   40.6090 C.ar  640  TYR640      0.0417
    159  CZ        20.4010   17.7110   40.0060 C.ar  640  TYR640      0.1957
    160  OH        20.0170   18.9610   40.4420 O.3   640  TYR640     -0.2866
@<TRIPOS>BOND
     1   107   108    1
     2    99    98    2
     3    98    97    1
     4   110   109    2
     5   109   108    1
     6   108   111    1
     7    96    97    1
     8    97   100    1
     9   111   112    1
    10    67    66    2
    11   100   101    1
    12    64    65    1
    13    74    75    2
    14    74    73    1
    15   112   113    1
    16   101   102    1
    17    66    65    1
    18    66    72   am
    19    65    68    1
    20    73    72    1
    21    73    76    1
    22   113   114    1
    23   114   115    2
    24   102   103    1
    25   103   104    2
    26    68    69    1
    27    76    77    1
    28   115   117    1
    29   115   116    1
    30    70    69   ar
    31    69    71   ar
    32   104   105    1
    33   104   106    1
    34    94    93    2
    35    93    95   am
    36    93    92    1
    37    92    89    1
    38    90    91    2
    39    90    89    1
    40    89    88    1
    41   126   124   ar
    42   126   128   ar
    43   124   123   ar
    44   129   128    1
    45   128   127   ar
    46   123   122    1
    47   123   125   ar
    48   122   119    1
    49   127   125   ar
    50    88    86   am
    51    59    58    2
    52    87    86    2
    53    86    85    1
    54    63    61    1
    55    78    79    1
    56    79    80    1
    57    79    82    1
    58    58    57    1
    59    60    57    1
    60    60    61    1
    61    51    49   ar
    62   119   118    1
    63   119   120    1
    64    81    80    2
    65    57    56    1
    66    80    84   am
    67    62    61    1
    68    83    82    1
    69   152   151    2
    70    84    85    1
    71    43    44    1
    72    49    48    1
    73    49    50   ar
    74    48    47    1
    75   120   121    2
    76    56    54   am
    77   151   150    1
    78   139   137   ar
    79   139   138   ar
    80    44    47    1
    81    44    45    1
    82   137   135   ar
    83   130   131    1
    84    54    55    2
    85    54    53    1
    86   150   153    1
    87   150   149    1
    88   143   142    2
    89   155   157   ar
    90   155   154   ar
    91   153   154    1
    92   157   159   ar
    93   138   136   ar
    94   131   134    1
    95   131   132    1
    96    45    46    2
    97   154   156   ar
    98   135   136   ar
    99   135   134    1
   100    52    53    1
   101   142   149   am
   102   142   141    1
   103   159   160    1
   104   159   158   ar
   105   132   133    2
   106   147   148    1
   107   147   146    1
   108   156   158   ar
   109   145   146    1
   110   145   144    1
   111   141   144    1
   112   141   140    1
   113    34    32   am
   114    41    40    1
   115    22    20    1
   116     9     7   ar
   117     9    11   ar
   118     7     6   ar
   119    39    40    1
   120    39    36    1
   121    21    20    1
   122    38    37    2
   123    40    42    1
   124    32    33    2
   125    32    31    1
   126    20    19    2
   127     5     6    1
   128     5     2    1
   129     6     8   ar
   130    11    10   ar
   131    37    36    1
   132    24    23    1
   133    24    25    1
   134     2     1    1
   135     2     3    1
   136    31    28    1
   137     8    10   ar
   138    36    35    1
   139    27    25   am
   140    27    28    1
   141    19    18    1
   142    25    26    2
   143    28    29    1
   144    30    29    2
   145     3    12   am
   146     3     4    2
   147    12    13    1
   148    18    17    1
   149    17    16    1
   150    16    13    1
   151    13    14    1
   152    14    15    2
