@<TRIPOS>MOLECULE
tmp/4x3vA01.pdb
 79 76 0 0 0
SMALL
GASTEIGER

@<TRIPOS>ATOM
      1  N        -19.0870   52.5660   12.8210 N.3     1  MET1       -0.1245
      2  CA       -19.5330   53.9190   12.5110 C.3     1  MET1        0.1570
      3  C        -19.1260   54.3060   11.0860 C.2     1  MET1        0.2261
      4  O        -18.1110   53.8380   10.5720 O.2     1  MET1       -0.2867
      5  CB       -18.9790   54.9150   13.5390 C.3     1  MET1        0.0387
      6  CG       -18.7550   56.3370   13.0310 C.3     1  MET1        0.0595
      7  SD       -20.2620   57.1720   12.4780 S.3     1  MET1       -0.1393
      8  CE       -20.8520   57.8970   14.0040 C.3     1  MET1        0.0692
      9  N        -15.8680   55.6410   10.7100 N.3     4  LYS4       -0.1245
     10  CA       -14.8590   54.6550   11.0740 C.3     4  LYS4        0.1561
     11  C        -14.4640   53.8120    9.8670 C.2     4  LYS4        0.2260
     12  O        -13.3280   53.3530    9.7670 O.2     4  LYS4       -0.2867
     13  CB       -15.3630   53.7550   12.2030 C.3     4  LYS4        0.0271
     14  CG       -14.3130   52.8500   12.6770 C.3     4  LYS4        0.0035
     15  CD       -14.5480   52.4060   14.1240 C.3     4  LYS4        0.0206
     16  CE       -13.6600   51.2050   14.4570 C.3     4  LYS4        0.1093
     17  NZ       -14.0020   49.9440   13.7060 N.3     4  LYS4       -0.1314
     18  N        -10.8950   53.7430    7.2880 N.3     8  ARG8       -0.1245
     19  CA       -10.5080   52.4050    6.8600 C.3     8  ARG8        0.1563
     20  C        -10.4640   52.2900    5.3330 C.2     8  ARG8        0.2260
     21  O         -9.8730   51.3530    4.7990 O.2     8  ARG8       -0.2867
     22  CB       -11.5390   51.4110    7.4300 C.3     8  ARG8        0.0307
     23  CG       -11.4610   50.9440    8.8940 C.3     8  ARG8        0.0489
     24  CD       -11.7270   49.4680    9.0730 C.3     8  ARG8        0.2205
     25  NE       -11.8130   49.0870   10.5040 N.pl3   8  ARG8       -0.0865
     26  CZ       -11.0670   48.2010   11.1450 C.cat   8  ARG8        0.5346
     27  NH1      -10.2750   47.3770   10.4870 N.pl3   8  ARG8        0.1354
     28  NH2      -11.2440   48.0840   12.4370 N.pl3   8  ARG8        0.1354
     29  N        -26.0980   46.8140    8.4440 N.3    34  LEU34      -0.1231
     30  CA       -26.8780   47.1620    9.6370 C.3    34  LEU34       0.1693
     31  C        -26.2200   46.7850   10.9680 C.2    34  LEU34       0.2592
     32  O        -26.7400   47.1280   12.0310 O.2    34  LEU34      -0.2718
     33  CB       -28.2700   46.5330    9.5530 C.3    34  LEU34       0.0284
     34  CG       -29.2230   47.1280    8.5170 C.3    34  LEU34       0.0019
     35  CD1      -30.4810   46.2920    8.4820 C.3    34  LEU34       0.0001
     36  CD2      -29.5870   48.5550    8.8370 C.3    34  LEU34       0.0001
     37  N        -25.0830   46.0950   10.9040 N.am   35  TYR35      -0.1962
     38  CA       -24.3560   45.6540   12.0960 C.3    35  TYR35       0.1771
     39  C        -25.2380   44.8230   13.0280 C.2    35  TYR35       0.2620
     40  O        -26.1160   44.0920   12.5660 O.2    35  TYR35      -0.2715
     41  CB       -23.7740   46.8520   12.8400 C.3    35  TYR35       0.0574
     42  CG       -23.1730   47.8880   11.8980 C.ar   35  TYR35      -0.0198
     43  CD1      -22.2590   47.5920   10.9190 C.ar   35  TYR35      -0.0009
     44  CD2      -23.5690   49.2270   12.0670 C.ar   35  TYR35      -0.0009
     45  CE1      -21.7430   48.5480   10.0390 C.ar   35  TYR35       0.0417
     46  CE2      -23.0490   50.2230   11.2320 C.ar   35  TYR35       0.0417
     47  CZ       -22.1490   49.8670   10.2490 C.ar   35  TYR35       0.1957
     48  OH       -21.7130   50.8650    9.4270 O.3    35  TYR35      -0.2866
     49  N        -25.0010   44.9520   14.3340 N.am   36  SER36      -0.1936
     50  CA       -25.6310   44.1000   15.3450 C.3    36  SER36       0.2055
     51  C        -25.4060   42.6340   14.9880 C.2    36  SER36       0.2644
     52  O        -26.2940   41.7950   15.1380 O.2    36  SER36      -0.2714
     53  CB       -27.1190   44.4100   15.4740 C.3    36  SER36       0.2130
     54  OG       -27.7500   43.7020   16.5150 O.3    36  SER36      -0.2179
     55  N        -24.1960   42.3500   14.5170 N.am   37  GLY37      -0.1939
     56  CA       -23.8320   41.0550   13.9780 C.3    37  GLY37       0.2014
     57  C        -22.6670   41.2770   13.0350 C.2    37  GLY37       0.2639
     58  O        -22.0500   42.3430   13.0820 O.2    37  GLY37      -0.2714
     59  N        -22.3760   40.2890   12.1870 N.am   38  VAL38      -0.1963
     60  CA       -21.2800   40.3540   11.2130 C.3    38  VAL38       0.1727
     61  C        -19.9070   40.4890   11.8890 C.2    38  VAL38       0.2617
     62  O        -19.7110   41.3180   12.7720 O.2    38  VAL38      -0.2715
     63  CB       -21.5100   41.5040   10.2230 C.3    38  VAL38       0.0290
     64  CG1      -20.2320   41.7800    9.4090 C.3    38  VAL38       0.0023
     65  CG2      -22.6790   41.1810    9.3020 C.3    38  VAL38       0.0023
     66  N        -18.9570   39.6600   11.4800 N.am   39  THR39      -0.1937
     67  CA       -17.6180   39.6840   12.0590 C.3    39  THR39       0.2028
     68  C        -16.7980   40.8650   11.5580 C.2    39  THR39       0.2642
     69  O        -17.3040   41.7630   10.8810 O.2    39  THR39      -0.2714
     70  CB       -16.8810   38.3750   11.7660 C.3    39  THR39       0.1808
     71  OG1      -16.5330   38.1860   10.4690 O.3    39  THR39      -0.2208
     72  CG2      -17.7080   37.2350   12.3270 C.3    39  THR39       0.0379
     73  N        -15.5170   40.8460   11.9040 N.am   40  THR40      -0.1950
     74  CA       -14.6000   41.9010   11.5190 C.3    40  THR40       0.1897
     75  C        -14.1510   41.7260   10.0710 C.2    40  THR40       0.2313
     76  O        -13.5270   42.6220    9.4980 O.2    40  THR40      -0.2863
     77  CB       -13.4000   41.9220   12.4570 C.3    40  THR40       0.1794
     78  OG1      -12.7450   40.6660   12.3720 O.3    40  THR40      -0.2208
     79  CG2      -13.8020   42.2200   13.8880 C.3    40  THR40       0.0378
@<TRIPOS>BOND
     1    21    20    2
     2    20    19    1
     3    19    18    1
     4    19    22    1
     5    22    23    1
     6    29    30    1
     7    35    34    1
     8    34    36    1
     9    34    33    1
    10    23    24    1
    11    24    25    1
    12    65    63    1
    13    64    63    1
    14    48    47    1
    15    76    75    2
    16    33    30    1
    17    30    31    1
    18    12    11    2
    19    11    10    1
    20    45    47   ar
    21    45    43   ar
    22    75    74    1
    23    63    60    1
    24    47    46   ar
    25    71    70    1
    26    27    26    1
    27    25    26    2
    28     4     3    2
    29     9    10    1
    30    69    68    2
    31    37    31   am
    32    37    38    1
    33    43    42   ar
    34    31    32    2
    35    10    13    1
    36     3     2    1
    37    26    28    1
    38    60    61    1
    39    60    59    1
    40    46    44   ar
    41    66    61   am
    42    66    67    1
    43    74    73    1
    44    74    77    1
    45    68    73   am
    46    68    67    1
    47    70    67    1
    48    70    72    1
    49    61    62    2
    50    42    44   ar
    51    42    41    1
    52    38    41    1
    53    38    39    1
    54    59    57   am
    55    13    14    1
    56    78    77    1
    57    77    79    1
    58     7     6    1
    59     7     8    1
    60     2     1    1
    61     2     5    1
    62    40    39    2
    63    14    15    1
    64    39    49   am
    65     6     5    1
    66    57    58    2
    67    57    56    1
    68    17    16    1
    69    56    55    1
    70    15    16    1
    71    49    50    1
    72    55    51   am
    73    51    52    2
    74    51    50    1
    75    50    53    1
    76    53    54    1
