@<TRIPOS>MOLECULE
tmp/4x3zB01.pdb
 139 129 0 0 0
SMALL
GASTEIGER

@<TRIPOS>ATOM
      1  N        -17.8090   19.4470   67.2690 N.3    51  SER51      -0.1202
      2  CA       -17.7940   18.0790   67.8390 C.3    51  SER51       0.2020
      3  C        -16.6400   17.9810   68.8470 C.2    51  SER51       0.2618
      4  O        -15.6730   17.2780   68.6380 O.2    51  SER51      -0.2717
      5  CB       -17.7100   17.0100   66.7430 C.3    51  SER51       0.2103
      6  OG       -16.5420   17.2190   65.9610 O.3    51  SER51      -0.2182
      7  N        -16.7940   18.6990   69.9490 N.am   52  MET52      -0.1979
      8  CA       -15.7450   18.8380   70.9510 C.3    52  MET52       0.1605
      9  C        -16.3060   18.4450   72.3090 C.2    52  MET52       0.2287
     10  O        -17.4810   18.7280   72.6110 O.2    52  MET52      -0.2864
     11  CB       -15.2320   20.2470   71.0160 C.3    52  MET52       0.0413
     12  CG       -14.6620   20.7640   69.6800 C.3    52  MET52       0.0598
     13  SD       -14.1840   22.4670   69.6330 S.3    52  MET52      -0.1393
     14  CE       -12.7120   22.4210   70.7150 C.3    52  MET52       0.0692
     15  N        -16.8210   12.4120   69.7620 N.3    75  LYS75      -0.1245
     16  CA       -16.3800   11.0130   69.6360 C.3    75  LYS75       0.1561
     17  C        -15.6330   10.5210   70.8950 C.2    75  LYS75       0.2260
     18  O        -15.2520    9.3630   70.9140 O.2    75  LYS75      -0.2867
     19  CB       -15.4240   10.8870   68.3980 C.3    75  LYS75       0.0271
     20  CG       -14.0200   11.4550   68.6030 C.3    75  LYS75       0.0035
     21  CD       -13.1610   11.4590   67.3100 C.3    75  LYS75       0.0206
     22  CE       -11.8230   12.1880   67.4680 C.3    75  LYS75       0.1093
     23  NZ       -11.0810   11.8800   68.7580 N.3    75  LYS75      -0.1314
     24  N        -11.0770    9.7630   61.8090 N.3   103  ALA103     -0.1245
     25  CA       -10.7870    9.4180   60.4200 C.3   103  ALA103      0.1562
     26  C         -9.7680    8.2930   60.3470 C.2   103  ALA103      0.2260
     27  O         -9.4620    7.8380   59.2490 O.2   103  ALA103     -0.2867
     28  CB       -10.2890   10.6450   59.6550 C.3   103  ALA103      0.0290
     29  N        -14.4340   13.4990   61.6300 N.3   125  ASP125     -0.1225
     30  CA       -13.9060   14.7040   62.3370 C.3   125  ASP125      0.1805
     31  C        -12.3400   14.8370   62.3100 C.2   125  ASP125      0.2598
     32  O        -11.6380   14.2380   63.1350 O.2   125  ASP125     -0.2718
     33  CB       -14.4400   14.6810   63.7940 C.3   125  ASP125      0.1424
     34  CG       -13.9120   15.8660   64.6860 C.2   125  ASP125      0.3668
     35  OD1      -13.4040   16.8790   64.1370 O.co2 125  ASP125     -0.2456
     36  OD2      -14.0000   15.7920   65.9660 O.co2 125  ASP125     -0.2456
     37  N        -11.7940   15.6700   61.4200 N.am  126  SER126     -0.1938
     38  CA       -10.3270   15.6330   61.1290 C.3   126  SER126      0.2055
     39  C         -9.7730   16.8500   60.4240 C.2   126  SER126      0.2644
     40  O        -10.5520   17.5180   59.7870 O.2   126  SER126     -0.2714
     41  CB       -10.0580   14.4440   60.2250 C.3   126  SER126      0.2130
     42  OG        -8.6500   14.2510   59.9360 O.3   126  SER126     -0.2179
     43  N         -8.4710   17.1880   60.5900 N.am  127  SER127     -0.1935
     44  CA        -7.8210   18.1730   59.6560 C.3   127  SER127      0.2055
     45  C         -7.3940   17.5380   58.3670 C.2   127  SER127      0.2643
     46  O         -6.9630   18.2270   57.3980 O.2   127  SER127     -0.2714
     47  CB        -6.5210   18.7540   60.2050 C.3   127  SER127      0.2130
     48  OG        -5.6330   17.7310   60.6810 O.3   127  SER127     -0.2179
     49  N         -7.4780   16.2320   58.2980 N.am  128  HIS128     -0.1973
     50  CA        -6.9040   15.5910   57.1210 C.3   128  HIS128      0.1656
     51  C         -7.8070   15.3240   56.0140 C.2   128  HIS128      0.2291
     52  O         -7.7510   14.2500   55.4700 O.2   128  HIS128     -0.2864
     53  CB        -6.3550   14.2360   57.6280 C.3   128  HIS128      0.0771
     54  CG        -5.3640   14.4420   58.6900 C.ar  128  HIS128      0.0820
     55  ND1       -4.2670   15.2510   58.4840 N.ar  128  HIS128     -0.2267
     56  CD2       -5.3310   14.0680   59.9900 C.ar  128  HIS128      0.1154
     57  CE1       -3.5720   15.3250   59.6050 C.ar  128  HIS128      0.1986
     58  NE2       -4.1870   14.6050   60.5270 N.ar  128  HIS128     -0.2212
     59  N        -11.7010   18.0930   57.4410 N.3   154  ASN154     -0.1240
     60  CA       -11.7160   19.4630   56.9420 C.3   154  ASN154      0.1653
     61  C        -10.7070   19.6750   55.8240 C.2   154  ASN154      0.2266
     62  O         -9.6610   19.0240   55.7880 O.2   154  ASN154     -0.2867
     63  CB       -11.3950   20.4300   58.0440 C.3   154  ASN154      0.1155
     64  CG       -12.5800   20.6700   58.9950 C.2   154  ASN154      0.2627
     65  OD1      -13.5290   19.8970   59.0230 O.2   154  ASN154     -0.2716
     66  ND2      -12.5220   21.7750   59.7700 N.am  154  ASN154     -0.0877
     67  N        -11.7560   24.4150   57.1660 N.3   175  GLY175     -0.1210
     68  CA       -11.0050   25.0040   58.2880 C.3   175  GLY175      0.1956
     69  C         -9.8120   24.1650   58.6850 C.2   175  GLY175      0.2612
     70  O         -9.9550   23.0650   59.2270 O.2   175  GLY175     -0.2717
     71  N         -8.6070   24.6880   58.3920 N.am  176  ILE176     -0.1965
     72  CA        -7.3650   24.0970   58.8770 C.3   176  ILE176      0.1727
     73  C         -6.6200   25.1510   59.7590 C.2   176  ILE176      0.2617
     74  O         -6.1140   26.1060   59.2380 O.2   176  ILE176     -0.2715
     75  CB        -6.5030   23.5860   57.7150 C.3   176  ILE176      0.0290
     76  CG1       -7.2330   22.5040   56.9380 C.3   176  ILE176      0.0022
     77  CG2       -5.1840   23.0710   58.2120 C.3   176  ILE176      0.0023
     78  CD1       -7.4410   21.2830   57.6870 C.3   176  ILE176      0.0001
     79  N         -6.7350   24.9260   61.0510 N.am  177  GLY177     -0.1941
     80  CA        -6.1840   25.7820   62.0950 C.3   177  GLY177      0.1998
     81  C         -6.7710   27.1040   62.5310 C.2   177  GLY177      0.2480
     82  O         -6.1360   27.7290   63.4030 O.2   177  GLY177     -0.2729
     83  N         -7.9290   27.5750   61.9990 N.am  178  PRO178     -0.2726
     84  CA        -8.4260   28.8870   62.4600 C.3   178  PRO178      0.1402
     85  C         -9.0090   28.8800   63.8750 C.2   178  PRO178      0.2269
     86  O         -9.2930   29.9630   64.4190 O.2   178  PRO178     -0.2865
     87  CB        -9.5470   29.2210   61.4780 C.3   178  PRO178      0.0296
     88  CG       -10.0790   27.8620   61.0730 C.3   178  PRO178      0.0237
     89  CD        -8.8070   27.0000   60.9630 C.3   178  PRO178      0.0939
     90  N         -6.7050   26.3320   68.9890 N.3   182  CYS182     -0.1235
     91  CA        -5.9830   25.4380   68.1860 C.3   182  CYS182      0.1677
     92  C         -4.6850   26.0680   67.7230 C.2   182  CYS182      0.2270
     93  O         -4.5950   27.2820   67.5490 O.2   182  CYS182     -0.2867
     94  CB        -6.8170   24.9690   67.0500 C.3   182  CYS182      0.0956
     95  SG        -6.4090   25.6640   65.4860 S.3   182  CYS182     -0.0801
     96  N         -2.5640   24.1300   65.3240 N.3   184  THR184     -0.1218
     97  CA        -2.0700   23.4840   64.1140 C.3   184  THR184      0.1862
     98  C         -1.1910   24.3720   63.2460 C.2   184  THR184      0.2287
     99  O         -0.1150   23.9430   62.8270 O.2   184  THR184     -0.2866
    100  CB        -3.2580   22.9270   63.2950 C.3   184  THR184      0.1770
    101  OG1       -3.9070   21.9230   64.0920 O.3   184  THR184     -0.2211
    102  CG2       -2.8030   22.3100   62.0240 C.3   184  THR184      0.0375
    103  N        -15.8940   26.1970   59.4150 N.3   215  ASP215     -0.1239
    104  CA       -15.5680   25.6740   60.7570 C.3   215  ASP215      0.1674
    105  C        -14.3420   26.3120   61.3720 C.2   215  ASP215      0.2266
    106  O        -13.1880   26.0530   60.9300 O.2   215  ASP215     -0.2867
    107  CB       -15.4000   24.1670   60.6620 C.3   215  ASP215      0.1410
    108  CG       -15.0420   23.5130   61.9650 C.2   215  ASP215      0.3668
    109  OD1      -15.2920   24.1790   63.0120 O.co2 215  ASP215     -0.2456
    110  OD2      -14.5350   22.3410   61.8850 O.co2 215  ASP215     -0.2456
    111  N         -9.4770   19.5350   70.7580 N.3   265  MET265     -0.1230
    112  CA        -9.5710   18.0860   70.6860 C.3   265  MET265      0.1702
    113  C         -8.2260   17.4420   70.3830 C.2   265  MET265      0.2592
    114  O         -8.0730   16.2490   70.6200 O.2   265  MET265     -0.2718
    115  CB       -10.6900   17.6470   69.7320 C.3   265  MET265      0.0401
    116  CG       -12.0750   17.9270   70.2690 C.3   265  MET265      0.0596
    117  SD       -12.5470   16.8280   71.6200 S.3   265  MET265     -0.1393
    118  CE       -13.0610   15.3880   70.6840 C.3   265  MET265      0.0692
    119  N         -7.2590   18.2470   69.9290 N.am  266  GLY266     -0.1957
    120  CA        -5.8340   17.8690   69.7980 C.3   266  GLY266      0.1869
    121  C         -4.9910   18.3060   70.9820 C.2   266  GLY266      0.2309
    122  O         -3.7540   18.2320   70.9130 O.2   266  GLY266     -0.2863
    123  N         -6.7330   14.3180   74.3260 N.3   271  MET271     -0.1245
    124  CA        -6.2090   13.0810   73.7710 C.3   271  MET271      0.1570
    125  C         -5.9730   12.0480   74.8720 C.2   271  MET271      0.2261
    126  O         -5.7240   10.8910   74.5610 O.2   271  MET271     -0.2867
    127  CB        -4.9390   13.3380   72.9830 C.3   271  MET271      0.0387
    128  CG        -5.2110   14.1920   71.7690 C.3   271  MET271      0.0595
    129  SD        -3.7920   14.3210   70.6780 S.3   271  MET271     -0.1393
    130  CE        -2.5350   15.1010   71.6880 C.3   271  MET271      0.0692
    131  N         -1.9610   19.5400   69.0490 N.3   277  GLU277     -0.1245
    132  CA        -2.2550   20.6270   68.0820 C.3   277  GLU277      0.1567
    133  C         -3.3720   21.5070   68.6140 C.2   277  GLU277      0.2260
    134  O         -3.9860   22.2620   67.8610 O.2   277  GLU277     -0.2867
    135  CB        -2.5980   20.0850   66.6960 C.3   277  GLU277      0.0388
    136  CG        -1.3740   19.3950   66.1350 C.3   277  GLU277      0.1160
    137  CD        -1.5370   18.8520   64.7500 C.2   277  GLU277      0.3649
    138  OE1       -2.6900   18.6250   64.3200 O.co2 277  GLU277     -0.2457
    139  OE2       -0.4890   18.6060   64.1190 O.co2 277  GLU277     -0.2457
@<TRIPOS>BOND
     1    52    51    2
     2    62    61    2
     3    61    60    1
     4    51    50    1
     5    76    78    1
     6    76    75    1
     7    60    59    1
     8    60    63    1
     9    50    53    1
    10    50    49    1
    11    67    68    1
    12    46    45    2
    13    53    54    1
    14    75    77    1
    15    75    72    1
    16    63    64    1
    17    68    69    1
    18    49    45   am
    19    45    44    1
    20    71    69   am
    21    71    72    1
    22    55    54   ar
    23    55    57   ar
    24    69    70    2
    25    54    56   ar
    26    72    73    1
    27    64    65    2
    28    64    66   am
    29    74    73    2
    30    27    26    2
    31   103   104    1
    32    57    58   ar
    33    28    25    1
    34    44    47    1
    35    44    43    1
    36    73    79   am
    37    40    39    2
    38    42    41    1
    39    56    58   ar
    40    47    48    1
    41    41    38    1
    42    26    25    1
    43    25    24    1
    44    39    43   am
    45    39    38    1
    46   107   104    1
    47   107   108    1
    48   104   105    1
    49   106   105    2
    50    89    88    1
    51    89    83    1
    52    79    80    1
    53    88    87    1
    54    38    37    1
    55    37    31   am
    56    87    84    1
    57    29    30    1
    58   110   108   ar
    59   108   109   ar
    60    83    84    1
    61    83    81   am
    62   102   100    1
    63    80    81    1
    64    31    30    1
    65    31    32    2
    66    30    33    1
    67    84    85    1
    68    81    82    2
    69    99    98    2
    70    98    97    1
    71   100   101    1
    72   100    97    1
    73    33    34    1
    74    85    86    2
    75    97    96    1
    76   139   137   ar
    77    35    34   ar
    78   138   137   ar
    79    34    36   ar
    80   137   136    1
    81    95    94    1
    82     6     5    1
    83   136   135    1
    84   135   132    1
    85     5     2    1
    86    94    91    1
    87     1     2    1
    88    21    22    1
    89    21    20    1
    90    22    23    1
    91    93    92    2
    92    92    91    1
    93     2     3    1
    94   134   133    2
    95   132   133    1
    96   132   131    1
    97    91    90    1
    98    19    20    1
    99    19    16    1
   100     4     3    2
   101     3     7   am
   102    13    12    1
   103    13    14    1
   104    16    15    1
   105    16    17    1
   106    12    11    1
   107   115   116    1
   108   115   112    1
   109   120   119    1
   110   120   121    1
   111   119   113   am
   112     7     8    1
   113   116   117    1
   114   113   114    2
   115   113   112    1
   116   129   130    1
   117   129   128    1
   118   118   117    1
   119   112   111    1
   120    17    18    2
   121   122   121    2
   122     8    11    1
   123     8     9    1
   124   128   127    1
   125     9    10    2
   126   127   124    1
   127   124   123    1
   128   124   125    1
   129   126   125    2
