@<TRIPOS>MOLECULE
tmp/4x3zA01.pdb
 116 107 0 0 0
SMALL
GASTEIGER

@<TRIPOS>ATOM
      1  N        -31.5840   28.4420   18.3150 N.3    48  SER48      -0.1202
      2  CA       -30.4040   29.0180   17.7040 C.3    48  SER48       0.2020
      3  C        -29.8230   28.0280   16.7160 C.2    48  SER48       0.2618
      4  O        -28.7590   27.4580   16.9470 O.2    48  SER48      -0.2717
      5  CB       -29.3900   29.4860   18.7550 C.3    48  SER48       0.2103
      6  OG       -29.1020   28.4400   19.6380 O.3    48  SER48      -0.2182
      7  N        -30.5260   27.8610   15.5980 N.am   49  MET49      -0.1979
      8  CA       -30.1380   26.8750   14.5660 C.3    49  MET49       0.1605
      9  C        -30.0550   27.5480   13.2270 C.2    49  MET49       0.2287
     10  O        -30.8690   28.4220   12.9310 O.2    49  MET49      -0.2864
     11  CB       -31.1540   25.7670   14.4970 C.3    49  MET49       0.0413
     12  CG       -31.2650   24.9730   15.7990 C.3    49  MET49       0.0598
     13  SD       -32.5380   23.7300   15.9030 S.3    49  MET49      -0.1393
     14  CE       -31.8040   22.4990   14.8410 C.3    49  MET49       0.0692
     15  N        -25.0460   30.7950   15.7620 N.3    72  LYS72      -0.1245
     16  CA       -23.5880   31.0930   15.8720 C.3    72  LYS72       0.1561
     17  C        -22.7880   30.6760   14.6410 C.2    72  LYS72       0.2260
     18  O        -21.5820   30.8870   14.6140 O.2    72  LYS72      -0.2867
     19  CB       -23.0060   30.3240   17.1100 C.3    72  LYS72       0.0271
     20  CG       -22.9060   28.8050   16.9340 C.3    72  LYS72       0.0035
     21  CD       -22.4650   28.0480   18.2020 C.3    72  LYS72       0.0206
     22  CE       -22.4420   26.5310   17.9980 C.3    72  LYS72       0.1093
     23  NZ       -21.8130   26.1070   16.7150 N.3    72  LYS72      -0.1314
     24  N        -24.7540   28.3260   23.9180 N.3   122  ASP122     -0.1225
     25  CA       -25.5740   27.3430   23.2310 C.3   122  ASP122      0.1805
     26  C        -24.8800   25.9930   23.2680 C.2   122  ASP122      0.2598
     27  O        -23.9930   25.7630   22.4890 O.2   122  ASP122     -0.2718
     28  CB       -25.8110   27.8300   21.7620 C.3   122  ASP122      0.1424
     29  CG       -26.5390   26.8350   20.9170 C.2   122  ASP122      0.3668
     30  OD1      -27.1850   25.9170   21.4850 O.co2 122  ASP122     -0.2456
     31  OD2      -26.4680   26.9560   19.6620 O.co2 122  ASP122     -0.2456
     32  N        -25.2990   25.1010   24.1780 N.am  123  SER123     -0.1938
     33  CA       -24.5440   23.9000   24.4810 C.3   123  SER123      0.2055
     34  C        -25.4060   22.8720   25.1810 C.2   123  SER123      0.2643
     35  O        -26.3890   23.2420   25.8130 O.2   123  SER123     -0.2714
     36  CB       -23.3850   24.2770   25.3880 C.3   123  SER123      0.2130
     37  OG       -22.5470   23.1970   25.8090 O.3   123  SER123     -0.2179
     38  N        -24.9830   21.6100   25.1210 N.am  124  SER124     -0.1949
     39  CA       -25.5540   20.5470   25.9740 C.3   124  SER124      0.1924
     40  C        -24.7820   20.3980   27.2700 C.2   124  SER124      0.2314
     41  O        -25.0860   19.5070   28.0950 O.2   124  SER124     -0.2863
     42  CB       -25.5190   19.1990   25.2330 C.3   124  SER124      0.2116
     43  OG       -24.1810   18.8300   24.8730 O.3   124  SER124     -0.2180
     44  N        -27.5000   23.9610   28.2140 N.3   151  ASN151     -0.1240
     45  CA       -28.6780   23.2290   28.6770 C.3   151  ASN151      0.1653
     46  C        -28.3740   22.2630   29.8020 C.2   151  ASN151      0.2266
     47  O        -27.2810   21.7220   29.8700 O.2   151  ASN151     -0.2867
     48  CB       -29.3450   22.4710   27.5510 C.3   151  ASN151      0.1155
     49  CG       -30.1400   23.3460   26.6140 C.2   151  ASN151      0.2627
     50  OD1      -29.9510   24.5570   26.5560 O.2   151  ASN151     -0.2716
     51  ND2      -31.0740   22.7310   25.8810 N.am  151  ASN151     -0.0877
     52  N        -33.0510   20.7210   28.3980 N.3   172  GLY172     -0.1210
     53  CA       -33.2060   19.7920   27.2970 C.3   172  GLY172      0.1956
     54  C        -31.8930   19.1930   26.8760 C.2   172  GLY172      0.2612
     55  O        -31.0280   19.9030   26.3570 O.2   172  GLY172     -0.2717
     56  N        -31.7250   17.8810   27.1370 N.am  173  ILE173     -0.1965
     57  CA       -30.5790   17.1380   26.6140 C.3   173  ILE173      0.1727
     58  C        -31.0620   16.0110   25.6350 C.2   173  ILE173      0.2617
     59  O        -31.5590   15.0310   26.0800 O.2   173  ILE173     -0.2715
     60  CB       -29.7200   16.6170   27.7850 C.3   173  ILE173      0.0290
     61  CG1      -29.2000   17.7800   28.6450 C.3   173  ILE173      0.0022
     62  CG2      -28.5990   15.7260   27.2800 C.3   173  ILE173      0.0023
     63  CD1      -28.1660   18.6510   27.9650 C.3   173  ILE173      0.0001
     64  N        -30.9440   16.2570   24.3480 N.am  174  GLY174     -0.1941
     65  CA       -31.3610   15.3390   23.2580 C.3   174  GLY174      0.1998
     66  C        -32.8210   15.0900   22.8860 C.2   174  GLY174      0.2480
     67  O        -33.0580   14.1730   22.0950 O.2   174  GLY174     -0.2729
     68  N        -33.7940   15.8620   23.4280 N.am  175  PRO175     -0.2726
     69  CA       -35.1830   15.6040   22.9490 C.3   175  PRO175      0.1402
     70  C        -35.5250   16.1120   21.5750 C.2   175  PRO175      0.2269
     71  O        -36.6030   15.7510   21.0630 O.2   175  PRO175     -0.2865
     72  CB       -36.0480   16.2990   24.0030 C.3   175  PRO175      0.0296
     73  CG       -35.1850   17.4800   24.4400 C.3   175  PRO175      0.0237
     74  CD       -33.7460   16.9700   24.4130 C.3   175  PRO175      0.0939
     75  N        -32.3850   15.2770   16.2680 N.3   179  CYS179     -0.1235
     76  CA       -31.2510   15.1600   17.1580 C.3   179  CYS179      0.1677
     77  C        -31.0450   13.7180   17.6320 C.2   179  CYS179      0.2270
     78  O        -32.0280   12.9660   17.8270 O.2   179  CYS179     -0.2867
     79  CB       -31.4860   16.1620   18.2960 C.3   179  CYS179      0.0956
     80  SG       -32.0510   17.7760   17.6430 S.3   179  CYS179     -0.0801
     81  N        -28.2880   12.9100   20.0730 N.3   181  THR181     -0.1218
     82  CA       -27.4470   12.8020   21.2790 C.3   181  THR181      0.1862
     83  C        -27.7950   11.5740   22.1300 C.2   181  THR181      0.2287
     84  O        -26.9060   10.8500   22.6170 O.2   181  THR181     -0.2866
     85  CB       -27.5550   14.0830   22.1160 C.3   181  THR181      0.1770
     86  OG1      -26.9950   15.1390   21.3240 O.3   181  THR181     -0.2211
     87  CG2      -26.7790   13.9770   23.4420 C.3   181  THR181      0.0375
     88  N        -36.6530   23.4380   26.1490 N.3   212  ASP212     -0.1239
     89  CA       -36.0400   23.4080   24.8160 C.3   212  ASP212      0.1674
     90  C        -35.9800   22.0160   24.1980 C.2   212  ASP212      0.2266
     91  O        -35.1990   21.1600   24.6490 O.2   212  ASP212     -0.2867
     92  CB       -34.6280   23.9520   24.9370 C.3   212  ASP212      0.1410
     93  CG       -33.8700   23.9770   23.6550 C.2   212  ASP212      0.3668
     94  OD1      -34.4990   23.8820   22.5720 O.co2 212  ASP212     -0.2456
     95  OD2      -32.6220   24.1360   23.7220 O.co2 212  ASP212     -0.2456
     96  N        -27.6610   21.1460   14.7240 N.3   262  MET262     -0.1230
     97  CA       -26.4180   21.8850   14.8070 C.3   262  MET262      0.1702
     98  C        -25.2180   20.9940   15.1340 C.2   262  MET262      0.2592
     99  O        -24.0780   21.4420   15.0070 O.2   262  MET262     -0.2718
    100  CB       -26.5630   23.0780   15.7740 C.3   262  MET262      0.0401
    101  CG       -27.5480   24.1030   15.2380 C.3   262  MET262      0.0596
    102  SD       -26.8190   25.0770   13.8600 S.3   262  MET262     -0.1393
    103  CE       -25.8080   26.2400   14.7830 C.3   262  MET262      0.0692
    104  N        -25.4690   19.7460   15.5160 N.am  263  GLY263     -0.1957
    105  CA       -24.3990   18.7320   15.5940 C.3   263  GLY263      0.1869
    106  C        -24.3840   17.7710   14.4200 C.2   263  GLY263      0.2309
    107  O        -23.7430   16.7230   14.4860 O.2   263  GLY263     -0.2863
    108  N        -24.0330   14.5640   16.3150 N.3   273  GLU273     -0.1245
    109  CA       -25.1030   14.3140   17.3060 C.3   273  GLU273      0.1567
    110  C        -26.4450   14.7990   16.7960 C.2   273  GLU273      0.2260
    111  O        -27.4210   14.9210   17.5670 O.2   273  GLU273     -0.2867
    112  CB       -24.7440   14.9440   18.6620 C.3   273  GLU273      0.0388
    113  CG       -23.5020   14.2670   19.2370 C.3   273  GLU273      0.1160
    114  CD       -23.1900   14.6820   20.6420 C.2   273  GLU273      0.3649
    115  OE1      -23.5860   15.7970   21.0380 O.co2 273  GLU273     -0.2457
    116  OE2      -22.5270   13.8890   21.3350 O.co2 273  GLU273     -0.2457
@<TRIPOS>BOND
     1    10     9    2
     2     9     8    1
     3   102   103    1
     4   102   101    1
     5   106   107    2
     6   106   105    1
     7    11     8    1
     8    11    12    1
     9     8     7    1
    10    18    17    2
    11    17    16    1
    12    96    97    1
    13    97    98    1
    14    97   100    1
    15    14    13    1
    16    99    98    2
    17    98   104   am
    18   101   100    1
    19   104   105    1
    20     7     3   am
    21    15    16    1
    22    12    13    1
    23    16    19    1
    24    75    76    1
    25   108   109    1
    26    23    22    1
    27     3     4    2
    28     3     2    1
    29   110   109    1
    30   110   111    2
    31    20    19    1
    32    20    21    1
    33    76    77    1
    34    76    79    1
    35   109   112    1
    36    77    78    2
    37    80    79    1
    38     2     1    1
    39     2     5    1
    40    22    21    1
    41   112   113    1
    42     5     6    1
    43   113   114    1
    44    31    29   ar
    45    81    82    1
    46   114   115   ar
    47   114   116   ar
    48    29    30   ar
    49    29    28    1
    50    71    70    2
    51    82    85    1
    52    82    83    1
    53    86    85    1
    54    70    69    1
    55    28    25    1
    56    67    66    2
    57    85    87    1
    58    83    84    2
    59    27    26    2
    60    94    93   ar
    61    66    65    1
    62    66    68   am
    63    69    68    1
    64    69    72    1
    65    25    26    1
    66    25    24    1
    67    65    64    1
    68    26    32   am
    69    68    74    1
    70    93    95   ar
    71    93    92    1
    72    72    73    1
    73    32    33    1
    74    90    91    2
    75    90    89    1
    76    64    58   am
    77    74    73    1
    78    33    34    1
    79    33    36    1
    80    89    92    1
    81    89    88    1
    82    43    42    1
    83    38    34   am
    84    38    39    1
    85    34    35    2
    86    42    39    1
    87    36    37    1
    88    58    59    2
    89    58    57    1
    90    51    49   am
    91    39    40    1
    92    55    54    2
    93    50    49    2
    94    49    48    1
    95    57    56    1
    96    57    60    1
    97    54    56   am
    98    54    53    1
    99    40    41    2
   100    62    60    1
   101    53    52    1
   102    48    45    1
   103    60    61    1
   104    63    61    1
   105    44    45    1
   106    45    46    1
   107    46    47    2
