@<TRIPOS>MOLECULE
tmp/4x47A00.pdb
 187 176 0 0 0
SMALL
GASTEIGER

@<TRIPOS>ATOM
      1  N        -18.3520   36.1740  -19.5140 N.3    23  ARG23      -0.1231
      2  CA       -16.8850   36.1680  -19.4480 C.3    23  ARG23       0.1694
      3  C        -16.4680   35.4450  -18.1510 C.2    23  ARG23       0.2591
      4  O        -17.2950   35.1970  -17.2720 O.2    23  ARG23      -0.2718
      5  CB       -16.4120   37.6470  -19.4580 C.3    23  ARG23       0.0321
      6  CG       -16.0480   38.2310  -20.8100 C.3    23  ARG23       0.0489
      7  CD       -14.9710   39.3210  -20.6570 C.3    23  ARG23       0.2205
      8  NE       -13.7450   38.7470  -20.2060 N.pl3  23  ARG23      -0.0865
      9  CZ       -12.6380   39.3950  -19.8710 C.cat  23  ARG23       0.5346
     10  NH1      -12.5340   40.7290  -19.9590 N.pl3  23  ARG23       0.1354
     11  NH2      -11.5940   38.6610  -19.4840 N.pl3  23  ARG23       0.1354
     12  N        -15.1630   35.1350  -18.0370 N.am   24  ILE24      -0.1980
     13  CA       -14.4840   34.6710  -16.8320 C.3    24  ILE24       0.1595
     14  C        -14.8900   33.2450  -16.4130 C.2    24  ILE24       0.2287
     15  O        -15.5070   33.0640  -15.4120 O.2    24  ILE24      -0.2864
     16  CB       -14.6530   35.5910  -15.6330 C.3    24  ILE24       0.0276
     17  CG1      -14.6620   37.0830  -16.0270 C.3    24  ILE24       0.0022
     18  CG2      -13.5970   35.2750  -14.5900 C.3    24  ILE24       0.0022
     19  CD1      -13.4370   37.5540  -16.7910 C.3    24  ILE24       0.0001
     20  N        -22.5710   38.9760  -17.6880 N.3    42  ARG42      -0.1245
     21  CA       -22.3400   40.3860  -17.9830 C.3    42  ARG42       0.1563
     22  C        -23.5020   40.9340  -18.8260 C.2    42  ARG42       0.2260
     23  O        -23.6060   40.6510  -20.0260 O.2    42  ARG42      -0.2867
     24  CB       -21.0110   40.5860  -18.7180 C.3    42  ARG42       0.0307
     25  CG       -19.7770   40.0960  -17.9250 C.3    42  ARG42       0.0489
     26  CD       -18.4970   40.9040  -18.1500 C.3    42  ARG42       0.2205
     27  NE       -17.4680   40.5040  -17.1820 N.pl3  42  ARG42      -0.0865
     28  CZ       -16.2340   41.0030  -17.0900 C.cat  42  ARG42       0.5346
     29  NH1      -15.8510   41.9840  -17.9110 N.pl3  42  ARG42       0.1354
     30  NH2      -15.4070   40.5550  -16.1150 N.pl3  42  ARG42       0.1354
     31  N        -16.1590   45.1050  -17.6790 N.3    48  ASP48      -0.1225
     32  CA       -15.8420   44.8680  -16.2750 C.3    48  ASP48       0.1805
     33  C        -16.7120   45.8150  -15.4630 C.2    48  ASP48       0.2597
     34  O        -17.1700   46.8180  -15.9890 O.2    48  ASP48      -0.2718
     35  CB       -14.3670   45.2610  -15.9560 C.3    48  ASP48       0.1424
     36  CG       -13.3500   44.4430  -16.7390 C.2    48  ASP48       0.3668
     37  OD1      -13.6520   43.2830  -17.2230 O.co2  48  ASP48      -0.2456
     38  OD2      -12.2140   44.9520  -16.8360 O.co2  48  ASP48      -0.2456
     39  N        -16.8890   45.4970  -14.1860 N.am   49  ALA49      -0.1979
     40  CA       -17.5110   46.4230  -13.2710 C.3    49  ALA49       0.1597
     41  C        -16.6600   47.6760  -13.3450 C.2    49  ALA49       0.2287
     42  O        -15.4120   47.5960  -13.4940 O.2    49  ALA49      -0.2864
     43  CB       -17.5680   45.8670  -11.8660 C.3    49  ALA49       0.0319
     44  N        -18.5280   39.6910   -9.7520 N.3   104  ILE104     -0.1231
     45  CA       -17.6040   39.5920  -10.8730 C.3   104  ILE104      0.1692
     46  C        -16.4540   38.7150  -10.4880 C.2   104  ILE104      0.2592
     47  O        -16.0100   38.7500   -9.3320 O.2   104  ILE104     -0.2718
     48  CB       -17.0760   40.9930  -11.2940 C.3   104  ILE104      0.0266
     49  CG1      -15.9310   40.9200  -12.3090 C.3   104  ILE104      0.0019
     50  CG2      -16.5690   41.8020  -10.1360 C.3   104  ILE104      0.0020
     51  CD1      -15.6940   42.2470  -13.0250 C.3   104  ILE104      0.0001
     52  N        -15.9890   37.9150  -11.4480 N.am  105  ASP105     -0.1974
     53  CA       -14.7460   37.1470  -11.3440 C.3   105  ASP105      0.1709
     54  C        -14.8340   35.9320  -10.3650 C.2   105  ASP105      0.2293
     55  O        -14.2630   35.9420   -9.2870 O.2   105  ASP105     -0.2864
     56  CB       -13.5640   38.0820  -10.9820 C.3   105  ASP105      0.1436
     57  CG       -12.9860   38.8050  -12.1810 C.2   105  ASP105      0.3671
     58  OD1      -13.5860   38.7210  -13.2600 O.co2 105  ASP105     -0.2456
     59  OD2      -11.9150   39.4930  -12.0470 O.co2 105  ASP105     -0.2456
     60  N        -15.9770   38.6090   -6.5530 N.3   122  ASP122     -0.1239
     61  CA       -15.7530   39.9770   -6.0400 C.3   122  ASP122      0.1674
     62  C        -17.1460   40.5690   -5.8960 C.2   122  ASP122      0.2266
     63  O        -18.0260   40.2980   -6.7360 O.2   122  ASP122     -0.2867
     64  CB       -14.9920   40.8070   -7.0030 C.3   122  ASP122      0.1410
     65  CG       -13.6280   40.2020   -7.4010 C.2   122  ASP122      0.3668
     66  OD1      -12.9480   39.4750   -6.5910 O.co2 122  ASP122     -0.2456
     67  OD2      -13.2910   40.4530   -8.5850 O.co2 122  ASP122     -0.2456
     68  N        -19.1640   44.1200   -5.6440 N.3   124  MET124     -0.1245
     69  CA       -18.9950   45.5410   -5.9300 C.3   124  MET124      0.1570
     70  C        -20.2310   46.3140   -5.5480 C.2   124  MET124      0.2261
     71  O        -21.2970   46.0110   -6.0650 O.2   124  MET124     -0.2867
     72  CB       -18.7340   45.7250   -7.4200 C.3   124  MET124      0.0387
     73  CG       -17.5600   44.9110   -7.9220 C.3   124  MET124      0.0595
     74  SD       -15.9610   45.4760   -7.2720 S.3   124  MET124     -0.1393
     75  CE       -14.9120   44.7970   -8.5100 C.3   124  MET124      0.0692
     76  N        -13.0350   47.6030   -9.6310 N.3   130  SER130     -0.1202
     77  CA       -11.6820   47.7020   -9.1090 C.3   130  SER130      0.2020
     78  C        -11.1110   49.0630   -9.3910 C.2   130  SER130      0.2619
     79  O        -10.4550   49.6620   -8.5190 O.2   130  SER130     -0.2717
     80  CB       -10.7820   46.6840   -9.7790 C.3   130  SER130      0.2103
     81  OG       -11.1090   45.4090   -9.3280 O.3   130  SER130     -0.2182
     82  N        -11.3060   49.5390  -10.6220 N.am  131  SER131     -0.1951
     83  CA       -10.6330   50.8140  -11.0580 C.3   131  SER131      0.1924
     84  C        -11.0170   52.0540  -10.2540 C.2   131  SER131      0.2314
     85  O        -10.1860   52.9540  -10.1110 O.2   131  SER131     -0.2863
     86  CB       -10.8320   51.0850  -12.5560 C.3   131  SER131      0.2116
     87  OG       -12.2100   51.3020  -12.8680 O.3   131  SER131     -0.2180
     88  N         -8.1280   47.9220   -3.8990 N.3   266  PHE266     -0.1241
     89  CA        -8.9410   46.7480   -4.2170 C.3   266  PHE266      0.1605
     90  C         -8.2460   45.4920   -3.7480 C.2   266  PHE266      0.2264
     91  O         -7.0270   45.4560   -3.6540 O.2   266  PHE266     -0.2867
     92  CB        -9.2810   46.6270   -5.7170 C.3   266  PHE266      0.0534
     93  CG        -8.1020   46.5120   -6.6510 C.ar  266  PHE266     -0.0203
     94  CD1       -7.4880   45.3040   -6.8910 C.ar  266  PHE266     -0.0042
     95  CD2       -7.6270   47.6240   -7.3230 C.ar  266  PHE266     -0.0042
     96  CE1       -6.4250   45.2030   -7.7570 C.ar  266  PHE266     -0.0003
     97  CE2       -6.5600   47.5380   -8.1980 C.ar  266  PHE266     -0.0003
     98  CZ        -5.9540   46.3080   -8.4250 C.ar  266  PHE266     -0.0000
     99  N         -9.0800   41.4340   -4.7330 N.3   268  VAL268     -0.1245
    100  CA       -10.0330   40.7240   -5.5390 C.3   268  VAL268      0.1561
    101  C         -9.4610   39.2920   -5.8080 C.2   268  VAL268      0.2260
    102  O         -8.2680   39.0470   -5.5650 O.2   268  VAL268     -0.2867
    103  CB       -10.3000   41.4550   -6.8550 C.3   268  VAL268      0.0252
    104  CG1      -11.1240   42.7330   -6.6630 C.3   268  VAL268      0.0019
    105  CG2       -8.9840   41.7620   -7.6080 C.3   268  VAL268      0.0019
    106  N         -5.3790   39.0520   -5.6300 N.3   291  TYR291     -0.1241
    107  CA        -4.3900   40.0670   -5.9250 C.3   291  TYR291      0.1605
    108  C         -5.0150   41.4280   -5.5560 C.2   291  TYR291      0.2264
    109  O         -6.2460   41.5140   -5.3270 O.2   291  TYR291     -0.2867
    110  CB        -3.9560   39.9970   -7.3810 C.3   291  TYR291      0.0534
    111  CG        -5.0190   40.4170   -8.3950 C.ar  291  TYR291     -0.0201
    112  CD1       -5.9810   39.5030   -8.8820 C.ar  291  TYR291     -0.0009
    113  CD2       -5.0520   41.7000   -8.8760 C.ar  291  TYR291     -0.0009
    114  CE1       -6.9220   39.8980   -9.8090 C.ar  291  TYR291      0.0417
    115  CE2       -5.9860   42.1110   -9.8090 C.ar  291  TYR291      0.0417
    116  CZ        -6.9400   41.2280  -10.2550 C.ar  291  TYR291      0.1957
    117  OH        -7.8440   41.6870  -11.1870 O.3   291  TYR291     -0.2866
    118  N         -2.0570   43.3510  -12.2980 N.3   323  THR323     -0.1218
    119  CA        -3.1180   42.3760  -12.2700 C.3   323  THR323      0.1862
    120  C         -2.6220   40.9510  -12.0530 C.2   323  THR323      0.2287
    121  O         -2.7070   40.1350  -12.9630 O.2   323  THR323     -0.2866
    122  CB        -3.9190   42.4550  -13.5710 C.3   323  THR323      0.1770
    123  OG1       -4.4530   43.7880  -13.7020 O.3   323  THR323     -0.2211
    124  CG2       -5.0760   41.4690  -13.5600 C.3   323  THR323      0.0375
    125  N         -3.2630   37.9170  -11.3940 N.3   325  GLU325     -0.1245
    126  CA        -4.1980   36.8090  -11.3440 C.3   325  GLU325      0.1567
    127  C         -3.4190   35.5390  -11.3380 C.2   325  GLU325      0.2260
    128  O         -2.5730   35.3380  -12.2070 O.2   325  GLU325     -0.2867
    129  CB        -5.0530   36.8440  -12.5960 C.3   325  GLU325      0.0388
    130  CG        -6.0280   38.0310  -12.6470 C.3   325  GLU325      0.1160
    131  CD        -6.6340   38.1900  -14.0070 C.2   325  GLU325      0.3649
    132  OE1       -5.8880   37.9610  -14.9860 O.co2 325  GLU325     -0.2457
    133  OE2       -7.8440   38.5660  -14.1060 O.co2 325  GLU325     -0.2457
    134  N         -0.3350   35.7960  -13.9310 N.3   341  ARG341     -0.1245
    135  CA        -0.2200   36.8910  -14.8730 C.3   341  ARG341      0.1563
    136  C          0.5760   38.0470  -14.1990 C.2   341  ARG341      0.2260
    137  O          0.5620   38.1200  -12.9900 O.2   341  ARG341     -0.2867
    138  CB        -1.6510   37.3850  -15.1370 C.3   341  ARG341      0.0307
    139  CG        -1.7760   38.5580  -16.0840 C.3   341  ARG341      0.0489
    140  CD        -3.2450   38.9720  -16.1390 C.3   341  ARG341      0.2205
    141  NE        -3.4600   40.2010  -16.8290 N.pl3 341  ARG341     -0.0865
    142  CZ        -4.6660   40.6740  -17.1370 C.cat 341  ARG341      0.5346
    143  NH1       -5.7650   39.9590  -16.8540 N.pl3 341  ARG341      0.1354
    144  NH2       -4.7780   41.8570  -17.7450 N.pl3 341  ARG341      0.1354
    145  N         -4.6500   38.7340  -27.5080 N.3   403  ARG403     -0.1245
    146  CA        -5.0380   37.5200  -26.8070 C.3   403  ARG403      0.1563
    147  C         -5.4730   36.5260  -27.8430 C.2   403  ARG403      0.2260
    148  O         -6.6600   36.5390  -28.2670 O.2   403  ARG403     -0.2867
    149  CB        -6.2130   37.7990  -25.8420 C.3   403  ARG403      0.0307
    150  CG        -5.7770   38.6610  -24.6630 C.3   403  ARG403      0.0489
    151  CD        -6.8570   38.9370  -23.6610 C.3   403  ARG403      0.2205
    152  NE        -6.3020   39.4090  -22.4250 N.pl3 403  ARG403     -0.0865
    153  CZ        -7.0010   39.9140  -21.4020 C.cat 403  ARG403      0.5346
    154  NH1       -8.3330   40.0160  -21.4330 N.pl3 403  ARG403      0.1354
    155  NH2       -6.3550   40.2370  -20.3030 N.pl3 403  ARG403      0.1354
    156  N         -9.3880   34.2810  -21.3600 N.3   443  TYR443     -0.1241
    157  CA        -9.4240   33.6150  -20.0760 C.3   443  TYR443      0.1605
    158  C         -9.8510   32.1420  -20.3050 C.2   443  TYR443      0.2264
    159  O        -10.5000   31.7980  -21.2970 O.2   443  TYR443     -0.2867
    160  CB       -10.3840   34.3490  -19.1090 C.3   443  TYR443      0.0534
    161  CG        -9.8650   35.6230  -18.4560 C.ar  443  TYR443     -0.0201
    162  CD1       -9.0760   36.4630  -19.1250 C.ar  443  TYR443     -0.0009
    163  CD2      -10.1740   35.9480  -17.0930 C.ar  443  TYR443     -0.0009
    164  CE1       -8.5450   37.6250  -18.5120 C.ar  443  TYR443      0.0417
    165  CE2       -9.6880   37.1240  -16.5100 C.ar  443  TYR443      0.0417
    166  CZ        -8.8520   37.9480  -17.2420 C.ar  443  TYR443      0.1957
    167  OH        -8.3020   39.0960  -16.6720 O.3   443  TYR443     -0.2866
    168  N        -10.6090   39.3790  -25.3820 N.3   463  SER463     -0.1202
    169  CA       -11.4200   40.1590  -24.4050 C.3   463  SER463      0.2020
    170  C        -10.8100   41.4310  -23.8900 C.2   463  SER463      0.2618
    171  O        -11.4040   42.1650  -23.0960 O.2   463  SER463     -0.2717
    172  CB       -11.8210   39.2930  -23.2420 C.3   463  SER463      0.2103
    173  OG       -10.7360   38.7180  -22.5270 O.3   463  SER463     -0.2182
    174  N         -9.6000   41.6900  -24.3230 N.am  464  TRP464     -0.1975
    175  CA        -8.9190   42.9530  -24.0280 C.3   464  TRP464      0.1640
    176  C         -9.2310   43.9630  -25.1310 C.2   464  TRP464      0.2290
    177  O         -9.4380   45.1410  -24.8860 O.2   464  TRP464     -0.2864
    178  CB        -7.3990   42.6770  -24.0630 C.3   464  TRP464      0.0576
    179  CG        -6.6230   43.8460  -23.6200 C.ar  464  TRP464      0.0006
    180  CD1       -6.0370   44.7980  -24.4130 C.ar  464  TRP464      0.0946
    181  CD2       -6.4200   44.2600  -22.2700 C.ar  464  TRP464      0.0152
    182  NE1       -5.4560   45.7880  -23.6100 N.ar  464  TRP464     -0.2442
    183  CE2       -5.6590   45.4620  -22.3010 C.ar  464  TRP464      0.0810
    184  CE3       -6.8050   43.7390  -21.0350 C.ar  464  TRP464      0.0012
    185  CZ2       -5.2480   46.1150  -21.1470 C.ar  464  TRP464      0.0191
    186  CZ3       -6.4030   44.3930  -19.8850 C.ar  464  TRP464      0.0001
    187  CH2       -5.6310   45.5770  -19.9570 C.ar  464  TRP464      0.0015
@<TRIPOS>BOND
     1   148   147    2
     2   147   146    1
     3   145   146    1
     4   146   149    1
     5   149   150    1
     6   168   169    1
     7   176   177    2
     8   176   175    1
     9   150   151    1
    10   180   179   ar
    11   180   182   ar
    12   169   170    1
    13   169   172    1
    14   174   175    1
    15   174   170   am
    16   178   175    1
    17   178   179    1
    18   170   171    2
    19   151   152    1
    20   179   181   ar
    21   182   183   ar
    22   172   173    1
    23   152   153    2
    24   183   181   ar
    25   183   185   ar
    26   181   184   ar
    27   154   153    1
    28   153   155    1
    29   156   157    1
    30   159   158    2
    31   185   187   ar
    32   184   186   ar
    33     6     7    1
    34     6     5    1
    35     7     8    1
    36   158   157    1
    37     8     9    2
    38   157   160    1
    39    23    22    2
    40    10     9    1
    41   187   186   ar
    42     9    11    1
    43     1     2    1
    44     5     2    1
    45     2     3    1
    46   162   164   ar
    47   162   161   ar
    48   160   161    1
    49    22    21    1
    50    24    21    1
    51    24    25    1
    52   164   166   ar
    53   161   163   ar
    54     3    12   am
    55     3     4    2
    56    26    25    1
    57    26    27    1
    58    12    13    1
    59    21    20    1
    60    29    28    1
    61   144   142    1
    62    31    32    1
    63   166   167    1
    64   166   165   ar
    65    37    36   ar
    66    27    28    2
    67   142   143    1
    68   142   141    2
    69   163   165   ar
    70    28    30    1
    71    38    36   ar
    72    13    14    1
    73    13    16    1
    74   141   140    1
    75    19    17    1
    76    36    35    1
    77    14    15    2
    78    32    35    1
    79    32    33    1
    80   140   139    1
    81   139   138    1
    82    17    16    1
    83    34    33    2
    84    16    18    1
    85    33    39   am
    86   138   135    1
    87   132   131   ar
    88   135   136    1
    89   135   134    1
    90   136   137    2
    91    39    40    1
    92   133   131   ar
    93   131   130    1
    94   123   122    1
    95   122   124    1
    96   122   119    1
    97    42    41    2
    98    41    40    1
    99    40    43    1
   100    58    57   ar
   101    51    49    1
   102   121   120    2
   103    87    86    1
   104   130   129    1
   105   129   126    1
   106    86    83    1
   107    49    48    1
   108   118   119    1
   109   119   120    1
   110   128   127    2
   111    57    59   ar
   112    57    56    1
   113    52    53    1
   114    52    46   am
   115   125   126    1
   116    53    56    1
   117    53    54    1
   118   126   127    1
   119    48    45    1
   120    48    50    1
   121   117   116    1
   122    83    82    1
   123    83    84    1
   124    45    46    1
   125    45    44    1
   126    82    78   am
   127    46    47    2
   128    54    55    2
   129   116   114   ar
   130   116   115   ar
   131    84    85    2
   132   114   112   ar
   133   115   113   ar
   134    80    81    1
   135    80    77    1
   136    76    77    1
   137    78    77    1
   138    78    79    2
   139   112   111   ar
   140   113   111   ar
   141    67    65   ar
   142    75    74    1
   143    98    97   ar
   144    98    96   ar
   145   111   110    1
   146    97    95   ar
   147    73    72    1
   148    73    74    1
   149    96    94   ar
   150   105   103    1
   151    72    69    1
   152    65    64    1
   153    65    66   ar
   154   110   107    1
   155    95    93   ar
   156    64    61    1
   157    94    93   ar
   158   103   104    1
   159   103   100    1
   160    63    62    2
   161    93    92    1
   162    60    61    1
   163    71    70    2
   164    61    62    1
   165    69    68    1
   166    69    70    1
   167   107   106    1
   168   107   108    1
   169   101   102    2
   170   101   100    1
   171    92    89    1
   172   108   109    2
   173   100    99    1
   174    89    88    1
   175    89    90    1
   176    90    91    2
