@<TRIPOS>MOLECULE
tmp/4x48B01.pdb
 108 105 0 0 0
SMALL
GASTEIGER

@<TRIPOS>ATOM
      1  N         60.9640   82.5990   60.9050 N.3   100  LYS100     -0.1231
      2  CA        60.2100   82.8540   59.6840 C.3   100  LYS100      0.1678
      3  C         61.0760   82.2880   58.5540 C.2   100  LYS100      0.2434
      4  O         62.3040   82.2390   58.6960 O.2   100  LYS100     -0.2733
      5  CB        60.0220   84.3640   59.5020 C.3   100  LYS100      0.0284
      6  CG        58.5620   84.7850   59.7840 C.3   100  LYS100      0.0035
      7  CD        58.2580   84.6990   61.2230 C.3   100  LYS100      0.0206
      8  CE        57.0170   85.4410   61.6340 C.3   100  LYS100      0.1093
      9  NZ        56.9540   85.4580   63.1140 N.3   100  LYS100     -0.1314
     10  N         60.5010   81.8770   57.4170 N.am  101  PRO101     -0.2718
     11  CA        61.3380   81.2690   56.3680 C.3   101  PRO101      0.1535
     12  C         62.3970   82.1880   55.7750 C.2   101  PRO101      0.2599
     13  O         62.1460   83.3700   55.5880 O.2   101  PRO101     -0.2715
     14  CB        60.3100   80.7650   55.3290 C.3   101  PRO101      0.0310
     15  CG        59.0870   81.5100   55.6050 C.3   101  PRO101      0.0237
     16  CD        59.0650   81.8250   57.0620 C.3   101  PRO101      0.0939
     17  N         63.6070   81.6500   55.5320 N.am  102  PHE102     -0.1960
     18  CA        64.6590   82.4600   54.9280 C.3   102  PHE102      0.1771
     19  C         64.6970   82.2150   53.3970 C.2   102  PHE102      0.2619
     20  O         65.4200   82.8950   52.6780 O.2   102  PHE102     -0.2715
     21  CB        66.0250   82.2020   55.5920 C.3   102  PHE102      0.0574
     22  CG        66.5410   80.7750   55.5020 C.ar  102  PHE102     -0.0200
     23  CD1       67.1740   80.3170   54.3450 C.ar  102  PHE102     -0.0042
     24  CD2       66.4060   79.9010   56.5750 C.ar  102  PHE102     -0.0042
     25  CE1       67.6710   79.0090   54.2670 C.ar  102  PHE102     -0.0003
     26  CE2       66.8890   78.5890   56.4950 C.ar  102  PHE102     -0.0003
     27  CZ        67.5160   78.1540   55.3460 C.ar  102  PHE102     -0.0000
     28  N         63.9580   81.2190   52.9210 N.am  103  MET103     -0.1963
     29  CA        63.9450   80.8710   51.4780 C.3   103  MET103      0.1736
     30  C         62.6530   80.1710   51.1660 C.2   103  MET103      0.2617
     31  O         62.1940   79.3540   51.9590 O.2   103  MET103     -0.2715
     32  CB        65.1200   79.9030   51.1510 C.3   103  MET103      0.0427
     33  CG        65.3950   79.7760   49.6410 C.3   103  MET103      0.0599
     34  SD        66.8220   78.7430   49.2600 S.3   103  MET103     -0.1393
     35  CE        68.0570   79.7760   49.6090 C.3   103  MET103      0.0692
     36  N         62.0770   80.4670   49.9960 N.am  104  SER104     -0.1950
     37  CA        60.8420   79.8200   49.5710 C.3   104  SER104      0.1924
     38  C         61.1480   78.6540   48.6360 C.2   104  SER104      0.2314
     39  O         62.1960   78.6300   47.9730 O.2   104  SER104     -0.2863
     40  CB        59.9080   80.8350   48.9160 C.3   104  SER104      0.2116
     41  OG        60.5420   81.3540   47.7660 O.3   104  SER104     -0.2180
     42  N         53.8060   75.0720   48.3650 N.3   213  SER213     -0.1202
     43  CA        54.5020   76.3310   48.5700 C.3   213  SER213      0.2020
     44  C         54.8470   76.4200   50.0390 C.2   213  SER213      0.2619
     45  O         53.9550   76.4030   50.8790 O.2   213  SER213     -0.2717
     46  CB        53.6020   77.5010   48.1720 C.3   213  SER213      0.2103
     47  OG        54.3760   78.6860   48.2090 O.3   213  SER213     -0.2182
     48  N         56.1440   76.4550   50.3530 N.am  214  LYS214     -0.1965
     49  CA        56.5730   76.4840   51.7510 C.3   214  LYS214      0.1728
     50  C         57.9350   77.1340   51.8660 C.2   214  LYS214      0.2616
     51  O         58.3460   77.8600   50.9690 O.2   214  LYS214     -0.2715
     52  CB        56.5300   75.0720   52.3770 C.3   214  LYS214      0.0311
     53  CG        57.3710   74.0650   51.6440 C.3   214  LYS214      0.0038
     54  CD        56.7380   72.6830   51.7600 C.3   214  LYS214      0.0206
     55  CE        57.5970   71.6570   51.0440 C.3   214  LYS214      0.1093
     56  NZ        57.0120   70.2910   51.1330 N.3   214  LYS214     -0.1314
     57  N         58.5930   76.9300   52.9920 N.am  215  GLY215     -0.1955
     58  CA        59.8950   77.5370   53.2070 C.3   215  GLY215      0.1869
     59  C         60.8090   76.7840   54.1230 C.2   215  GLY215      0.2309
     60  O         60.3730   75.8820   54.8440 O.2   215  GLY215     -0.2863
     61  N         66.8420   86.9320   60.7590 N.3   234  VAL234     -0.1231
     62  CA        66.3370   86.5110   59.4470 C.3   234  VAL234      0.1692
     63  C         65.5300   87.6840   58.8200 C.2   234  VAL234      0.2591
     64  O         65.7020   87.9820   57.6370 O.2   234  VAL234     -0.2718
     65  CB        65.4710   85.2220   59.5480 C.3   234  VAL234      0.0266
     66  CG1       64.6910   84.9870   58.2540 C.3   234  VAL234      0.0020
     67  CG2       66.3260   83.9970   59.8830 C.3   234  VAL234      0.0020
     68  N         64.6510   88.3220   59.6050 N.am  235  LEU235     -0.1980
     69  CA        63.8400   89.4430   59.0970 C.3   235  LEU235      0.1596
     70  C         64.7330   90.5970   58.6240 C.2   235  LEU235      0.2287
     71  O         64.4940   91.1540   57.5550 O.2   235  LEU235     -0.2864
     72  CB        62.8530   89.9410   60.1520 C.3   235  LEU235      0.0297
     73  CG        61.7580   88.9830   60.6290 C.3   235  LEU235      0.0022
     74  CD1       60.8230   89.6890   61.5140 C.3   235  LEU235      0.0001
     75  CD2       60.9810   88.3960   59.4710 C.3   235  LEU235      0.0001
     76  N         66.5930   89.5620   55.3570 N.3   238  ASN238     -0.1225
     77  CA        65.6920   89.6350   54.2250 C.3   238  ASN238      0.1785
     78  C         65.5300   91.0940   53.7700 C.2   238  ASN238      0.2597
     79  O         65.6550   91.3880   52.5790 O.2   238  ASN238     -0.2718
     80  CB        64.3190   89.0350   54.5920 C.3   238  ASN238      0.1169
     81  CG        63.4640   88.8530   53.3570 C.2   238  ASN238      0.2627
     82  OD1       63.9460   88.5370   52.2670 O.2   238  ASN238     -0.2716
     83  ND2       62.2010   89.0640   53.4890 N.am  238  ASN238     -0.0877
     84  N         65.2310   91.9860   54.7050 N.am  239  GLU239     -0.1979
     85  CA        64.9990   93.4070   54.4210 C.3   239  GLU239      0.1602
     86  C         66.2020   94.1330   53.8340 C.2   239  GLU239      0.2287
     87  O         66.0330   95.0300   53.0120 O.2   239  GLU239     -0.2864
     88  CB        64.4930   94.1390   55.6680 C.3   239  GLU239      0.0415
     89  CG        63.0230   93.8430   55.9070 C.3   239  GLU239      0.1163
     90  CD        62.3850   94.4020   57.1600 C.2   239  GLU239      0.3649
     91  OE1       62.9020   95.3880   57.7310 O.co2 239  GLU239     -0.2457
     92  OE2       61.3060   93.8920   57.5230 O.co2 239  GLU239     -0.2457
     93  N         69.5260   88.0050   51.8440 N.3   243  LEU243     -0.1231
     94  CA        69.0510   86.6860   51.4160 C.3   243  LEU243      0.1693
     95  C         69.0100   86.5620   49.8830 C.2   243  LEU243      0.2592
     96  O         69.4080   85.5320   49.3360 O.2   243  LEU243     -0.2718
     97  CB        67.6840   86.3600   52.0470 C.3   243  LEU243      0.0284
     98  CG        67.6060   86.3510   53.5890 C.3   243  LEU243      0.0019
     99  CD1       66.2010   85.8830   54.0610 C.3   243  LEU243      0.0001
    100  CD2       68.6870   85.4450   54.1950 C.3   243  LEU243      0.0001
    101  N         68.5650   87.6210   49.1970 N.am  244  ASP244     -0.1974
    102  CA        68.5200   87.6670   47.7200 C.3   244  ASP244      0.1709
    103  C         69.9500   87.6290   47.1240 C.2   244  ASP244      0.2293
    104  O         70.1860   86.9140   46.1530 O.2   244  ASP244     -0.2864
    105  CB        67.7860   88.9480   47.2600 C.3   244  ASP244      0.1436
    106  CG        66.2800   88.9420   47.5500 C.2   244  ASP244      0.3671
    107  OD1       65.6950   87.8270   47.7010 O.co2 244  ASP244     -0.2456
    108  OD2       65.6740   90.0450   47.5900 O.co2 244  ASP244     -0.2456
@<TRIPOS>BOND
     1   104   103    2
     2   103   102    1
     3   105   106    1
     4   105   102    1
     5   106   108   ar
     6   106   107   ar
     7   102   101    1
     8    41    40    1
     9    39    38    2
    10    46    47    1
    11    46    43    1
    12    42    43    1
    13    43    44    1
    14    38    37    1
    15    40    37    1
    16   101    95   am
    17    34    35    1
    18    34    33    1
    19    96    95    2
    20    37    36    1
    21    33    32    1
    22    95    94    1
    23    36    30   am
    24    44    48   am
    25    44    45    2
    26    48    49    1
    27    51    50    2
    28    55    56    1
    29    55    54    1
    30    32    29    1
    31    30    29    1
    32    30    31    2
    33    94    93    1
    34    94    97    1
    35    29    28    1
    36    53    54    1
    37    53    52    1
    38    49    50    1
    39    49    52    1
    40    50    57   am
    41    97    98    1
    42    82    81    2
    43    79    78    2
    44    20    19    2
    45    28    19   am
    46    57    58    1
    47    87    86    2
    48    58    59    1
    49    81    83   am
    50    81    80    1
    51    19    18    1
    52    98    99    1
    53    98   100    1
    54    78    77    1
    55    78    84   am
    56    86    85    1
    57    59    60    2
    58    77    80    1
    59    77    76    1
    60    25    23   ar
    61    25    27   ar
    62    23    22   ar
    63    85    84    1
    64    85    88    1
    65    18    17    1
    66    18    21    1
    67    14    15    1
    68    14    11    1
    69    27    26   ar
    70    22    21    1
    71    22    24   ar
    72    17    12   am
    73    13    12    2
    74    15    16    1
    75    88    89    1
    76    12    11    1
    77    89    90    1
    78    11    10    1
    79    26    24   ar
    80    16    10    1
    81    90    92   ar
    82    90    91   ar
    83    10     3   am
    84    71    70    2
    85    64    63    2
    86    66    65    1
    87     3     4    2
    88     3     2    1
    89    70    69    1
    90    63    62    1
    91    63    68   am
    92    69    68    1
    93    69    72    1
    94    62    65    1
    95    62    61    1
    96    75    73    1
    97     5     2    1
    98     5     6    1
    99    65    67    1
   100     2     1    1
   101     6     7    1
   102    72    73    1
   103    73    74    1
   104     7     8    1
   105     8     9    1
