@<TRIPOS>MOLECULE
tmp/4x49A00.pdb
 181 170 0 0 0
SMALL
GASTEIGER

@<TRIPOS>ATOM
      1  N        -22.2790   92.2850   20.8770 N.3    23  ARG23      -0.1231
      2  CA       -22.9720   90.9840   20.8160 C.3    23  ARG23       0.1694
      3  C        -22.5180   90.2450   19.5430 C.2    23  ARG23       0.2591
      4  O        -21.8750   90.8330   18.6750 O.2    23  ARG23      -0.2718
      5  CB       -24.4980   91.1820   20.7740 C.3    23  ARG23       0.0321
      6  CG       -25.2620   91.3590   22.0970 C.3    23  ARG23       0.0489
      7  CD       -26.7220   90.9230   21.9700 C.3    23  ARG23       0.2205
      8  NE       -26.8720   89.5460   21.5020 N.pl3  23  ARG23      -0.0865
      9  CZ       -28.0050   88.9310   21.1240 C.cat  23  ARG23       0.5346
     10  NH1      -29.1900   89.5570   21.1550 N.pl3  23  ARG23       0.1354
     11  NH2      -27.9480   87.6380   20.7440 N.pl3  23  ARG23       0.1354
     12  N        -22.9350   88.9650   19.4330 N.am   24  ILE24      -0.1980
     13  CA       -22.8520   88.1310   18.2390 C.3    24  ILE24       0.1595
     14  C        -21.3750   87.8150   17.8750 C.2    24  ILE24       0.2287
     15  O        -20.8470   88.3560   16.9260 O.2    24  ILE24      -0.2864
     16  CB       -23.5710   88.7430   17.0220 C.3    24  ILE24       0.0276
     17  CG1      -24.7840   89.5910   17.3810 C.3    24  ILE24       0.0022
     18  CG2      -23.9290   87.6560   15.9980 C.3    24  ILE24       0.0022
     19  CD1      -25.9000   88.9160   18.1960 C.3    24  ILE24       0.0001
     20  N        -22.3450   97.3780   19.1320 N.3    42  ARG42      -0.1245
     21  CA       -23.6570   97.9080   19.3660 C.3    42  ARG42       0.1563
     22  C        -23.5370   99.1610   20.2530 C.2    42  ARG42       0.2260
     23  O        -23.3810   99.0890   21.4970 O.2    42  ARG42      -0.2867
     24  CB       -24.6080   96.8680   19.9750 C.3    42  ARG42       0.0307
     25  CG       -24.6410   95.5370   19.2400 C.3    42  ARG42       0.0489
     26  CD       -25.8940   94.7080   19.5350 C.3    42  ARG42       0.2205
     27  NE       -26.1600   93.7910   18.4280 N.pl3  42  ARG42      -0.0865
     28  CZ       -27.2240   93.0130   18.3040 C.cat  42  ARG42       0.5346
     29  NH1      -28.1850   93.0190   19.2230 N.pl3  42  ARG42       0.1354
     30  NH2      -27.3200   92.2450   17.2360 N.pl3  42  ARG42       0.1354
     31  N        -30.9020   94.7410   18.9610 N.3    48  ASP48      -0.1225
     32  CA       -30.8800   94.4550   17.5110 C.3    48  ASP48       0.1805
     33  C        -31.3330   95.6860   16.7360 C.2    48  ASP48       0.2597
     34  O        -31.8780   96.6220   17.3060 O.2    48  ASP48      -0.2718
     35  CB       -31.8220   93.2670   17.1860 C.3    48  ASP48       0.1424
     36  CG       -31.2450   91.9610   17.6900 C.2    48  ASP48       0.3668
     37  OD1      -30.0090   91.7710   17.5120 O.co2  48  ASP48      -0.2456
     38  OD2      -32.0030   91.1610   18.2370 O.co2  48  ASP48      -0.2456
     39  N        -31.0690   95.6590   15.4350 N.am   49  ALA49      -0.1979
     40  CA       -31.5000   96.6920   14.5580 C.3    49  ALA49       0.1597
     41  C        -33.0240   96.7100   14.6370 C.2    49  ALA49       0.2287
     42  O        -33.6310   95.6540   14.8050 O.2    49  ALA49      -0.2864
     43  CB       -31.0220   96.3960   13.1540 C.3    49  ALA49       0.0319
     44  N        -25.0800   94.2710   11.1190 N.3   104  ILE104     -0.1231
     45  CA       -25.4320   93.4030   12.2210 C.3   104  ILE104      0.1692
     46  C        -25.2540   91.9370   11.8680 C.2   104  ILE104      0.2592
     47  O        -25.4500   91.5370   10.7240 O.2   104  ILE104     -0.2718
     48  CB       -26.8830   93.7250   12.6500 C.3   104  ILE104      0.0266
     49  CG1      -27.5500   92.6180   13.4370 C.3   104  ILE104      0.0019
     50  CG2      -27.7670   93.9960   11.4490 C.3   104  ILE104      0.0020
     51  CD1      -28.6880   93.1330   14.2890 C.3   104  ILE104      0.0001
     52  N        -24.8070   91.1530   12.8570 N.am  105  ASP105     -0.1974
     53  CA       -24.7200   89.6860   12.8020 C.3   105  ASP105      0.1709
     54  C        -23.6390   89.1530   11.8510 C.2   105  ASP105      0.2293
     55  O        -23.9040   88.7730   10.7150 O.2   105  ASP105     -0.2864
     56  CB       -26.0820   89.0770   12.4460 C.3   105  ASP105      0.1436
     57  CG       -27.0700   89.0970   13.6180 C.2   105  ASP105      0.3671
     58  OD1      -26.7340   89.6360   14.7090 O.co2 105  ASP105     -0.2456
     59  OD2      -28.2060   88.5680   13.4520 O.co2 105  ASP105     -0.2456
     60  N        -25.4180   91.3970    7.8490 N.3   122  ASP122     -0.1239
     61  CA       -26.6780   91.9440    7.3840 C.3   122  ASP122      0.1674
     62  C        -26.5350   93.4760    7.2630 C.2   122  ASP122      0.2266
     63  O        -25.8900   94.0900    8.0960 O.2   122  ASP122     -0.2867
     64  CB       -27.8010   91.7230    8.3780 C.3   122  ASP122      0.1410
     65  CG       -27.9840   90.2790    8.8020 C.2   122  ASP122      0.3668
     66  OD1      -27.6990   89.3580    7.9860 O.co2 122  ASP122     -0.2456
     67  OD2      -28.5430   90.1170    9.9220 O.co2 122  ASP122     -0.2456
     68  N        -28.5940   96.9670    7.0570 N.3   124  MET124     -0.1245
     69  CA       -29.8940   97.5840    7.3070 C.3   124  MET124      0.1570
     70  C        -29.9820   99.0640    6.9580 C.2   124  MET124      0.2261
     71  O        -29.2950   99.8470    7.5870 O.2   124  MET124     -0.2867
     72  CB       -30.2090   97.4610    8.8070 C.3   124  MET124      0.0387
     73  CG       -30.1850   96.0230    9.3950 C.3   124  MET124      0.0595
     74  SD       -31.4320   94.9190    8.6840 S.3   124  MET124     -0.1393
     75  CE       -31.2510   93.5740    9.8280 C.3   124  MET124      0.0692
     76  N        -35.0900   93.5510   11.1540 N.3   130  SER130     -0.1217
     77  CA       -35.8430   92.4150   10.5980 C.3   130  SER130      0.1889
     78  C        -37.3530   92.6880   10.6990 C.2   130  SER130      0.2288
     79  O        -38.1510   92.3320    9.8000 O.2   130  SER130     -0.2866
     80  CB       -35.4490   91.1190   11.3630 C.3   130  SER130      0.2089
     81  OG       -35.7180   91.2250   12.7690 O.3   130  SER130     -0.2183
     82  N        -37.4180   89.4530    5.3290 N.3   266  PHE266     -0.1241
     83  CA       -36.0270   89.5030    5.6210 C.3   266  PHE266      0.1605
     84  C        -35.3050   88.2180    5.1510 C.2   266  PHE266      0.2264
     85  O        -35.8630   87.1480    5.0520 O.2   266  PHE266     -0.2867
     86  CB       -35.7980   89.7650    7.1240 C.3   266  PHE266      0.0534
     87  CG       -36.2800   88.6690    8.0360 C.ar  266  PHE266     -0.0203
     88  CD1      -35.5590   87.4980    8.1840 C.ar  266  PHE266     -0.0042
     89  CD2      -37.4430   88.8060    8.7760 C.ar  266  PHE266     -0.0042
     90  CE1      -35.9990   86.4910    9.0360 C.ar  266  PHE266     -0.0003
     91  CE2      -37.8990   87.7840    9.5930 C.ar  266  PHE266     -0.0003
     92  CZ       -37.1490   86.6310    9.7510 C.ar  266  PHE266     -0.0000
     93  N        -31.3040   86.9420    6.1880 N.3   268  VAL268     -0.1245
     94  CA       -30.2220   87.3730    7.0300 C.3   268  VAL268      0.1561
     95  C        -29.2600   86.2030    7.2870 C.2   268  VAL268      0.2260
     96  O        -29.6030   85.0340    6.9960 O.2   268  VAL268     -0.2867
     97  CB       -30.7680   87.8620    8.3720 C.3   268  VAL268      0.0252
     98  CG1      -31.5790   89.1390    8.1860 C.3   268  VAL268      0.0019
     99  CG2      -31.6440   86.7690    9.0130 C.3   268  VAL268      0.0019
    100  N        -31.1130   82.5260    6.8820 N.3   291  TYR291     -0.1298
    101  CA       -32.4720   82.1590    7.1600 C.3   291  TYR291      0.1290
    102  C        -33.3700   83.3600    6.8060 C.3   291  TYR291      0.2013
    103  O        -32.8660   84.5440    6.6400 O.3   291  TYR291     -0.2188
    104  CB       -32.6270   81.6870    8.6130 C.3   291  TYR291      0.0480
    105  CG       -32.4430   82.7820    9.6580 C.ar  291  TYR291     -0.0204
    106  CD1      -31.1910   83.1420   10.1270 C.ar  291  TYR291     -0.0009
    107  CD2      -33.5430   83.4720   10.1610 C.ar  291  TYR291     -0.0009
    108  CE1      -31.0580   84.1430   11.0940 C.ar  291  TYR291      0.0417
    109  CE2      -33.4220   84.4280   11.1320 C.ar  291  TYR291      0.0417
    110  CZ       -32.1830   84.7810   11.5980 C.ar  291  TYR291      0.1957
    111  OH       -32.0760   85.8370   12.5160 O.3   291  TYR291     -0.2866
    112  N        -36.4110   81.8180   13.7150 N.3   323  THR323     -0.1218
    113  CA       -35.0460   82.3040   13.7900 C.3   323  THR323      0.1862
    114  C        -34.0800   81.1390   13.5380 C.2   323  THR323      0.2287
    115  O        -33.4340   80.6510   14.4630 O.2   323  THR323     -0.2866
    116  CB       -34.8490   82.9770   15.1710 C.3   323  THR323      0.1770
    117  OG1      -35.7920   84.0640   15.3080 O.3   323  THR323     -0.2211
    118  CG2      -33.4560   83.5170   15.3040 C.3   323  THR323      0.0375
    119  N        -31.1840   80.1540   12.7390 N.3   325  GLU325     -0.1245
    120  CA       -29.7450   80.3700   12.7020 C.3   325  GLU325      0.1567
    121  C        -29.0480   79.0450   12.7310 C.2   325  GLU325      0.2260
    122  O        -29.3410   78.1950   13.6040 O.2   325  GLU325     -0.2867
    123  CB       -29.3060   81.2040   13.9100 C.3   325  GLU325      0.0388
    124  CG       -29.8920   82.6350   13.9270 C.3   325  GLU325      0.1160
    125  CD       -29.7230   83.2330   15.2780 C.2   325  GLU325      0.3649
    126  OE1      -29.8500   82.4300   16.2420 O.co2 325  GLU325     -0.2457
    127  OE2      -29.4340   84.4720   15.3670 O.co2 325  GLU325     -0.2457
    128  N        -30.9320   76.3520   15.1230 N.3   341  ARG341     -0.1245
    129  CA       -31.9620   76.8150   16.0220 C.3   341  ARG341      0.1563
    130  C        -33.3050   76.6840   15.3270 C.2   341  ARG341      0.2260
    131  O        -33.3690   76.8010   14.0990 O.2   341  ARG341     -0.2867
    132  CB       -31.6720   78.3180   16.2840 C.3   341  ARG341      0.0307
    133  CG       -32.6730   79.0660   17.1290 C.3   341  ARG341      0.0489
    134  CD       -32.1630   80.4870   17.4500 C.3   341  ARG341      0.2205
    135  NE       -33.1150   81.3460   18.0810 N.pl3 341  ARG341     -0.0865
    136  CZ       -32.8750   82.5950   18.4770 C.cat 341  ARG341      0.5346
    137  NH1      -31.6810   83.1410   18.2800 N.pl3 341  ARG341      0.1354
    138  NH2      -33.8390   83.3130   19.0320 N.pl3 341  ARG341      0.1354
    139  N        -31.3630   81.5690   28.9510 N.3   403  ARG403     -0.1245
    140  CA       -30.1080   81.3390   28.2880 C.3   403  ARG403      0.1563
    141  C        -29.0020   81.2050   29.3450 C.2   403  ARG403      0.2260
    142  O        -28.4330   82.2080   29.8680 O.2   403  ARG403     -0.2867
    143  CB       -29.8350   82.5060   27.3220 C.3   403  ARG403      0.0307
    144  CG       -30.6650   82.4190   26.0430 C.3   403  ARG403      0.0489
    145  CD       -30.4020   83.5160   25.0370 C.3   403  ARG403      0.2205
    146  NE       -31.1030   83.2600   23.7830 N.pl3 403  ARG403     -0.0865
    147  CZ       -31.1870   84.1080   22.7600 C.cat 403  ARG403      0.5346
    148  NH1      -30.6210   85.3280   22.8260 N.pl3 403  ARG403      0.1354
    149  NH2      -31.8350   83.7300   21.6550 N.pl3 403  ARG403      0.1354
    150  N        -25.1170   83.4620   22.7420 N.3   443  TYR443     -0.1241
    151  CA       -24.4890   83.1450   21.4860 C.3   443  TYR443      0.1605
    152  C        -22.9850   82.8770   21.6960 C.2   443  TYR443      0.2264
    153  O        -22.3670   83.3980   22.6460 O.2   443  TYR443     -0.2867
    154  CB       -24.6240   84.3220   20.4920 C.3   443  TYR443      0.0534
    155  CG       -25.9780   84.5030   19.8290 C.ar  443  TYR443     -0.0201
    156  CD1      -27.1310   84.2730   20.5120 C.ar  443  TYR443     -0.0009
    157  CD2      -26.0880   85.0510   18.5110 C.ar  443  TYR443     -0.0009
    158  CE1      -28.3670   84.4860   19.8890 C.ar  443  TYR443      0.0417
    159  CE2      -27.3170   85.2510   17.8950 C.ar  443  TYR443      0.0417
    160  CZ       -28.4360   84.9430   18.5970 C.ar  443  TYR443      0.1957
    161  OH       -29.6410   85.1110   18.0700 O.3   443  TYR443     -0.2866
    162  N        -29.0050   87.0990   26.6330 N.3   463  SER463     -0.1202
    163  CA       -29.1730   88.2020   25.6430 C.3   463  SER463      0.2020
    164  C        -30.5840   88.3200   25.0790 C.2   463  SER463      0.2618
    165  O        -30.8800   89.1720   24.2150 O.2   463  SER463     -0.2717
    166  CB       -28.1540   88.0450   24.5110 C.3   463  SER463      0.2103
    167  OG       -28.3570   86.8360   23.7560 O.3   463  SER463     -0.2182
    168  N        -31.4590   87.4900   25.5820 N.am  464  TRP464     -0.1975
    169  CA       -32.8790   87.4760   25.2170 C.3   464  TRP464      0.1640
    170  C        -33.6440   88.2040   26.2810 C.2   464  TRP464      0.2290
    171  O        -34.5210   88.9850   26.0070 O.2   464  TRP464     -0.2864
    172  CB       -33.3910   86.0180   25.1610 C.3   464  TRP464      0.0576
    173  CG       -34.8180   85.9270   24.7210 C.ar  464  TRP464      0.0006
    174  CD1      -35.9430   85.8650   25.5170 C.ar  464  TRP464      0.0946
    175  CD2      -35.2940   85.9990   23.3760 C.ar  464  TRP464      0.0152
    176  NE1      -37.0970   85.8420   24.7310 N.ar  464  TRP464     -0.2442
    177  CE2      -36.7240   85.9050   23.4190 C.ar  464  TRP464      0.0810
    178  CE3      -34.6570   86.0700   22.1350 C.ar  464  TRP464      0.0012
    179  CZ2      -37.5140   85.8880   22.2690 C.ar  464  TRP464      0.0191
    180  CZ3      -35.4490   86.0920   20.9900 C.ar  464  TRP464      0.0001
    181  CH2      -36.8690   86.0030   21.0750 C.ar  464  TRP464      0.0015
@<TRIPOS>BOND
     1    85    84    2
     2    84    83    1
     3    82    83    1
     4    83    86    1
     5    93    94    1
     6   103   102    1
     7   102   101    1
     8   100   101    1
     9    70    69    1
    10    70    71    2
    11    96    95    2
    12    94    95    1
    13    94    97    1
    14    68    69    1
    15    86    87    1
    16   101   104    1
    17    62    61    1
    18    62    63    2
    19    69    72    1
    20    61    60    1
    21    61    64    1
    22    66    65   ar
    23    87    88   ar
    24    87    89   ar
    25    88    90   ar
    26    98    97    1
    27    97    99    1
    28    64    65    1
    29   104   105    1
    30    74    73    1
    31    74    75    1
    32    89    91   ar
    33    65    67   ar
    34    72    73    1
    35    90    92   ar
    36    91    92   ar
    37   105   106   ar
    38   105   107   ar
    39    79    78    2
    40   106   108   ar
    41   107   109   ar
    42    77    78    1
    43    77    76    1
    44    77    80    1
    45    55    54    2
    46    47    46    2
    47   108   110   ar
    48    44    45    1
    49   109   110   ar
    50    80    81    1
    51    50    48    1
    52   110   111    1
    53    54    53    1
    54    46    45    1
    55    46    52   am
    56    45    48    1
    57    56    53    1
    58    56    57    1
    59    48    49    1
    60   120   121    1
    61   120   119    1
    62   120   123    1
    63   121   122    2
    64    53    52    1
    65    43    40    1
    66    49    51    1
    67    59    57   ar
    68   114   113    1
    69   114   115    2
    70    57    58   ar
    71   112   113    1
    72   113   116    1
    73   123   124    1
    74   124   125    1
    75   131   130    2
    76    40    41    1
    77    40    39    1
    78    41    42    2
    79   128   129    1
    80   116   118    1
    81   116   117    1
    82   125   127   ar
    83   125   126   ar
    84   130   129    1
    85    39    33   am
    86    18    16    1
    87   129   132    1
    88   132   133    1
    89    33    34    2
    90    33    32    1
    91    15    14    2
    92    16    17    1
    93    16    13    1
    94   133   134    1
    95    35    32    1
    96    35    36    1
    97    30    28    1
    98    17    19    1
    99   134   135    1
   100    32    31    1
   101    37    36   ar
   102    36    38   ar
   103    14    13    1
   104   159   157   ar
   105   159   160   ar
   106   161   160    1
   107   135   136    2
   108    13    12    1
   109   137   136    1
   110    28    27    2
   111    28    29    1
   112    27    26    1
   113   136   138    1
   114   157   155   ar
   115   160   158   ar
   116     4     3    2
   117    20    21    1
   118    25    26    1
   119    25    24    1
   120    21    24    1
   121    21    22    1
   122    12     3   am
   123     3     2    1
   124   155   154    1
   125   155   156   ar
   126   158   156   ar
   127    22    23    2
   128   154   151    1
   129    11     9    1
   130     5     2    1
   131     5     6    1
   132     2     1    1
   133   180   181   ar
   134   180   178   ar
   135   181   179   ar
   136     9    10    1
   137     9     8    2
   138   151   152    1
   139   151   150    1
   140     8     7    1
   141   149   147    1
   142   152   153    2
   143     7     6    1
   144   178   175   ar
   145   179   177   ar
   146   147   148    1
   147   147   146    2
   148   175   177   ar
   149   175   173   ar
   150   177   176   ar
   151   167   166    1
   152   146   145    1
   153   165   164    2
   154   166   163    1
   155   173   172    1
   156   173   174   ar
   157   176   174   ar
   158   145   144    1
   159   164   168   am
   160   164   163    1
   161   172   169    1
   162   169   168    1
   163   169   170    1
   164   163   162    1
   165   171   170    2
   166   144   143    1
   167   143   140    1
   168   140   139    1
   169   140   141    1
   170   141   142    2
