@<TRIPOS>MOLECULE
tmp/4x4aA00.pdb
 170 159 0 0 0
SMALL
GASTEIGER

@<TRIPOS>ATOM
      1  N        126.8060    4.6930   19.0500 N.3    19  ARG19      -0.1231
      2  CA       126.0640    3.4010   19.0470 C.3    19  ARG19       0.1694
      3  C        126.5410    2.6700   17.8120 C.2    19  ARG19       0.2591
      4  O        127.1490    3.2490   16.9420 O.2    19  ARG19      -0.2718
      5  CB       124.5650    3.6290   18.9890 C.3    19  ARG19       0.0321
      6  CG       123.8820    3.7400   20.3440 C.3    19  ARG19       0.0489
      7  CD       122.4050    3.3580   20.2420 C.3    19  ARG19       0.2205
      8  NE       122.2730    1.9300   19.8800 N.pl3  19  ARG19      -0.0865
      9  CZ       121.1710    1.2990   19.4940 C.cat  19  ARG19       0.5346
     10  NH1      120.0040    1.9250   19.4120 N.pl3  19  ARG19       0.1354
     11  NH2      121.2690   -0.0110   19.1000 N.pl3  19  ARG19       0.1354
     12  N        126.1940    1.3770   17.7010 N.am   20  ILE20      -0.1980
     13  CA       126.2690    0.6120   16.4530 C.3    20  ILE20       0.1595
     14  C        127.7040    0.2440   16.0660 C.2    20  ILE20       0.2287
     15  O        128.2540    0.7770   15.0720 O.2    20  ILE20      -0.2864
     16  CB       125.5020    1.2010   15.2570 C.3    20  ILE20       0.0276
     17  CG1      124.2130    1.9630   15.5770 C.3    20  ILE20       0.0022
     18  CG2      125.1820    0.0500   14.2990 C.3    20  ILE20       0.0022
     19  CD1      123.1580    1.1850   16.3510 C.3    20  ILE20       0.0001
     20  N        126.5150    9.7260   17.2870 N.3    38  ARG38      -0.1245
     21  CA       125.1620   10.2380   17.5000 C.3    38  ARG38       0.1563
     22  C        125.2690   11.5430   18.3560 C.2    38  ARG38       0.2260
     23  O        125.4240   11.5090   19.6030 O.2    38  ARG38      -0.2867
     24  CB       124.2390    9.1830   18.1300 C.3    38  ARG38       0.0307
     25  CG       124.1470    7.8900   17.3230 C.3    38  ARG38       0.0489
     26  CD       122.9920    7.0470   17.7190 C.3    38  ARG38       0.2205
     27  NE       122.7290    6.0250   16.7240 N.pl3  38  ARG38      -0.0865
     28  CZ       121.6730    5.2200   16.6880 C.cat  38  ARG38       0.5346
     29  NH1      120.7490    5.3220   17.5800 N.pl3  38  ARG38       0.1354
     30  NH2      121.5500    4.3190   15.6720 N.pl3  38  ARG38       0.1354
     31  N        118.0210    7.1880   17.2010 N.3    44  ASP44      -0.1225
     32  CA       118.1840    6.8160   15.8050 C.3    44  ASP44       0.1805
     33  C        117.8200    8.0460   14.9420 C.2    44  ASP44       0.2597
     34  O        117.1970    9.0010   15.4380 O.2    44  ASP44      -0.2718
     35  CB       117.1810    5.7460   15.4140 C.3    44  ASP44       0.1424
     36  CG       117.1650    4.5590   16.3320 C.2    44  ASP44       0.3668
     37  OD1      118.2230    4.1360   16.9330 O.co2  44  ASP44      -0.2456
     38  OD2      116.0370    3.9880   16.4120 O.co2  44  ASP44      -0.2456
     39  N        118.1240    7.9750   13.6570 N.am   45  ALA45      -0.1979
     40  CA       117.6870    8.9800   12.7350 C.3    45  ALA45       0.1597
     41  C        116.1310    8.8990   12.7490 C.2    45  ALA45       0.2287
     42  O        115.5990    7.8130   12.8650 O.2    45  ALA45      -0.2864
     43  CB       118.2510    8.7070   11.3730 C.3    45  ALA45       0.0319
     44  N        123.8070    6.4720    9.2560 N.3   100  ILE100     -0.1231
     45  CA       123.4840    5.6280   10.3660 C.3   100  ILE100      0.1692
     46  C        123.7010    4.1920    9.9920 C.2   100  ILE100      0.2592
     47  O        123.3780    3.8100    8.8300 O.2   100  ILE100     -0.2718
     48  CB       122.0180    5.8550   10.8140 C.3   100  ILE100      0.0266
     49  CG1      121.6270    4.8840   11.9180 C.3   100  ILE100      0.0019
     50  CG2      120.9890    5.8520    9.6480 C.3   100  ILE100      0.0020
     51  CD1      120.3660    5.3140   12.6880 C.3   100  ILE100      0.0001
     52  N        124.1960    3.3990   10.9770 N.am  101  ASP101     -0.1974
     53  CA       124.2790    1.9690   10.9350 C.3   101  ASP101      0.1709
     54  C        125.4000    1.4730    9.9600 C.2   101  ASP101      0.2293
     55  O        125.1280    0.9230    8.8820 O.2   101  ASP101     -0.2864
     56  CB       122.9450    1.2640   10.5720 C.3   101  ASP101      0.1436
     57  CG       121.9470    1.2350   11.7280 C.2   101  ASP101      0.3671
     58  OD1      122.2790    1.7140   12.8770 O.co2 101  ASP101     -0.2456
     59  OD2      120.7910    0.7060   11.4740 O.co2 101  ASP101     -0.2456
     60  N        123.6520    3.6310    6.0840 N.3   118  ASP118     -0.1239
     61  CA       122.3940    4.2240    5.6360 C.3   118  ASP118      0.1674
     62  C        122.5750    5.7410    5.5010 C.2   118  ASP118      0.2266
     63  O        123.0960    6.3480    6.4000 O.2   118  ASP118     -0.2867
     64  CB       121.2010    3.9420    6.5630 C.3   118  ASP118      0.1410
     65  CG       121.0370    2.4870    6.9060 C.2   118  ASP118      0.3668
     66  OD1      121.3670    1.5580    6.1050 O.co2 118  ASP118     -0.2456
     67  OD2      120.5410    2.2540    8.0390 O.co2 118  ASP118     -0.2456
     68  N        120.4100    9.1710    5.1600 N.3   120  MET120     -0.1245
     69  CA       119.1020    9.6920    5.4410 C.3   120  MET120      0.1570
     70  C        119.0200   11.1840    5.1100 C.2   120  MET120      0.2261
     71  O        119.7820   11.9720    5.6440 O.2   120  MET120     -0.2867
     72  CB       118.7160    9.5190    6.9010 C.3   120  MET120      0.0387
     73  CG       118.8360    8.0930    7.4480 C.3   120  MET120      0.0595
     74  SD       117.6100    7.0530    6.7280 S.3   120  MET120     -0.1393
     75  CE       117.8480    5.5980    7.7670 C.3   120  MET120      0.0692
     76  N        114.2760    5.6240    9.2100 N.3   126  SER126     -0.1217
     77  CA       113.6070    4.5070    8.6180 C.3   126  SER126      0.1889
     78  C        112.1000    4.6280    8.8950 C.2   126  SER126      0.2288
     79  O        111.2960    4.2640    8.0510 O.2   126  SER126     -0.2866
     80  CB       114.2880    3.1530    8.9920 C.3   126  SER126      0.2089
     81  OG       114.2040    2.9810   10.3970 O.3   126  SER126     -0.2183
     82  N        117.7710   -0.8840    4.2610 N.3   264  VAL264     -0.1245
     83  CA       118.8770   -0.4490    5.0900 C.3   264  VAL264      0.1561
     84  C        119.8120   -1.6420    5.3860 C.2   264  VAL264      0.2260
     85  O        119.4570   -2.8200    5.1420 O.2   264  VAL264     -0.2867
     86  CB       118.3130    0.1930    6.3820 C.3   264  VAL264      0.0252
     87  CG1      117.5660    1.4900    6.0740 C.3   264  VAL264      0.0019
     88  CG2      117.4220   -0.7660    7.1460 C.3   264  VAL264      0.0019
     89  N        118.0780   -5.2030    5.2570 N.3   287  TYR287     -0.1241
     90  CA       116.6760   -5.5290    5.5410 C.3   287  TYR287      0.1605
     91  C        115.7680   -4.4110    5.1240 C.2   287  TYR287      0.2264
     92  O        116.1890   -3.2860    4.9450 O.2   287  TYR287     -0.2867
     93  CB       116.4500   -5.9380    7.0260 C.3   287  TYR287      0.0534
     94  CG       116.5930   -4.7840    7.9880 C.ar  287  TYR287     -0.0201
     95  CD1      117.8320   -4.4500    8.5150 C.ar  287  TYR287     -0.0009
     96  CD2      115.4730   -4.0340    8.4240 C.ar  287  TYR287     -0.0009
     97  CE1      117.9830   -3.4090    9.4020 C.ar  287  TYR287      0.0417
     98  CE2      115.5950   -3.0000    9.3310 C.ar  287  TYR287      0.0417
     99  CZ       116.8650   -2.6490    9.8100 C.ar  287  TYR287      0.1957
    100  OH       117.0570   -1.6050   10.6800 O.3   287  TYR287     -0.2866
    101  N        112.9970   -5.4650   12.2110 N.3   319  THR319     -0.1218
    102  CA       114.4320   -5.0670   12.1490 C.3   319  THR319      0.1862
    103  C        115.2840   -6.3260   12.0060 C.2   319  THR319      0.2287
    104  O        115.9320   -6.7730   12.9520 O.2   319  THR319     -0.2866
    105  CB       114.7600   -4.2130   13.3950 C.3   319  THR319      0.1770
    106  OG1      113.8070   -3.1460   13.5140 O.3   319  THR319     -0.2211
    107  CG2      116.1360   -3.6520   13.3390 C.3   319  THR319      0.0375
    108  N        118.1250   -7.4290   11.1380 N.3   321  GLU321     -0.1245
    109  CA       119.5790   -7.2870   11.0600 C.3   321  GLU321      0.1567
    110  C        120.2500   -8.6380   11.0720 C.2   321  GLU321      0.2260
    111  O        120.0470   -9.4170   11.9840 O.2   321  GLU321     -0.2867
    112  CB       120.0620   -6.4720   12.2330 C.3   321  GLU321      0.0388
    113  CG       119.5000   -5.0230   12.2760 C.3   321  GLU321      0.1160
    114  CD       119.5820   -4.4300   13.6570 C.2   321  GLU321      0.3649
    115  OE1      119.5240   -5.2160   14.6130 O.co2 321  GLU321     -0.2457
    116  OE2      119.7400   -3.1560   13.7940 O.co2 321  GLU321     -0.2457
    117  N        118.4300  -11.2530   13.5330 N.3   337  ARG337     -0.1245
    118  CA       117.4010  -10.7760   14.3600 C.3   337  ARG337      0.1563
    119  C        116.0590  -10.8900   13.6220 C.2   337  ARG337      0.2260
    120  O        116.0130  -10.7950   12.3900 O.2   337  ARG337     -0.2867
    121  CB       117.7090   -9.3150   14.6820 C.3   337  ARG337      0.0307
    122  CG       116.6820   -8.5420   15.4530 C.3   337  ARG337      0.0489
    123  CD       117.1610   -7.1260   15.7470 C.3   337  ARG337      0.2205
    124  NE       116.1260   -6.2810   16.3680 N.pl3 337  ARG337     -0.0865
    125  CZ       116.2750   -4.9890   16.6860 C.cat 337  ARG337      0.5346
    126  NH1      117.4650   -4.4280   16.4450 N.pl3 337  ARG337      0.1354
    127  NH2      115.2610   -4.2740   17.2270 N.pl3 337  ARG337      0.1354
    128  N        117.7870   -5.9030   27.0800 N.3   399  ARG399     -0.1245
    129  CA       119.0320   -6.1990   26.4350 C.3   399  ARG399      0.1563
    130  C        120.1370   -6.2800   27.4980 C.2   399  ARG399      0.2260
    131  O        120.6730   -5.2350   27.9470 O.2   399  ARG399     -0.2867
    132  CB       119.3620   -5.1280   25.3800 C.3   399  ARG399      0.0307
    133  CG       118.4410   -5.0840   24.1670 C.3   399  ARG399      0.0489
    134  CD       118.8370   -4.0500   23.1010 C.3   399  ARG399      0.2205
    135  NE       118.0750   -4.2430   21.8830 N.pl3 399  ARG399     -0.0865
    136  CZ       117.9340   -3.3620   20.9040 C.cat 399  ARG399      0.5346
    137  NH1      118.5240   -2.1430   20.9460 N.pl3 399  ARG399      0.1354
    138  NH2      117.2880   -3.7270   19.8380 N.pl3 399  ARG399      0.1354
    139  N        124.1370   -3.9290   21.0930 N.3   439  TYR439     -0.1241
    140  CA       124.7480   -4.2540   19.8100 C.3   439  TYR439      0.1605
    141  C        126.2100   -4.5980   20.0340 C.2   439  TYR439      0.2264
    142  O        126.8430   -4.1190   20.9900 O.2   439  TYR439     -0.2867
    143  CB       124.6030   -3.1320   18.8010 C.3   439  TYR439      0.0534
    144  CG       123.2400   -2.9360   18.1420 C.ar  439  TYR439     -0.0201
    145  CD1      122.0180   -3.2200   18.7840 C.ar  439  TYR439     -0.0009
    146  CD2      123.1630   -2.5270   16.7980 C.ar  439  TYR439     -0.0009
    147  CE1      120.7900   -3.0350   18.1200 C.ar  439  TYR439      0.0417
    148  CE2      121.9620   -2.3510   16.1580 C.ar  439  TYR439      0.0417
    149  CZ       120.7690   -2.6380   16.8300 C.ar  439  TYR439      0.1957
    150  OH       119.5900   -2.3940   16.2140 O.3   439  TYR439     -0.2866
    151  N        120.2590   -0.4460   24.9450 N.3   459  SER459     -0.1202
    152  CA       120.0330    0.6400   23.9940 C.3   459  SER459      0.2020
    153  C        118.6170    0.6700   23.4410 C.2   459  SER459      0.2618
    154  O        118.2950    1.5290   22.5960 O.2   459  SER459     -0.2717
    155  CB       121.0500    0.5110   22.8280 C.3   459  SER459      0.2103
    156  OG       120.8420   -0.7380   22.1590 O.3   459  SER459     -0.2182
    157  N        117.7500   -0.2380   23.8920 N.am  460  TRP460     -0.1975
    158  CA       116.3280   -0.1480   23.5430 C.3   460  TRP460      0.1640
    159  C        115.6020    0.6840   24.5740 C.2   460  TRP460      0.2290
    160  O        114.6980    1.4330   24.2450 O.2   460  TRP460     -0.2864
    161  CB       115.7410   -1.5440   23.4500 C.3   460  TRP460      0.0576
    162  CG       114.3380   -1.5670   23.0550 C.ar  460  TRP460      0.0006
    163  CD1      113.2090   -1.6510   23.8920 C.ar  460  TRP460      0.0946
    164  CD2      113.8420   -1.5920   21.7200 C.ar  460  TRP460      0.0152
    165  NE1      112.0810   -1.7190   23.1150 N.ar  460  TRP460     -0.2442
    166  CE2      112.4350   -1.7260   21.7930 C.ar  460  TRP460      0.0810
    167  CE3      114.4460   -1.5510   20.4590 C.ar  460  TRP460      0.0012
    168  CZ2      111.6550   -1.7770   20.6650 C.ar  460  TRP460      0.0191
    169  CZ3      113.6630   -1.6440   19.3530 C.ar  460  TRP460      0.0001
    170  CH2      112.2740   -1.7650   19.4610 C.ar  460  TRP460      0.0015
@<TRIPOS>BOND
     1    82    83    1
     2    92    91    2
     3    83    84    1
     4    83    86    1
     5    70    69    1
     6    70    71    2
     7    91    90    1
     8    85    84    2
     9    68    69    1
    10    89    90    1
    11    69    72    1
    12    62    61    1
    13    62    63    2
    14    90    93    1
    15    61    60    1
    16    61    64    1
    17    87    86    1
    18    66    65   ar
    19    86    88    1
    20    64    65    1
    21    74    73    1
    22    74    75    1
    23    72    73    1
    24    65    67   ar
    25    93    94    1
    26    94    96   ar
    27    94    95   ar
    28    79    78    2
    29    96    98   ar
    30    95    97   ar
    31    77    78    1
    32    77    80    1
    33    77    76    1
    34    47    46    2
    35    55    54    2
    36    80    81    1
    37    44    45    1
    38    98    99   ar
    39    97    99   ar
    40    50    48    1
    41    99   100    1
    42    54    53    1
    43    46    45    1
    44    46    52   am
    45    45    48    1
    46    56    53    1
    47    56    57    1
    48    48    49    1
    49    53    52    1
    50   109   110    1
    51   109   108    1
    52   109   112    1
    53   110   111    2
    54    43    40    1
    55    59    57   ar
    56    57    58   ar
    57    49    51    1
    58   103   102    1
    59   103   104    2
    60   102   101    1
    61   102   105    1
    62   112   113    1
    63   113   114    1
    64   120   119    2
    65    40    41    1
    66    40    39    1
    67    41    42    2
    68   107   105    1
    69   105   106    1
    70   117   118    1
    71   119   118    1
    72    39    33   am
    73   114   116   ar
    74   114   115   ar
    75    18    16    1
    76   118   121    1
    77   121   122    1
    78    33    34    2
    79    33    32    1
    80    15    14    2
    81    16    17    1
    82    16    13    1
    83    35    32    1
    84    35    36    1
    85   122   123    1
    86    17    19    1
    87    30    28    1
    88   123   124    1
    89    32    31    1
    90    14    13    1
    91   148   146   ar
    92   148   149   ar
    93   150   149    1
    94    36    38   ar
    95    36    37   ar
    96   124   125    2
    97   126   125    1
    98    13    12    1
    99   125   127    1
   100    28    27    2
   101    28    29    1
   102    27    26    1
   103   146   144   ar
   104   149   147   ar
   105     4     3    2
   106    20    21    1
   107    25    26    1
   108    25    24    1
   109    21    24    1
   110    21    22    1
   111    12     3   am
   112     3     2    1
   113   147   145   ar
   114   144   145   ar
   115   144   143    1
   116    22    23    2
   117   143   140    1
   118     5     2    1
   119     5     6    1
   120     2     1    1
   121    11     9    1
   122   169   170   ar
   123   169   167   ar
   124    10     9    1
   125   170   168   ar
   126     9     8    2
   127   140   141    1
   128   140   139    1
   129   138   136    1
   130     8     7    1
   131   141   142    2
   132     7     6    1
   133   167   164   ar
   134   168   166   ar
   135   136   137    1
   136   136   135    2
   137   164   166   ar
   138   164   162   ar
   139   166   165   ar
   140   135   134    1
   141   156   155    1
   142   154   153    2
   143   155   152    1
   144   162   161    1
   145   162   163   ar
   146   134   133    1
   147   165   163   ar
   148   153   157   am
   149   153   152    1
   150   161   158    1
   151   158   157    1
   152   158   159    1
   153   152   151    1
   154   133   132    1
   155   160   159    2
   156   132   129    1
   157   129   128    1
   158   129   130    1
   159   130   131    2
