@<TRIPOS>MOLECULE
tmp/4x4kA02.pdb
 145 144 0 0 0
SMALL
GASTEIGER

@<TRIPOS>ATOM
      1  N         12.5580  -11.9910  -31.4290 N.3    25  ASN25      -0.1240
      2  CA        13.4510  -12.2460  -30.3250 C.3    25  ASN25       0.1653
      3  C         14.7020  -11.4380  -30.6210 C.2    25  ASN25       0.2266
      4  O         15.3070  -11.6180  -31.6460 O.2    25  ASN25      -0.2867
      5  CB        13.7390  -13.7430  -30.2270 C.3    25  ASN25       0.1155
      6  CG        14.2470  -14.1580  -28.8670 C.2    25  ASN25       0.2627
      7  OD1       14.6290  -13.3260  -28.0410 O.2    25  ASN25      -0.2716
      8  ND2       14.2680  -15.4650  -28.6310 N.am   25  ASN25      -0.0877
      9  N         11.7720   -8.9320  -26.3760 N.3    38  MET38      -0.1245
     10  CA        10.7750   -9.4200  -27.3310 C.3    38  MET38       0.1570
     11  C         10.1580   -8.1820  -27.9150 C.2    38  MET38       0.2261
     12  O          9.6140   -7.3560  -27.1800 O.2    38  MET38      -0.2867
     13  CB         9.7350  -10.3150  -26.6630 C.3    38  MET38       0.0387
     14  CG        10.3510  -11.4980  -25.9620 C.3    38  MET38       0.0595
     15  SD         9.1500  -12.6990  -25.3910 S.3    38  MET38      -0.1393
     16  CE        10.2710  -13.7860  -24.5130 C.3    38  MET38       0.0692
     17  N          9.6860  -19.7910  -28.9830 N.3    67  HIS67      -0.1226
     18  CA         9.2080  -20.5120  -27.7920 C.3    67  HIS67       0.1752
     19  C          8.0020  -19.9220  -27.0010 C.2    67  HIS67       0.2596
     20  O          7.7420  -20.3050  -25.8490 O.2    67  HIS67      -0.2718
     21  CB        10.4100  -20.8560  -26.8730 C.3    67  HIS67       0.0759
     22  CG        11.5010  -21.6220  -27.5700 C.ar   67  HIS67       0.0818
     23  ND1       11.2550  -22.7500  -28.3330 N.ar   67  HIS67      -0.2268
     24  CD2       12.8370  -21.4120  -27.6350 C.ar   67  HIS67       0.1154
     25  CE1       12.3900  -23.1920  -28.8450 C.ar   67  HIS67       0.1986
     26  NE2       13.3680  -22.4060  -28.4250 N.ar   67  HIS67      -0.2212
     27  N          7.2730  -18.9970  -27.6140 N.am   68  ASN68      -0.1960
     28  CA         6.0470  -18.4300  -27.0100 C.3    68  ASN68       0.1819
     29  C          5.0270  -18.3340  -28.1180 C.2    68  ASN68       0.2621
     30  O          5.3800  -17.9680  -29.2330 O.2    68  ASN68      -0.2715
     31  CB         6.2130  -16.9630  -26.5520 C.3    68  ASN68       0.1195
     32  CG         6.9970  -16.7750  -25.2720 C.2    68  ASN68       0.2630
     33  OD1        7.3930  -15.6350  -24.9640 O.2    68  ASN68      -0.2716
     34  ND2        7.2190  -17.8480  -24.5110 N.am   68  ASN68      -0.0877
     35  N          3.7590  -18.5790  -27.8090 N.am   69  GLY69      -0.1954
     36  CA         2.6950  -17.9520  -28.5880 C.3    69  GLY69       0.1869
     37  C          2.8090  -16.4320  -28.4900 C.2    69  GLY69       0.2309
     38  O          3.6190  -15.8870  -27.7500 O.2    69  GLY69      -0.2863
     39  N         -0.0510  -11.5870  -24.3910 N.3   120  PHE120     -0.1227
     40  CA         0.2940  -12.9580  -24.1200 C.3   120  PHE120      0.1736
     41  C          1.1770  -12.9400  -22.9150 C.2   120  PHE120      0.2596
     42  O          2.3430  -12.5080  -22.9900 O.2   120  PHE120     -0.2718
     43  CB         1.0270  -13.5760  -25.3170 C.3   120  PHE120      0.0547
     44  CG         1.2980  -15.0550  -25.1740 C.ar  120  PHE120     -0.0202
     45  CD1        0.3350  -15.9910  -25.5410 C.ar  120  PHE120     -0.0042
     46  CD2        2.5320  -15.5050  -24.7060 C.ar  120  PHE120     -0.0042
     47  CE1        0.5970  -17.3610  -25.4140 C.ar  120  PHE120     -0.0003
     48  CE2        2.8060  -16.8680  -24.5970 C.ar  120  PHE120     -0.0003
     49  CZ         1.8360  -17.8000  -24.9480 C.ar  120  PHE120     -0.0000
     50  N          0.6130  -13.3540  -21.7840 N.am  121  SER121     -0.1952
     51  CA         1.4100  -13.4840  -20.5810 C.3   121  SER121      0.1924
     52  C          2.1900  -12.1660  -20.3750 C.2   121  SER121      0.2314
     53  O          1.6060  -11.0740  -20.4500 O.2   121  SER121     -0.2863
     54  CB         2.3250  -14.7170  -20.7340 C.3   121  SER121      0.2116
     55  OG         3.0440  -14.9850  -19.5600 O.3   121  SER121     -0.2180
     56  N         15.1320  -10.9550  -18.9540 N.3   158  SER158     -0.1217
     57  CA        13.7610  -11.2420  -19.3620 C.3   158  SER158      0.1889
     58  C         12.8300  -11.2910  -18.1680 C.2   158  SER158      0.2288
     59  O         13.1440  -11.8640  -17.1420 O.2   158  SER158     -0.2866
     60  CB        13.6840  -12.5620  -20.1190 C.3   158  SER158      0.2089
     61  OG        12.3580  -12.8390  -20.5840 O.3   158  SER158     -0.2183
     62  N         10.6050  -13.0890  -18.0060 N.3   160  PHE160     -0.1241
     63  CA        10.2990  -14.5080  -17.8520 C.3   160  PHE160      0.1605
     64  C         11.2860  -15.2340  -16.9500 C.2   160  PHE160      0.2264
     65  O         10.9370  -16.2800  -16.4020 O.2   160  PHE160     -0.2867
     66  CB        10.1650  -15.2000  -19.2170 C.3   160  PHE160      0.0534
     67  CG         8.9750  -14.7240  -19.9990 C.ar  160  PHE160     -0.0203
     68  CD1        7.6920  -15.1930  -19.6940 C.ar  160  PHE160     -0.0042
     69  CD2        9.1230  -13.7800  -21.0360 C.ar  160  PHE160     -0.0042
     70  CE1        6.5860  -14.7450  -20.4300 C.ar  160  PHE160     -0.0003
     71  CE2        8.0270  -13.3280  -21.7590 C.ar  160  PHE160     -0.0003
     72  CZ         6.7570  -13.8140  -21.4580 C.ar  160  PHE160     -0.0000
     73  N         -5.7160  -21.1160  -23.2110 N.3   364  TRP364     -0.1241
     74  CA        -5.3770  -20.5870  -24.5300 C.3   364  TRP364      0.1605
     75  C         -5.9240  -21.3740  -25.7160 C.2   364  TRP364      0.2264
     76  O         -6.1440  -20.7970  -26.7700 O.2   364  TRP364     -0.2867
     77  CB        -3.8630  -20.4850  -24.6980 C.3   364  TRP364      0.0550
     78  CG        -3.2220  -19.3740  -23.9510 C.ar  364  TRP364      0.0003
     79  CD1       -3.7710  -18.1450  -23.6150 C.ar  364  TRP364      0.0946
     80  CD2       -1.8720  -19.3530  -23.4870 C.ar  364  TRP364      0.0152
     81  NE1       -2.8360  -17.3850  -22.9620 N.ar  364  TRP364     -0.2442
     82  CE2       -1.6620  -18.0920  -22.8700 C.ar  364  TRP364      0.0810
     83  CE3       -0.8050  -20.2800  -23.5390 C.ar  364  TRP364      0.0012
     84  CZ2       -0.4360  -17.7460  -22.2600 C.ar  364  TRP364      0.0191
     85  CZ3        0.4210  -19.9270  -22.9490 C.ar  364  TRP364      0.0001
     86  CH2        0.5890  -18.6650  -22.3170 C.ar  364  TRP364      0.0015
     87  N         -2.1560  -23.2110  -33.3890 N.3   509  TRP509     -0.1241
     88  CA        -1.7590  -23.2540  -31.9940 C.3   509  TRP509      0.1605
     89  C         -1.8850  -24.6790  -31.4230 C.2   509  TRP509      0.2264
     90  O         -1.0140  -25.1350  -30.7060 O.2   509  TRP509     -0.2867
     91  CB        -2.5520  -22.2380  -31.1730 C.3   509  TRP509      0.0550
     92  CG        -2.2260  -22.2690  -29.7450 C.ar  509  TRP509      0.0003
     93  CD1       -3.0180  -22.7450  -28.7430 C.ar  509  TRP509      0.0946
     94  CD2       -1.0070  -21.8220  -29.1210 C.ar  509  TRP509      0.0152
     95  NE1       -2.3850  -22.5920  -27.5300 N.ar  509  TRP509     -0.2442
     96  CE2       -1.1520  -22.0260  -27.7350 C.ar  509  TRP509      0.0810
     97  CE3        0.1750  -21.2410  -29.5960 C.ar  509  TRP509      0.0012
     98  CZ2       -0.1420  -21.6960  -26.8190 C.ar  509  TRP509      0.0191
     99  CZ3        1.1700  -20.9140  -28.6910 C.ar  509  TRP509      0.0001
    100  CH2        1.0030  -21.1370  -27.3180 C.ar  509  TRP509      0.0015
    101  N          0.8770  -26.5370  -32.4240 N.3   512  TYR512     -0.1241
    102  CA         2.1280  -26.1620  -31.7400 C.3   512  TYR512      0.1605
    103  C          2.2580  -26.7010  -30.3210 C.2   512  TYR512      0.2264
    104  O          3.3400  -27.1560  -29.9320 O.2   512  TYR512     -0.2867
    105  CB         2.3560  -24.6420  -31.7760 C.3   512  TYR512      0.0534
    106  CG         3.4340  -24.1600  -30.8410 C.ar  512  TYR512     -0.0201
    107  CD1        4.7820  -24.1530  -31.2260 C.ar  512  TYR512     -0.0009
    108  CD2        3.1040  -23.6990  -29.5700 C.ar  512  TYR512     -0.0009
    109  CE1        5.7680  -23.6960  -30.3570 C.ar  512  TYR512      0.0417
    110  CE2        4.0750  -23.2410  -28.6940 C.ar  512  TYR512      0.0417
    111  CZ         5.4040  -23.2360  -29.0780 C.ar  512  TYR512      0.1957
    112  OH         6.3510  -22.7640  -28.1700 O.3   512  TYR512     -0.2866
    113  N          7.6560  -24.6780  -23.4960 N.3   518  PHE518     -0.1227
    114  CA         7.1630  -24.0680  -22.2570 C.3   518  PHE518      0.1736
    115  C          5.6540  -24.0830  -22.1930 C.2   518  PHE518      0.2595
    116  O          4.9730  -23.6710  -23.1430 O.2   518  PHE518     -0.2718
    117  CB         7.6710  -22.6260  -22.1030 C.3   518  PHE518      0.0547
    118  CG         9.1600  -22.5100  -22.1400 C.ar  518  PHE518     -0.0202
    119  CD1        9.9320  -22.8960  -21.0410 C.ar  518  PHE518     -0.0042
    120  CD2        9.8030  -22.0430  -23.2790 C.ar  518  PHE518     -0.0042
    121  CE1       11.3220  -22.7950  -21.0760 C.ar  518  PHE518     -0.0003
    122  CE2       11.1920  -21.9420  -23.3190 C.ar  518  PHE518     -0.0003
    123  CZ        11.9500  -22.3200  -22.2190 C.ar  518  PHE518     -0.0000
    124  N          5.1460  -24.5640  -21.0620 N.am  519  ALA519     -0.1966
    125  CA         3.7130  -24.5930  -20.8180 C.3   519  ALA519      0.1728
    126  C          3.2470  -23.2160  -20.3320 C.2   519  ALA519      0.2616
    127  O          4.0640  -22.3840  -19.9490 O.2   519  ALA519     -0.2715
    128  CB         3.3610  -25.6860  -19.8020 C.3   519  ALA519      0.0334
    129  N          1.9390  -22.9790  -20.3950 N.am  520  GLU520     -0.1963
    130  CA         1.3260  -21.8710  -19.6990 C.3   520  GLU520      0.1733
    131  C          1.6160  -22.0300  -18.1970 C.2   520  GLU520      0.2616
    132  O          1.3570  -23.0890  -17.6200 O.2   520  GLU520     -0.2715
    133  CB        -0.1850  -21.8740  -19.9810 C.3   520  GLU520      0.0429
    134  CG        -0.9990  -20.8480  -19.1970 C.3   520  GLU520      0.1163
    135  CD        -2.4700  -20.8290  -19.5850 C.2   520  GLU520      0.3649
    136  OE1       -3.0070  -21.8690  -20.0190 O.co2 520  GLU520     -0.2457
    137  OE2       -3.1070  -19.7690  -19.4450 O.co2 520  GLU520     -0.2457
    138  N          2.2010  -21.0000  -17.5890 N.am  521  ASP521     -0.1971
    139  CA         2.4210  -20.9630  -16.1350 C.3   521  ASP521      0.1709
    140  C          1.9730  -19.6310  -15.5210 C.2   521  ASP521      0.2293
    141  O          2.5710  -19.1380  -14.5810 O.2   521  ASP521     -0.2864
    142  CB         3.8710  -21.3410  -15.7270 C.3   521  ASP521      0.1436
    143  CG         4.9160  -20.3610  -16.2470 C.2   521  ASP521      0.3671
    144  OD1        4.6730  -19.7180  -17.2930 O.co2 521  ASP521     -0.2456
    145  OD2        5.9920  -20.2320  -15.6100 O.co2 521  ASP521     -0.2456
@<TRIPOS>BOND
     1    87    88    1
     2   101   102    1
     3    88    89    1
     4    88    91    1
     5   105   102    1
     6   105   106    1
     7   102   103    1
     8     4     3    2
     9     1     2    1
    10    89    90    2
    11   107   106   ar
    12   107   109   ar
    13    91    92    1
    14   106   108   ar
    15     3     2    1
    16   109   111   ar
    17     2     5    1
    18   103   104    2
    19     5     6    1
    20    92    94   ar
    21    92    93   ar
    22    97    94   ar
    23    97    99   ar
    24   108   110   ar
    25    30    29    2
    26    94    96   ar
    27   111   110   ar
    28   111   112    1
    29    17    18    1
    30     6     8   am
    31     6     7    2
    32    25    26   ar
    33    25    23   ar
    34    93    95   ar
    35    99   100   ar
    36    36    37    1
    37    36    35    1
    38    37    38    2
    39    26    24   ar
    40    23    22   ar
    41    29    35   am
    42    29    28    1
    43    11    10    1
    44    11    12    2
    45    18    19    1
    46    18    21    1
    47    96    95   ar
    48    96    98   ar
    49    24    22   ar
    50    27    28    1
    51    27    19   am
    52    22    21    1
    53    10    13    1
    54    10     9    1
    55   100    98   ar
    56    28    31    1
    57    19    20    2
    58    76    75    2
    59    13    14    1
    60    31    32    1
    61    14    15    1
    62    75    74    1
    63    45    47   ar
    64    45    44   ar
    65    47    49   ar
    66    15    16    1
    67    43    44    1
    68    43    40    1
    69    32    33    2
    70    32    34   am
    71    44    46   ar
    72    49    48   ar
    73    46    48   ar
    74    77    74    1
    75    77    78    1
    76    74    73    1
    77    39    40    1
    78    40    41    1
    79    78    79   ar
    80    78    80   ar
    81    79    81   ar
    82    83    80   ar
    83    83    85   ar
    84   113   114    1
    85    80    82   ar
    86   122   120   ar
    87   122   123   ar
    88   120   118   ar
    89   116   115    2
    90    42    41    2
    91    81    82   ar
    92    85    86   ar
    93    41    50   am
    94    82    84   ar
    95    86    84   ar
    96   114   115    1
    97   114   117    1
    98   123   121   ar
    99   115   124   am
   100   118   117    1
   101   118   119   ar
   102    50    51    1
   103    71    72   ar
   104    71    69   ar
   105    72    70   ar
   106   121   119   ar
   107   124   125    1
   108    69    67   ar
   109   125   126    1
   110   125   128    1
   111    54    51    1
   112    54    55    1
   113    61    60    1
   114    51    52    1
   115    53    52    2
   116    70    68   ar
   117   129   126   am
   118   129   130    1
   119   126   127    2
   120    60    57    1
   121   136   135   ar
   122    67    68   ar
   123    67    66    1
   124   133   130    1
   125   133   134    1
   126   130   131    1
   127   135   137   ar
   128   135   134    1
   129    57    56    1
   130    57    58    1
   131    66    63    1
   132   131   132    2
   133   131   138   am
   134    58    59    2
   135    62    63    1
   136    63    64    1
   137   138   139    1
   138   144   143   ar
   139    64    65    2
   140   143   142    1
   141   143   145   ar
   142   139   142    1
   143   139   140    1
   144   140   141    2
