@<TRIPOS>MOLECULE
tmp/4x4kA04.pdb
 91 90 0 0 0
SMALL
GASTEIGER

@<TRIPOS>ATOM
      1  N         10.7170    1.2290  -28.1130 N.3    45  PRO45      -0.2102
      2  CA         9.3630    0.7790  -28.4240 C.3    45  PRO45       0.1504
      3  C          9.2430    0.2280  -29.8530 C.2    45  PRO45       0.2576
      4  O         10.0980    0.5240  -30.6950 O.2    45  PRO45      -0.2718
      5  CB         8.5430    2.0740  -28.3270 C.3    45  PRO45       0.0282
      6  CG         9.4420    3.0880  -27.6780 C.3    45  PRO45       0.0208
      7  CD        10.8120    2.7000  -28.0730 C.3    45  PRO45       0.0893
      8  N          8.1870   -0.5510  -30.1230 N.am   46  GLY46      -0.1957
      9  CA         7.8590   -0.9720  -31.4730 C.3    46  GLY46       0.1869
     10  C          7.6060    0.1900  -32.4310 C.2    46  GLY46       0.2309
     11  O          7.6600    1.3540  -32.0230 O.2    46  GLY46      -0.2863
     12  N          3.7150    2.6040  -30.0490 N.3   131  PRO131     -0.2116
     13  CA         2.6700    3.6390  -29.9930 C.3   131  PRO131      0.1372
     14  C          1.6130    3.3950  -31.0370 C.2   131  PRO131      0.2244
     15  O          1.9460    2.9540  -32.1490 O.2   131  PRO131     -0.2868
     16  CB         3.4340    4.9330  -30.3130 C.3   131  PRO131      0.0268
     17  CG         4.5990    4.4770  -31.1600 C.3   131  PRO131      0.0207
     18  CD         4.9350    3.0630  -30.7410 C.3   131  PRO131      0.0892
     19  N          5.0720   16.0710  -30.5650 N.3   146  VAL146     -0.1231
     20  CA         6.3840   15.4140  -30.4420 C.3   146  VAL146      0.1692
     21  C          6.1700   13.9060  -30.3710 C.2   146  VAL146      0.2593
     22  O          7.1160   13.1190  -30.3310 O.2   146  VAL146     -0.2718
     23  CB         7.1950   15.9120  -29.2220 C.3   146  VAL146      0.0266
     24  CG1        7.4880   17.4030  -29.3330 C.3   146  VAL146      0.0020
     25  CG2        6.4780   15.5990  -27.9250 C.3   146  VAL146      0.0020
     26  N          4.8980   13.5180  -30.3650 N.am  147  GLY147     -0.1942
     27  CA         4.5500   12.1350  -30.2480 C.3   147  GLY147      0.2014
     28  C          4.7170   11.6570  -28.8180 C.2   147  GLY147      0.2639
     29  O          4.6260   12.4360  -27.8580 O.2   147  GLY147     -0.2714
     30  N          5.0070   10.3730  -28.7000 N.am  148  VAL148     -0.1963
     31  CA         4.7580    9.6490  -27.4710 C.3   148  VAL148      0.1727
     32  C          5.9990    9.6430  -26.6010 C.2   148  VAL148      0.2616
     33  O          7.1190    9.6180  -27.1090 O.2   148  VAL148     -0.2715
     34  CB         4.2980    8.2110  -27.8040 C.3   148  VAL148      0.0290
     35  CG1        4.3840    7.2990  -26.5940 C.3   148  VAL148      0.0023
     36  CG2        2.8680    8.2460  -28.3200 C.3   148  VAL148      0.0023
     37  N          5.8050    9.7070  -25.2910 N.am  149  ILE149     -0.1963
     38  CA         6.8990    9.5100  -24.3610 C.3   149  ILE149      0.1727
     39  C          6.4770    8.3620  -23.4540 C.2   149  ILE149      0.2616
     40  O          5.5620    8.5320  -22.6510 O.2   149  ILE149     -0.2715
     41  CB         7.2160   10.7540  -23.4950 C.3   149  ILE149      0.0290
     42  CG1        7.4690   11.9990  -24.3740 C.3   149  ILE149      0.0022
     43  CG2        8.4000   10.4360  -22.5680 C.3   149  ILE149      0.0023
     44  CD1        7.7890   13.2780  -23.6210 C.3   149  ILE149      0.0001
     45  N          7.1420    7.2120  -23.5920 N.am  150  PHE150     -0.1974
     46  CA         6.8170    6.0280  -22.8270 C.3   150  PHE150      0.1639
     47  C          7.5360    6.1120  -21.5170 C.2   150  PHE150      0.2290
     48  O          8.7170    6.4720  -21.4760 O.2   150  PHE150     -0.2864
     49  CB         7.2820    4.7440  -23.5290 C.3   150  PHE150      0.0560
     50  CG         6.4700    4.3800  -24.7260 C.ar  150  PHE150     -0.0200
     51  CD1        5.2100    3.8270  -24.5780 C.ar  150  PHE150     -0.0042
     52  CD2        6.9530    4.6140  -26.0100 C.ar  150  PHE150     -0.0042
     53  CE1        4.4500    3.4720  -25.6870 C.ar  150  PHE150     -0.0003
     54  CE2        6.2010    4.2710  -27.1280 C.ar  150  PHE150     -0.0003
     55  CZ         4.9470    3.6940  -26.9630 C.ar  150  PHE150     -0.0000
     56  N         11.0940    6.9900  -22.8740 N.3   180  ASN180     -0.1240
     57  CA        11.0550    6.7570  -24.3010 C.3   180  ASN180      0.1653
     58  C         12.1160    5.8080  -24.8480 C.2   180  ASN180      0.2266
     59  O         12.6610    6.0580  -25.8980 O.2   180  ASN180     -0.2867
     60  CB        11.0120    8.0640  -25.1050 C.3   180  ASN180      0.1155
     61  CG        10.0960    7.9520  -26.3210 C.2   180  ASN180      0.2627
     62  OD1        9.0280    7.3530  -26.2380 O.2   180  ASN180     -0.2716
     63  ND2       10.5170    8.5220  -27.4510 N.am  180  ASN180     -0.0877
     64  N         16.9550   10.3490  -22.1220 N.3   202  PHE202     -0.1227
     65  CA        15.9510   10.8320  -23.0180 C.3   202  PHE202      0.1736
     66  C         16.1320   12.3440  -23.2050 C.2   202  PHE202      0.2595
     67  O         16.1950   13.1040  -22.2200 O.2   202  PHE202     -0.2718
     68  CB        14.5500   10.5470  -22.4620 C.3   202  PHE202      0.0547
     69  CG        13.4890   11.1900  -23.2700 C.ar  202  PHE202     -0.0202
     70  CD1       13.3060   10.7990  -24.5980 C.ar  202  PHE202     -0.0042
     71  CD2       12.7850   12.2660  -22.7730 C.ar  202  PHE202     -0.0042
     72  CE1       12.3770   11.4280  -25.3920 C.ar  202  PHE202     -0.0003
     73  CE2       11.8350   12.8980  -23.5560 C.ar  202  PHE202     -0.0003
     74  CZ        11.6310   12.4810  -24.8680 C.ar  202  PHE202     -0.0000
     75  N         16.2130   12.7900  -24.4550 N.am  203  GLU203     -0.1965
     76  CA        16.3170   14.2230  -24.7160 C.3   203  GLU203      0.1733
     77  C         15.1060   14.7040  -25.4580 C.2   203  GLU203      0.2616
     78  O         14.6480   14.0490  -26.3800 O.2   203  GLU203     -0.2715
     79  CB        17.5490   14.5550  -25.5390 C.3   203  GLU203      0.0429
     80  CG        18.8340   14.6860  -24.7460 C.3   203  GLU203      0.1163
     81  CD        20.0110   15.0870  -25.6310 C.2   203  GLU203      0.3649
     82  OE1       19.9240   14.8910  -26.8670 O.co2 203  GLU203     -0.2457
     83  OE2       21.0280   15.5910  -25.0960 O.co2 203  GLU203     -0.2457
     84  N         14.6060   15.8580  -25.0500 N.am  204  LEU204     -0.1977
     85  CA        13.5450   16.5490  -25.7440 C.3   204  LEU204      0.1596
     86  C         13.9960   18.0040  -25.9640 C.2   204  LEU204      0.2287
     87  O         14.4650   18.6670  -25.0290 O.2   204  LEU204     -0.2864
     88  CB        12.2710   16.5390  -24.8970 C.3   204  LEU204      0.0297
     89  CG        11.0090   17.1280  -25.5480 C.3   204  LEU204      0.0022
     90  CD1       10.6280   16.3210  -26.7650 C.3   204  LEU204      0.0001
     91  CD2        9.8540   17.1730  -24.5680 C.3   204  LEU204      0.0001
@<TRIPOS>BOND
     1    10    11    2
     2    10     9    1
     3    15    14    2
     4     9     8    1
     5    17    18    1
     6    17    16    1
     7    14    13    1
     8    18    12    1
     9     4     3    2
    10    19    20    1
    11    20    21    1
    12    20    23    1
    13    21    26   am
    14    21    22    2
    15    26    27    1
    16    16    13    1
    17    27    28    1
    18     8     3   am
    19    12    13    1
    20     3     2    1
    21    24    23    1
    22    23    25    1
    23    28    30   am
    24    28    29    2
    25    30    31    1
    26     2     5    1
    27     2     1    1
    28     5     6    1
    29    36    34    1
    30     1     7    1
    31     7     6    1
    32    34    31    1
    33    34    35    1
    34    31    32    1
    35    63    61   am
    36    54    55   ar
    37    54    52   ar
    38    33    32    2
    39    55    53   ar
    40    82    81   ar
    41    90    89    1
    42    32    37   am
    43    78    77    2
    44    61    62    2
    45    61    60    1
    46    52    50   ar
    47    86    85    1
    48    86    87    2
    49    59    58    2
    50    85    84    1
    51    85    88    1
    52    53    51   ar
    53    81    83   ar
    54    81    80    1
    55    89    88    1
    56    89    91    1
    57    79    80    1
    58    79    76    1
    59    77    84   am
    60    77    76    1
    61    72    74   ar
    62    72    70   ar
    63    37    38    1
    64    60    57    1
    65    74    73   ar
    66    58    57    1
    67    50    51   ar
    68    50    49    1
    69    76    75    1
    70    70    69   ar
    71    75    66   am
    72    42    44    1
    73    42    41    1
    74    38    41    1
    75    38    39    1
    76    57    56    1
    77    45    39   am
    78    45    46    1
    79    73    71   ar
    80    49    46    1
    81    41    43    1
    82    39    40    2
    83    69    71   ar
    84    69    68    1
    85    66    65    1
    86    66    67    2
    87    65    68    1
    88    65    64    1
    89    46    47    1
    90    47    48    2
