@<TRIPOS>MOLECULE
tmp/4x4lA00.pdb
 197 191 0 0 0
SMALL
GASTEIGER

@<TRIPOS>ATOM
      1  N        -25.6020   38.0660   30.1670 N.3   113  SER113     -0.1202
      2  CA       -24.1670   38.2940   30.0350 C.3   113  SER113      0.2020
      3  C        -23.8840   39.6440   29.4040 C.2   113  SER113      0.2618
      4  O        -23.2820   40.4960   30.0430 O.2   113  SER113     -0.2717
      5  CB       -23.4900   37.1520   29.2380 C.3   113  SER113      0.2103
      6  OG       -22.1040   37.4140   29.0890 O.3   113  SER113     -0.2182
      7  N        -24.2850   39.8360   28.1540 N.am  114  ASP114     -0.1973
      8  CA       -23.9940   41.0810   27.4570 C.3   114  ASP114      0.1709
      9  C        -24.5600   42.2810   28.2180 C.2   114  ASP114      0.2293
     10  O        -23.8400   43.2520   28.4780 O.2   114  ASP114     -0.2864
     11  CB       -24.5940   41.0890   26.0550 C.3   114  ASP114      0.1436
     12  CG       -23.8900   40.1240   25.1160 C.2   114  ASP114      0.3671
     13  OD1      -24.0650   38.9060   25.3340 O.co2 114  ASP114     -0.2456
     14  OD2      -23.2180   40.5850   24.1610 O.co2 114  ASP114     -0.2456
     15  N        -22.8460   42.8010   31.4850 N.3   117  GLY117     -0.1225
     16  CA       -21.5160   43.3550   31.2320 C.3   117  GLY117      0.1811
     17  C        -21.5300   44.8450   30.9450 C.2   117  GLY117      0.2280
     18  O        -20.6670   45.5810   31.4530 O.2   117  GLY117     -0.2866
     19  N        -22.4380   46.6120   34.3890 N.3   120  LYS120     -0.1231
     20  CA       -21.2860   46.5500   35.2660 C.3   120  LYS120      0.1693
     21  C        -20.1160   47.3860   34.7460 C.2   120  LYS120      0.2592
     22  O        -19.4460   48.0620   35.5350 O.2   120  LYS120     -0.2718
     23  CB       -20.8380   45.0940   35.4740 C.3   120  LYS120      0.0285
     24  CG       -21.7010   44.2920   36.4380 C.3   120  LYS120      0.0035
     25  CD       -21.2500   42.8340   36.4850 C.3   120  LYS120      0.0206
     26  CE       -22.1530   41.9600   37.3520 C.3   120  LYS120      0.1093
     27  NZ       -21.6270   41.8190   38.7460 N.3   120  LYS120     -0.1314
     28  N        -19.8690   47.3600   33.4360 N.am  121  THR121     -0.1953
     29  CA       -18.7570   48.1490   32.8760 C.3   121  THR121      0.1897
     30  C        -19.0060   49.6530   33.0610 C.2   121  THR121      0.2313
     31  O        -18.1000   50.3760   33.4600 O.2   121  THR121     -0.2863
     32  CB       -18.4620   47.8080   31.3870 C.3   121  THR121      0.1794
     33  OG1      -17.9390   46.4660   31.2750 O.3   121  THR121     -0.2208
     34  CG2      -17.4160   48.7460   30.8220 C.3   121  THR121      0.0378
     35  N        -20.3900   42.0370   19.4480 N.3   163  PHE163     -0.1241
     36  CA       -20.8650   42.4570   20.7620 C.3   163  PHE163      0.1605
     37  C        -21.2200   43.9530   20.6990 C.2   163  PHE163      0.2264
     38  O        -20.5110   44.7690   21.2830 O.2   163  PHE163     -0.2867
     39  CB       -19.7930   42.2150   21.8160 C.3   163  PHE163      0.0534
     40  CG       -19.5670   40.7720   22.1210 C.ar  163  PHE163     -0.0203
     41  CD1      -18.7010   40.0190   21.3400 C.ar  163  PHE163     -0.0042
     42  CD2      -20.2140   40.1640   23.1860 C.ar  163  PHE163     -0.0042
     43  CE1      -18.5270   38.6630   21.5830 C.ar  163  PHE163     -0.0003
     44  CE2      -20.0160   38.8170   23.4540 C.ar  163  PHE163     -0.0003
     45  CZ       -19.1740   38.0630   22.6520 C.ar  163  PHE163     -0.0000
     46  N        -21.8720   45.7420   24.3710 N.3   166  VAL166     -0.1231
     47  CA       -20.6880   45.6270   25.2010 C.3   166  VAL166      0.1692
     48  C        -19.5640   46.4880   24.6270 C.2   166  VAL166      0.2591
     49  O        -18.9070   47.2290   25.3750 O.2   166  VAL166     -0.2718
     50  CB       -20.2380   44.1520   25.3500 C.3   166  VAL166      0.0266
     51  CG1      -18.9240   44.0740   26.1030 C.3   166  VAL166      0.0020
     52  CG2      -21.2980   43.3400   26.0840 C.3   166  VAL166      0.0020
     53  N        -19.3820   46.4460   23.3090 N.am  167  MET167     -0.1979
     54  CA       -18.3130   47.2030   22.6660 C.3   167  MET167      0.1605
     55  C        -18.5970   48.6970   22.6910 C.2   167  MET167      0.2287
     56  O        -17.6810   49.4880   22.8380 O.2   167  MET167     -0.2864
     57  CB       -18.0850   46.7530   21.2160 C.3   167  MET167      0.0413
     58  CG       -17.3180   45.4370   21.0920 C.3   167  MET167      0.0598
     59  SD       -15.5850   45.5510   21.5810 S.3   167  MET167     -0.1393
     60  CE       -15.6100   44.8130   23.2090 C.3   167  MET167      0.0692
     61  N        -17.7620   49.5880   26.2130 N.3   170  TRP170     -0.1241
     62  CA       -16.2980   49.4890   26.3950 C.3   170  TRP170      0.1605
     63  C        -15.5570   50.6950   25.8530 C.2   170  TRP170      0.2264
     64  O        -14.5560   51.1030   26.4230 O.2   170  TRP170     -0.2867
     65  CB       -15.7410   48.1820   25.8110 C.3   170  TRP170      0.0550
     66  CG       -15.7220   47.1920   26.8800 C.ar  170  TRP170      0.0003
     67  CD1      -16.7930   46.7930   27.6330 C.ar  170  TRP170      0.0946
     68  CD2      -14.5870   46.5190   27.4030 C.ar  170  TRP170      0.0152
     69  NE1      -16.3910   45.8890   28.5790 N.ar  170  TRP170     -0.2442
     70  CE2      -15.0380   45.7090   28.4660 C.ar  170  TRP170      0.0810
     71  CE3      -13.2270   46.4970   27.0640 C.ar  170  TRP170      0.0012
     72  CZ2      -14.1750   44.8870   29.1950 C.ar  170  TRP170      0.0191
     73  CZ3      -12.3780   45.6880   27.7880 C.ar  170  TRP170      0.0001
     74  CH2      -12.8500   44.8960   28.8430 C.ar  170  TRP170      0.0015
     75  N         -7.9940   46.7880   18.6210 N.3   261  GLU261     -0.1245
     76  CA        -8.0960   45.3960   18.9880 C.3   261  GLU261      0.1567
     77  C         -8.6190   44.5940   17.7820 C.2   261  GLU261      0.2260
     78  O         -9.6310   44.9430   17.1780 O.2   261  GLU261     -0.2867
     79  CB        -8.9750   45.2180   20.2120 C.3   261  GLU261      0.0388
     80  CG        -8.9000   43.8040   20.7670 C.3   261  GLU261      0.1160
     81  CD       -10.0830   42.9700   20.3310 C.2   261  GLU261      0.3649
     82  OE1      -11.1630   43.1500   20.9210 O.co2 261  GLU261     -0.2457
     83  OE2       -9.9300   42.1400   19.4120 O.co2 261  GLU261     -0.2457
     84  N        -14.0460   24.4410   29.3700 N.3   282  PHE282     -0.1241
     85  CA       -13.6150   25.8310   29.1530 C.3   282  PHE282      0.1605
     86  C        -13.0610   26.0370   27.7520 C.2   282  PHE282      0.2264
     87  O        -13.3150   27.0440   27.1260 O.2   282  PHE282     -0.2867
     88  CB       -12.5680   26.2350   30.1940 C.3   282  PHE282      0.0534
     89  CG       -13.1550   26.8530   31.4370 C.ar  282  PHE282     -0.0203
     90  CD1      -13.7530   28.1010   31.3700 C.ar  282  PHE282     -0.0042
     91  CD2      -13.0530   26.2230   32.6750 C.ar  282  PHE282     -0.0042
     92  CE1      -14.2890   28.6930   32.5090 C.ar  282  PHE282     -0.0003
     93  CE2      -13.5900   26.8060   33.8190 C.ar  282  PHE282     -0.0003
     94  CZ       -14.1940   28.0530   33.7370 C.ar  282  PHE282     -0.0000
     95  N        -16.3050   25.9830   25.4860 N.3   285  HIS285     -0.1241
     96  CA       -16.9920   27.2660   25.4930 C.3   285  HIS285      0.1621
     97  C        -16.0710   28.3610   24.9480 C.2   285  HIS285      0.2264
     98  O        -16.5220   29.2940   24.2910 O.2   285  HIS285     -0.2867
     99  CB       -17.5330   27.5920   26.8910 C.3   285  HIS285      0.0745
    100  CG       -18.7260   26.7610   27.2660 C.ar  285  HIS285      0.0817
    101  ND1      -19.9810   26.9800   26.7360 N.ar  285  HIS285     -0.2268
    102  CD2      -18.8510   25.6990   28.0990 C.ar  285  HIS285      0.1154
    103  CE1      -20.8300   26.1050   27.2430 C.ar  285  HIS285      0.1986
    104  NE2      -20.1700   25.3160   28.0730 N.ar  285  HIS285     -0.2212
    105  N        -18.2540   30.0020   21.8880 N.3   289  TYR289     -0.1241
    106  CA       -19.1220   31.0560   22.4010 C.3   289  TYR289      0.1605
    107  C        -19.5760   32.0160   21.2900 C.2   289  TYR289      0.2264
    108  O        -18.7940   32.3820   20.4010 O.2   289  TYR289     -0.2867
    109  CB       -18.4530   31.8060   23.5540 C.3   289  TYR289      0.0534
    110  CG       -19.4380   32.5840   24.3780 C.ar  289  TYR289     -0.0201
    111  CD1      -20.1930   31.9630   25.3690 C.ar  289  TYR289     -0.0009
    112  CD2      -19.6730   33.9330   24.1110 C.ar  289  TYR289     -0.0009
    113  CE1      -21.1200   32.6800   26.1080 C.ar  289  TYR289      0.0417
    114  CE2      -20.5930   34.6620   24.8430 C.ar  289  TYR289      0.0417
    115  CZ       -21.3030   34.0400   25.8490 C.ar  289  TYR289      0.1957
    116  OH       -22.2260   34.7680   26.5540 O.3   289  TYR289     -0.2866
    117  N        -15.9920   35.4770   18.7170 N.3   294  CYS294     -0.1221
    118  CA       -15.2670   36.2000   19.7560 C.3   294  CYS294      0.1808
    119  C        -13.8290   36.3770   19.3370 C.2   294  CYS294      0.2601
    120  O        -13.1770   35.4250   18.8900 O.2   294  CYS294     -0.2717
    121  CB       -15.3340   35.4600   21.0860 C.3   294  CYS294      0.0970
    122  SG       -17.0180   35.1460   21.6850 S.3   294  CYS294     -0.0800
    123  N        -13.3310   37.6020   19.4820 N.am  295  CYS295     -0.1956
    124  CA       -11.9320   37.8940   19.2530 C.3   295  CYS295      0.1843
    125  C        -10.9970   36.9100   19.9870 C.2   295  CYS295      0.2625
    126  O         -9.9370   36.5580   19.4710 O.2   295  CYS295     -0.2714
    127  CB       -11.6260   39.3210   19.7090 C.3   295  CYS295      0.0997
    128  SG       -12.1040   39.6280   21.4220 S.3   295  CYS295     -0.0797
    129  N        -11.3870   36.4660   21.1800 N.am  296  ILE296     -0.1977
    130  CA       -10.5290   35.6140   22.0150 C.3   296  ILE296      0.1596
    131  C        -10.7390   34.1130   21.8070 C.2   296  ILE296      0.2287
    132  O        -10.2170   33.3350   22.5720 O.2   296  ILE296     -0.2864
    133  CB       -10.7390   35.9070   23.5210 C.3   296  ILE296      0.0276
    134  CG1      -12.2100   35.7190   23.9040 C.3   296  ILE296      0.0022
    135  CG2      -10.2640   37.3260   23.8510 C.3   296  ILE296      0.0022
    136  CD1      -12.4260   35.4490   25.3640 C.3   296  ILE296      0.0001
    137  N        -11.0720   30.0780   30.9650 N.3   449  TYR449     -0.1227
    138  CA       -10.9900   30.6950   29.6640 C.3   449  TYR449      0.1736
    139  C        -12.1440   31.6810   29.4990 C.2   449  TYR449      0.2596
    140  O        -13.2520   31.4540   29.9900 O.2   449  TYR449     -0.2718
    141  CB       -11.0300   29.6430   28.5220 C.3   449  TYR449      0.0548
    142  CG       -10.4000   30.2260   27.2720 C.ar  449  TYR449     -0.0200
    143  CD1      -11.1400   30.9820   26.3880 C.ar  449  TYR449     -0.0009
    144  CD2       -9.0320   30.1190   27.0550 C.ar  449  TYR449     -0.0009
    145  CE1      -10.5520   31.5810   25.2850 C.ar  449  TYR449      0.0417
    146  CE2       -8.4310   30.6970   25.9500 C.ar  449  TYR449      0.0417
    147  CZ        -9.1940   31.4190   25.0600 C.ar  449  TYR449      0.1957
    148  OH        -8.5970   32.0190   23.9570 O.3   449  TYR449     -0.2866
    149  N        -11.8770   32.8000   28.8450 N.am  450  GLY450     -0.1942
    150  CA       -12.9410   33.7140   28.4540 C.3   450  GLY450      0.2014
    151  C        -13.4360   34.5940   29.5970 C.2   450  GLY450      0.2639
    152  O        -14.5120   35.1890   29.5040 O.2   450  GLY450     -0.2714
    153  N        -12.6380   34.6980   30.6560 N.am  451  VAL451     -0.1963
    154  CA       -13.0140   35.4770   31.8370 C.3   451  VAL451      0.1727
    155  C        -12.5250   36.9070   31.6580 C.2   451  VAL451      0.2616
    156  O        -11.3500   37.2100   31.7960 O.2   451  VAL451     -0.2715
    157  CB       -12.4540   34.8370   33.1160 C.3   451  VAL451      0.0290
    158  CG1      -12.8850   35.6300   34.3430 C.3   451  VAL451      0.0023
    159  CG2      -12.9460   33.4000   33.2080 C.3   451  VAL451      0.0023
    160  N        -13.4580   37.7930   31.3430 N.am  452  VAL452     -0.1963
    161  CA       -13.1150   39.1620   31.0040 C.3   452  VAL452      0.1727
    162  C        -13.9060   40.0240   31.9760 C.2   452  VAL452      0.2617
    163  O        -15.0670   39.7710   32.2130 O.2   452  VAL452     -0.2715
    164  CB       -13.5160   39.4470   29.5360 C.3   452  VAL452      0.0290
    165  CG1      -13.3660   40.9200   29.1730 C.3   452  VAL452      0.0023
    166  CG2      -12.6660   38.6120   28.5980 C.3   452  VAL452      0.0023
    167  N        -13.2810   41.0390   32.5520 N.am  453  SER453     -0.1936
    168  CA       -14.0040   41.8760   33.4930 C.3   453  SER453      0.2055
    169  C        -13.5410   43.3090   33.3480 C.2   453  SER453      0.2642
    170  O        -12.4310   43.5820   32.9080 O.2   453  SER453     -0.2714
    171  CB       -13.8170   41.3550   34.9290 C.3   453  SER453      0.2130
    172  OG       -14.9980   41.5140   35.7330 O.3   453  SER453     -0.2179
    173  N        -14.4270   44.2240   33.7080 N.am  454  ALA454     -0.1977
    174  CA       -14.1340   45.6450   33.6800 C.3   454  ALA454      0.1597
    175  C        -12.9050   46.0380   34.5010 C.2   454  ALA454      0.2287
    176  O        -12.2610   47.0600   34.2120 O.2   454  ALA454     -0.2864
    177  CB       -15.3820   46.4390   34.1340 C.3   454  ALA454      0.0319
    178  N         -7.4270   44.7980   28.9980 N.3   458  PHE458     -0.1241
    179  CA        -7.6340   43.8300   27.9340 C.3   458  PHE458      0.1605
    180  C         -7.1000   44.3870   26.6100 C.2   458  PHE458      0.2264
    181  O         -7.3920   45.5150   26.2230 O.2   458  PHE458     -0.2867
    182  CB        -9.1190   43.4920   27.7860 C.3   458  PHE458      0.0534
    183  CG        -9.4090   42.5230   26.6620 C.ar  458  PHE458     -0.0203
    184  CD1       -9.6570   42.9840   25.3800 C.ar  458  PHE458     -0.0042
    185  CD2       -9.4280   41.1670   26.8960 C.ar  458  PHE458     -0.0042
    186  CE1       -9.8970   42.1000   24.3550 C.ar  458  PHE458     -0.0003
    187  CE2       -9.6660   40.2710   25.8690 C.ar  458  PHE458     -0.0003
    188  CZ        -9.9060   40.7390   24.6040 C.ar  458  PHE458     -0.0000
    189  N         -7.6180   48.2680   26.9830 N.3   469  GLU469     -0.1245
    190  CA        -8.9060   48.8100   27.3450 C.3   469  GLU469      0.1567
    191  C         -9.3140   48.3170   28.7160 C.2   469  GLU469      0.2260
    192  O         -9.0480   47.1490   29.1040 O.2   469  GLU469     -0.2867
    193  CB        -9.9690   48.3850   26.3520 C.3   469  GLU469      0.0388
    194  CG        -9.7860   48.9190   24.9480 C.3   469  GLU469      0.1160
    195  CD       -10.7540   48.2600   23.9900 C.2   469  GLU469      0.3649
    196  OE1      -10.4670   47.1380   23.4930 O.co2 469  GLU469     -0.2457
    197  OE2      -11.8010   48.8590   23.7390 O.co2 469  GLU469     -0.2457
@<TRIPOS>BOND
     1    78    77    2
     2    77    76    1
     3    75    76    1
     4   117   118    1
     5   120   119    2
     6    76    79    1
     7   124   123    1
     8   124   127    1
     9   124   125    1
    10   119   123   am
    11   119   118    1
    12    83    81   ar
    13    35    36    1
    14   126   125    2
    15   127   128    1
    16   118   121    1
    17   125   129   am
    18    79    80    1
    19    81    80    1
    20    81    82   ar
    21   108   107    2
    22    37    36    1
    23    37    38    2
    24    36    39    1
    25   121   122    1
    26    58    57    1
    27    58    59    1
    28   129   130    1
    29    57    54    1
    30   107   106    1
    31    41    43   ar
    32    41    40   ar
    33    59    60    1
    34    43    45   ar
    35   131   130    1
    36   131   132    2
    37    39    40    1
    38   105   106    1
    39   130   133    1
    40    40    42   ar
    41   106   109    1
    42    45    44   ar
    43    54    55    1
    44    54    53    1
    45    55    56    2
    46    42    44   ar
    47    53    48   am
    48   196   195   ar
    49   133   135    1
    50   133   134    1
    51   109   110    1
    52   197   195   ar
    53   134   136    1
    54   148   147    1
    55   195   194    1
    56   112   110   ar
    57   112   114   ar
    58    14    12   ar
    59    98    97    2
    60   186   188   ar
    61   186   184   ar
    62    46    47    1
    63   110   111   ar
    64   188   187   ar
    65    48    47    1
    66    48    49    2
    67   114   115   ar
    68    97    96    1
    69   194   193    1
    70   147   145   ar
    71   147   146   ar
    72    12    13   ar
    73    12    11    1
    74    47    50    1
    75   145   143   ar
    76    50    52    1
    77    50    51    1
    78   111   113   ar
    79   184   183   ar
    80    95    96    1
    81    96    99    1
    82    65    62    1
    83    65    66    1
    84   115   113   ar
    85   115   116    1
    86    63    62    1
    87    63    64    2
    88   187   185   ar
    89   146   144   ar
    90    11     8    1
    91    61    62    1
    92   181   180    2
    93   193   190    1
    94   143   142   ar
    95   180   179    1
    96   183   185   ar
    97   183   182    1
    98   101   103   ar
    99   101   100   ar
   100    66    68   ar
   101    66    67   ar
   102    99   100    1
   103   189   190    1
   104   144   142   ar
   105    71    68   ar
   106    71    73   ar
   107    87    86    2
   108   103   104   ar
   109   100   102   ar
   110   142   141    1
   111   190   191    1
   112    68    70   ar
   113     8     7    1
   114     8     9    1
   115    67    69   ar
   116    86    85    1
   117   182   179    1
   118    73    74   ar
   119   179   178    1
   120   104   102   ar
   121     7     3   am
   122     9    10    2
   123   150   149    1
   124   150   151    1
   125    70    69   ar
   126    70    72   ar
   127   141   138    1
   128   166   164    1
   129   191   192    2
   130    74    72   ar
   131   149   139   am
   132     6     5    1
   133    85    84    1
   134    85    88    1
   135   165   164    1
   136     5     2    1
   137     3     2    1
   138     3     4    2
   139   139   138    1
   140   139   140    2
   141   152   151    2
   142   164   161    1
   143   151   153   am
   144   138   137    1
   145     2     1    1
   146    88    89    1
   147   153   154    1
   148    34    32    1
   149    17    16    1
   150    17    18    2
   151   161   160    1
   152   161   162    1
   153    16    15    1
   154    33    32    1
   155   160   155   am
   156    90    89   ar
   157    90    92   ar
   158    32    29    1
   159    89    91   ar
   160   155   156    2
   161   155   154    1
   162   154   157    1
   163   162   163    2
   164   162   167   am
   165    92    94   ar
   166   167   168    1
   167    91    93   ar
   168    29    30    1
   169    29    28    1
   170   170   169    2
   171    30    31    2
   172   157   159    1
   173   157   158    1
   174   169   168    1
   175   169   173   am
   176    28    21   am
   177   168   171    1
   178   174   173    1
   179   174   177    1
   180   174   175    1
   181    94    93   ar
   182   176   175    2
   183    19    20    1
   184    21    20    1
   185    21    22    2
   186   171   172    1
   187    20    23    1
   188    23    24    1
   189    24    25    1
   190    25    26    1
   191    26    27    1
