@<TRIPOS>MOLECULE
tmp/4x4qC03.pdb
 100 99 0 0 0
SMALL
GASTEIGER

@<TRIPOS>ATOM
      1  N        -31.0070   16.6530   -9.5930 N.3   310  ARG310     -0.1231
      2  CA       -31.0270   17.3660  -10.8670 C.3   310  ARG310      0.1694
      3  C        -31.6680   18.7520  -10.7540 C.2   310  ARG310      0.2592
      4  O        -31.6080   19.5430  -11.6970 O.2   310  ARG310     -0.2718
      5  CB       -31.7490   16.5420  -11.9430 C.3   310  ARG310      0.0321
      6  CG       -33.2190   16.3070  -11.6870 C.3   310  ARG310      0.0489
      7  CD       -33.8910   15.5830  -12.8480 C.3   310  ARG310      0.2205
      8  NE       -35.3190   15.4070  -12.5880 N.pl3 310  ARG310     -0.0865
      9  CZ       -35.8610   14.3310  -12.0230 C.cat 310  ARG310      0.5346
     10  NH1      -35.1090   13.2900  -11.6770 N.pl3 310  ARG310      0.1354
     11  NH2      -37.1710   14.2880  -11.8210 N.pl3 310  ARG310      0.1354
     12  N        -32.2820   19.0450   -9.6120 N.am  311  GLU311     -0.1966
     13  CA       -32.8100   20.3840   -9.3580 C.3   311  GLU311      0.1733
     14  C        -31.8150   21.2310   -8.5450 C.2   311  GLU311      0.2616
     15  O        -32.1140   22.3690   -8.1850 O.2   311  GLU311     -0.2715
     16  CB       -34.1560   20.3020   -8.6320 C.3   311  GLU311      0.0429
     17  CG       -35.2190   21.2560   -9.1710 C.3   311  GLU311      0.1163
     18  CD       -35.6080   20.9550  -10.6110 C.2   311  GLU311      0.3649
     19  OE1      -35.5990   19.7660  -10.9980 O.co2 311  GLU311     -0.2457
     20  OE2      -35.9210   21.9080  -11.3570 O.co2 311  GLU311     -0.2457
     21  N        -30.6420   20.6590   -8.2660 N.am  312  ASN312     -0.1972
     22  CA       -29.5290   21.3480   -7.5900 C.3   312  ASN312      0.1688
     23  C        -29.7730   21.7410   -6.1260 C.2   312  ASN312      0.2292
     24  O        -29.2620   22.7590   -5.6530 O.2   312  ASN312     -0.2864
     25  CB       -29.1270   22.6060   -8.3720 C.3   312  ASN312      0.1181
     26  CG       -28.6990   22.3000   -9.7830 C.2   312  ASN312      0.2629
     27  OD1      -27.6570   21.6840  -10.0040 O.2   312  ASN312     -0.2716
     28  ND2      -29.4920   22.7400  -10.7530 N.am  312  ASN312     -0.0877
     29  N        -32.1970   31.1940  -12.8970 N.3   342  PHE342     -0.1227
     30  CA       -31.1510   30.2610  -13.2890 C.3   342  PHE342      0.1736
     31  C        -30.8340   30.5020  -14.7560 C.2   342  PHE342      0.2595
     32  O        -31.5790   31.2040  -15.4360 O.2   342  PHE342     -0.2718
     33  CB       -31.5890   28.8150  -13.0450 C.3   342  PHE342      0.0547
     34  CG       -32.7340   28.3630  -13.9150 C.ar  342  PHE342     -0.0202
     35  CD1      -34.0390   28.6840  -13.5900 C.ar  342  PHE342     -0.0042
     36  CD2      -32.5040   27.5950  -15.0430 C.ar  342  PHE342     -0.0042
     37  CE1      -35.0910   28.2670  -14.3790 C.ar  342  PHE342     -0.0003
     38  CE2      -33.5530   27.1750  -15.8350 C.ar  342  PHE342     -0.0003
     39  CZ       -34.8490   27.5070  -15.4980 C.ar  342  PHE342     -0.0000
     40  N        -29.7360   29.9320  -15.2420 N.am  343  ARG343     -0.1966
     41  CA       -29.3460   30.1400  -16.6310 C.3   343  ARG343      0.1729
     42  C        -29.5840   28.8830  -17.4510 C.2   343  ARG343      0.2616
     43  O        -29.0820   27.8060  -17.1290 O.2   343  ARG343     -0.2715
     44  CB       -27.8820   30.5910  -16.7340 C.3   343  ARG343      0.0348
     45  CG       -26.9020   29.8710  -15.8300 C.3   343  ARG343      0.0492
     46  CD       -25.5140   30.4830  -15.9540 C.3   343  ARG343      0.2205
     47  NE       -24.9260   30.2530  -17.2700 N.pl3 343  ARG343     -0.0865
     48  CZ       -23.8800   30.9170  -17.7530 C.cat 343  ARG343      0.5346
     49  NH1      -23.2930   31.8640  -17.0350 N.pl3 343  ARG343      0.1354
     50  NH2      -23.4210   30.6330  -18.9600 N.pl3 343  ARG343      0.1354
     51  N        -30.3670   29.0470  -18.5140 N.am  344  ARG344     -0.1977
     52  CA       -30.6820   27.9650  -19.4320 C.3   344  ARG344      0.1597
     53  C        -29.8480   28.1020  -20.6940 C.2   344  ARG344      0.2287
     54  O        -29.6640   29.1980  -21.2230 O.2   344  ARG344     -0.2864
     55  CB       -32.1710   27.9550  -19.7780 C.3   344  ARG344      0.0334
     56  CG       -32.5260   26.9970  -20.9060 C.3   344  ARG344      0.0492
     57  CD       -34.0130   26.7000  -20.9540 C.3   344  ARG344      0.2205
     58  NE       -34.4300   25.8730  -19.8250 N.pl3 344  ARG344     -0.0865
     59  CZ       -35.6400   25.8940  -19.2700 C.cat 344  ARG344      0.5346
     60  NH1      -36.5850   26.7070  -19.7280 N.pl3 344  ARG344      0.1354
     61  NH2      -35.9060   25.0940  -18.2450 N.pl3 344  ARG344      0.1354
     62  N        -36.9280   31.6880  -14.8240 N.3   379  MET379     -0.1230
     63  CA       -37.3200   31.6750  -13.4150 C.3   379  MET379      0.1702
     64  C        -37.7420   30.2710  -12.9850 C.2   379  MET379      0.2592
     65  O        -38.2730   29.4990  -13.7820 O.2   379  MET379     -0.2718
     66  CB       -38.4530   32.6740  -13.1600 C.3   379  MET379      0.0401
     67  CG       -38.1640   34.0820  -13.6570 C.3   379  MET379      0.0596
     68  SD       -36.8830   34.9190  -12.7020 S.3   379  MET379     -0.1393
     69  CE       -37.8680   35.7900  -11.4830 C.3   379  MET379      0.0692
     70  N        -37.4960   29.9460  -11.7210 N.am  380  ARG380     -0.1966
     71  CA       -37.9770   28.6980  -11.1440 C.3   380  ARG380      0.1729
     72  C        -39.4240   28.8430  -10.6840 C.2   380  ARG380      0.2616
     73  O        -39.9350   29.9560  -10.5600 O.2   380  ARG380     -0.2715
     74  CB       -37.0950   28.2700   -9.9680 C.3   380  ARG380      0.0348
     75  CG       -35.7100   27.7940  -10.3690 C.3   380  ARG380      0.0492
     76  CD       -34.9580   27.1600   -9.2040 C.3   380  ARG380      0.2205
     77  NE       -33.7180   26.5190   -9.6460 N.pl3 380  ARG380     -0.0865
     78  CZ       -32.5430   27.1340   -9.7620 C.cat 380  ARG380      0.5346
     79  NH1      -32.4190   28.4180   -9.4550 N.pl3 380  ARG380      0.1354
     80  NH2      -31.4840   26.4570  -10.1830 N.pl3 380  ARG380      0.1354
     81  N        -40.0810   27.7100  -10.4520 N.am  381  LYS381     -0.1963
     82  CA       -41.4500   27.6910   -9.9370 C.3   381  LYS381      0.1728
     83  C        -41.4420   27.4610   -8.4240 C.2   381  LYS381      0.2616
     84  O        -42.4400   27.6950   -7.7380 O.2   381  LYS381     -0.2715
     85  CB       -42.2730   26.6040  -10.6390 C.3   381  LYS381      0.0311
     86  CG       -42.4480   26.8270  -12.1350 C.3   381  LYS381      0.0038
     87  CD       -42.8210   25.5420  -12.8580 C.3   381  LYS381      0.0206
     88  CE       -42.6480   25.6870  -14.3640 C.3   381  LYS381      0.1093
     89  NZ       -42.8200   24.3920  -15.0830 N.3   381  LYS381     -0.1314
     90  N        -40.3010   27.0060   -7.9180 N.am  382  PHE382     -0.1974
     91  CA       -40.1090   26.7660   -6.4940 C.3   382  PHE382      0.1639
     92  C        -38.6730   27.1050   -6.1070 C.2   382  PHE382      0.2290
     93  O        -37.7630   26.9410   -6.9190 O.2   382  PHE382     -0.2864
     94  CB       -40.4140   25.3060   -6.1570 C.3   382  PHE382      0.0560
     95  CG       -39.8850   24.3290   -7.1730 C.ar  382  PHE382     -0.0200
     96  CD1      -38.5270   24.0520   -7.2440 C.ar  382  PHE382     -0.0042
     97  CD2      -40.7420   23.6910   -8.0570 C.ar  382  PHE382     -0.0042
     98  CE1      -38.0340   23.1600   -8.1750 C.ar  382  PHE382     -0.0003
     99  CE2      -40.2540   22.7930   -8.9920 C.ar  382  PHE382     -0.0003
    100  CZ       -38.8970   22.5290   -9.0510 C.ar  382  PHE382     -0.0000
@<TRIPOS>BOND
     1    54    53    2
     2    57    56    1
     3    57    58    1
     4    56    55    1
     5    53    52    1
     6    58    59    2
     7    55    52    1
     8    60    59    1
     9    52    51    1
    10    59    61    1
    11    50    48    1
    12    51    42   am
    13    48    47    2
    14    48    49    1
    15    42    43    2
    16    42    41    1
    17    47    46    1
    18    44    41    1
    19    44    45    1
    20    41    40    1
    21    46    45    1
    22    38    39   ar
    23    38    36   ar
    24    39    37   ar
    25    32    31    2
    26    40    31   am
    27    89    88    1
    28    36    34   ar
    29    62    63    1
    30    31    30    1
    31    37    35   ar
    32    88    87    1
    33    34    35   ar
    34    34    33    1
    35    65    64    2
    36    67    66    1
    37    67    68    1
    38    63    66    1
    39    63    64    1
    40    30    33    1
    41    30    29    1
    42    64    70   am
    43    87    86    1
    44     7     8    1
    45     7     6    1
    46    68    69    1
    47     8     9    2
    48    86    85    1
    49     9    11    1
    50     9    10    1
    51     5     6    1
    52     5     2    1
    53    70    71    1
    54     4     3    2
    55    20    18   ar
    56    71    72    1
    57    71    74    1
    58    19    18   ar
    59     2     3    1
    60     2     1    1
    61     3    12   am
    62    28    26   am
    63    72    73    2
    64    72    81   am
    65    85    82    1
    66    18    17    1
    67    81    82    1
    68    75    74    1
    69    75    76    1
    70    80    78    1
    71    27    26    2
    72    82    83    1
    73    26    25    1
    74    78    77    2
    75    78    79    1
    76    77    76    1
    77    12    13    1
    78    13    16    1
    79    13    14    1
    80    17    16    1
    81   100    99   ar
    82   100    98   ar
    83    99    97   ar
    84    14    21   am
    85    14    15    2
    86    83    90   am
    87    83    84    2
    88    25    22    1
    89    21    22    1
    90    98    96   ar
    91    97    95   ar
    92    90    91    1
    93    22    23    1
    94    96    95   ar
    95    95    94    1
    96    93    92    2
    97    91    94    1
    98    91    92    1
    99    23    24    2
