@<TRIPOS>MOLECULE
tmp/4x4qA00.pdb
 176 166 0 0 0
SMALL
GASTEIGER

@<TRIPOS>ATOM
      1  N          0.0630   57.4250  -41.9050 N.3    45  VAL45      -0.1231
      2  CA        -0.7440   56.2220  -42.0450 C.3    45  VAL45       0.1692
      3  C         -2.0540   56.3650  -41.2850 C.2    45  VAL45       0.2593
      4  O         -2.3730   57.4370  -40.7660 O.2    45  VAL45      -0.2718
      5  CB         0.0020   54.9800  -41.5270 C.3    45  VAL45       0.0266
      6  CG1        1.2460   54.7330  -42.3540 C.3    45  VAL45       0.0020
      7  CG2        0.3570   55.1450  -40.0560 C.3    45  VAL45       0.0020
      8  N         -2.8160   55.2810  -41.2300 N.am   46  GLY46      -0.1942
      9  CA        -4.0220   55.2490  -40.4320 C.3    46  GLY46       0.2014
     10  C         -5.2490   55.7250  -41.1720 C.2    46  GLY46       0.2639
     11  O         -5.2460   55.8560  -42.3940 O.2    46  GLY46      -0.2714
     12  N         -6.3010   55.9990  -40.4100 N.am   47  SER47      -0.1949
     13  CA        -7.5920   56.3460  -40.9710 C.3    47  SER47       0.1924
     14  C         -7.5860   57.7430  -41.5570 C.2    47  SER47       0.2314
     15  O         -8.4510   58.0810  -42.3610 O.2    47  SER47      -0.2863
     16  CB        -8.6750   56.2470  -39.9010 C.3    47  SER47       0.2116
     17  OG        -8.4210   57.1570  -38.8440 O.3    47  SER47      -0.2180
     18  N         -6.0210   57.7060  -45.2040 N.3    50  ARG50      -0.1245
     19  CA        -6.8970   57.0290  -46.1610 C.3    50  ARG50       0.1563
     20  C         -8.2610   57.7000  -46.2350 C.2    50  ARG50       0.2260
     21  O         -9.1090   57.3030  -47.0340 O.2    50  ARG50      -0.2867
     22  CB        -7.0830   55.5570  -45.7880 C.3    50  ARG50       0.0307
     23  CG        -5.7930   54.8050  -45.5840 C.3    50  ARG50       0.0489
     24  CD        -6.0460   53.3510  -45.2650 C.3    50  ARG50       0.2205
     25  NE        -4.8500   52.7220  -44.7200 N.pl3  50  ARG50      -0.0865
     26  CZ        -4.6530   52.4500  -43.4340 C.cat  50  ARG50       0.5346
     27  NH1       -5.5860   52.7080  -42.5290 N.pl3  50  ARG50       0.1354
     28  NH2       -3.5180   51.8900  -43.0520 N.pl3  50  ARG50       0.1354
     29  N        -11.7170   58.0640  -41.4590 N.3    53  TRP53      -0.1227
     30  CA       -11.8970   58.2640  -40.0270 C.3    53  TRP53       0.1737
     31  C        -13.3330   58.6760  -39.7640 C.2    53  TRP53       0.2595
     32  O        -13.9650   59.3070  -40.6080 O.2    53  TRP53      -0.2718
     33  CB       -10.9190   59.3120  -39.4790 C.3    53  TRP53       0.0564
     34  CG       -11.3020   60.7530  -39.6950 C.ar   53  TRP53       0.0003
     35  CD1      -12.0880   61.5230  -38.8870 C.ar   53  TRP53       0.0946
     36  CD2      -10.8880   61.6020  -40.7720 C.ar   53  TRP53       0.0152
     37  NE1      -12.1970   62.7940  -39.3970 N.ar   53  TRP53      -0.2442
     38  CE2      -11.4690   62.8680  -40.5540 C.ar   53  TRP53       0.0810
     39  CE3      -10.0850   61.4150  -41.9010 C.ar   53  TRP53       0.0012
     40  CZ2      -11.2750   63.9370  -41.4230 C.ar   53  TRP53       0.0191
     41  CZ3       -9.8940   62.4790  -42.7630 C.ar   53  TRP53       0.0001
     42  CH2      -10.4860   63.7230  -42.5190 C.ar   53  TRP53       0.0015
     43  N        -13.8420   58.3080  -38.5920 N.am   54  LEU54      -0.1980
     44  CA       -15.2300   58.5750  -38.2320 C.3    54  LEU54       0.1596
     45  C        -15.4470   60.0030  -37.7620 C.2    54  LEU54       0.2287
     46  O        -14.5420   60.6390  -37.2270 O.2    54  LEU54      -0.2864
     47  CB       -15.6840   57.6140  -37.1360 C.3    54  LEU54       0.0297
     48  CG       -16.2610   56.2670  -37.5630 C.3    54  LEU54       0.0022
     49  CD1      -16.5880   55.4480  -36.3270 C.3    54  LEU54       0.0001
     50  CD2      -17.4970   56.4370  -38.4280 C.3    54  LEU54       0.0001
     51  N        -14.1270   61.6130  -34.3510 N.3    57  SER57      -0.1217
     52  CA       -12.9920   60.8050  -33.9130 C.3    57  SER57       0.1889
     53  C        -11.7620   61.1120  -34.7540 C.2    57  SER57       0.2288
     54  O        -11.1590   60.2080  -35.3290 O.2    57  SER57      -0.2866
     55  CB       -13.3230   59.3150  -34.0040 C.3    57  SER57       0.2089
     56  OG       -14.4440   58.9980  -33.2030 O.3    57  SER57      -0.2183
     57  N         -8.0470   61.7870  -35.5140 N.3    59  GLU59      -0.1245
     58  CA        -6.7300   61.4820  -34.9710 C.3    59  GLU59       0.1567
     59  C         -5.7540   61.1750  -36.1020 C.2    59  GLU59       0.2260
     60  O         -5.9930   60.2900  -36.9240 O.2    59  GLU59      -0.2867
     61  CB        -6.7970   60.3040  -33.9980 C.3    59  GLU59       0.0388
     62  CG        -5.4450   59.9300  -33.4000 C.3    59  GLU59       0.1160
     63  CD        -5.5190   58.7290  -32.4810 C.2    59  GLU59       0.3649
     64  OE1       -5.1480   57.6220  -32.9250 O.co2  59  GLU59      -0.2457
     65  OE2       -5.9390   58.8930  -31.3140 O.co2  59  GLU59      -0.2457
     66  N         -2.2710   59.7680  -37.3980 N.3    61  ASP61      -0.1239
     67  CA        -1.1630   58.8710  -37.0910 C.3    61  ASP61       0.1674
     68  C          0.0370   59.1600  -37.9830 C.2    61  ASP61       0.2266
     69  O         -0.1010   59.3230  -39.1920 O.2    61  ASP61      -0.2867
     70  CB        -1.5890   57.4120  -37.2450 C.3    61  ASP61       0.1410
     71  CG        -2.7300   57.0430  -36.3290 C.2    61  ASP61       0.3668
     72  OD1       -2.4570   56.5520  -35.2160 O.co2  61  ASP61      -0.2456
     73  OD2       -3.8980   57.2540  -36.7160 O.co2  61  ASP61      -0.2456
     74  N          4.0130   57.6630  -38.5550 N.3    63  PHE63      -0.1241
     75  CA         5.0500   56.6950  -38.2300 C.3    63  PHE63       0.1605
     76  C          6.4190   57.2080  -38.6560 C.2    63  PHE63       0.2264
     77  O          6.6010   57.6650  -39.7820 O.2    63  PHE63      -0.2867
     78  CB         4.7400   55.3480  -38.8820 C.3    63  PHE63       0.0534
     79  CG         3.8930   54.4540  -38.0260 C.ar   63  PHE63      -0.0203
     80  CD1        2.6900   54.9050  -37.5110 C.ar   63  PHE63      -0.0042
     81  CD2        4.2960   53.1640  -37.7370 C.ar   63  PHE63      -0.0042
     82  CE1        1.9100   54.0890  -36.7150 C.ar   63  PHE63      -0.0003
     83  CE2        3.5200   52.3430  -36.9460 C.ar   63  PHE63      -0.0003
     84  CZ         2.3250   52.8050  -36.4350 C.ar   63  PHE63      -0.0000
     85  N          2.6440   48.3670  -40.2990 N.3   130  THR130     -0.1218
     86  CA         1.6490   49.4170  -40.4760 C.3   130  THR130      0.1862
     87  C          1.9080   50.3000  -41.7020 C.2   130  THR130      0.2287
     88  O          0.9660   50.6420  -42.4140 O.2   130  THR130     -0.2866
     89  CB         1.5570   50.2990  -39.2190 C.3   130  THR130      0.1770
     90  OG1        1.2270   49.4830  -38.0890 O.3   130  THR130     -0.2211
     91  CG2        0.4900   51.3570  -39.3900 C.3   130  THR130      0.0375
     92  N          0.7310   48.3380  -44.6050 N.3   133  HIS133     -0.1241
     93  CA        -0.7180   48.2570  -44.7230 C.3   133  HIS133      0.1621
     94  C         -1.1770   49.3940  -45.6180 C.2   133  HIS133      0.2264
     95  O         -2.0270   49.2200  -46.4880 O.2   133  HIS133     -0.2867
     96  CB        -1.4090   48.3620  -43.3600 C.3   133  HIS133      0.0745
     97  CG        -1.1930   47.1790  -42.4710 C.ar  133  HIS133      0.0817
     98  ND1       -1.2600   47.2630  -41.0980 N.ar  133  HIS133     -0.2268
     99  CD2       -0.9110   45.8870  -42.7550 C.ar  133  HIS133      0.1154
    100  CE1       -1.0300   46.0730  -40.5740 C.ar  133  HIS133      0.1986
    101  NE2       -0.8140   45.2200  -41.5580 N.ar  133  HIS133     -0.2212
    102  N        -17.5830   51.0990  -39.6930 N.3   152  LYS152     -0.1245
    103  CA       -16.9680   51.5570  -38.4570 C.3   152  LYS152      0.1561
    104  C        -18.0200   52.1190  -37.5110 C.2   152  LYS152      0.2260
    105  O        -18.0200   51.8040  -36.3240 O.2   152  LYS152     -0.2867
    106  CB       -15.8980   52.6140  -38.7450 C.3   152  LYS152      0.0271
    107  CG       -14.6100   52.0410  -39.3070 C.3   152  LYS152      0.0035
    108  CD       -13.5170   53.0880  -39.4320 C.3   152  LYS152      0.0206
    109  CE       -12.2270   52.4600  -39.9400 C.3   152  LYS152      0.1093
    110  NZ       -11.1100   53.4350  -40.0540 N.3   152  LYS152     -0.1314
    111  N        -16.2070   48.1430  -31.7650 N.3   161  TYR161     -0.1241
    112  CA       -15.1830   48.7160  -32.6220 C.3   161  TYR161      0.1605
    113  C        -13.9440   48.9910  -31.7720 C.2   161  TYR161      0.2264
    114  O        -14.0020   49.7750  -30.8260 O.2   161  TYR161     -0.2867
    115  CB       -15.6800   49.9940  -33.2920 C.3   161  TYR161      0.0534
    116  CG       -14.6450   50.6390  -34.1800 C.ar  161  TYR161     -0.0201
    117  CD1      -14.1730   49.9860  -35.3100 C.ar  161  TYR161     -0.0009
    118  CD2      -14.1220   51.8850  -33.8800 C.ar  161  TYR161     -0.0009
    119  CE1      -13.2270   50.5610  -36.1210 C.ar  161  TYR161      0.0417
    120  CE2      -13.1710   52.4660  -34.6840 C.ar  161  TYR161      0.0417
    121  CZ       -12.7260   51.8010  -35.8050 C.ar  161  TYR161      0.1957
    122  OH       -11.7740   52.3820  -36.6090 O.3   161  TYR161     -0.2866
    123  N         -9.6580   47.0280  -31.4340 N.3   163  ALA163     -0.1245
    124  CA        -8.9450   45.7800  -31.1600 C.3   163  ALA163      0.1562
    125  C         -8.2700   45.7930  -29.7970 C.2   163  ALA163      0.2260
    126  O         -7.7060   44.7880  -29.3670 O.2   163  ALA163     -0.2867
    127  CB        -7.9260   45.5160  -32.2390 C.3   163  ALA163      0.0290
    128  N        -10.5980   45.9250  -35.3730 N.3   171  SER171     -0.1202
    129  CA        -9.6680   47.0260  -35.5910 C.3   171  SER171      0.2020
    130  C        -10.1220   47.8210  -36.8080 C.2   171  SER171      0.2619
    131  O        -10.8540   47.3140  -37.6530 O.2   171  SER171     -0.2717
    132  CB        -8.2310   46.5260  -35.7770 C.3   171  SER171      0.2103
    133  OG        -8.0720   45.7960  -36.9780 O.3   171  SER171     -0.2182
    134  N         -9.6940   49.0730  -36.8890 N.am  172  GLY172     -0.1942
    135  CA       -10.0330   49.9160  -38.0190 C.3   172  GLY172      0.2014
    136  C         -9.5010   49.3750  -39.3340 C.2   172  GLY172      0.2638
    137  O        -10.1060   49.5690  -40.3890 O.2   172  GLY172     -0.2714
    138  N         -8.3530   48.7080  -39.2710 N.am  173  TYR173     -0.1973
    139  CA        -7.7260   48.1360  -40.4550 C.3   173  TYR173      0.1639
    140  C         -8.5000   46.9120  -40.9400 C.2   173  TYR173      0.2290
    141  O         -8.5850   46.6540  -42.1380 O.2   173  TYR173     -0.2864
    142  CB        -6.2680   47.7780  -40.1510 C.3   173  TYR173      0.0560
    143  CG        -5.5590   47.0290  -41.2570 C.ar  173  TYR173     -0.0198
    144  CD1       -5.3890   47.6050  -42.5080 C.ar  173  TYR173     -0.0009
    145  CD2       -5.0350   45.7620  -41.0460 C.ar  173  TYR173     -0.0009
    146  CE1       -4.7430   46.9370  -43.5210 C.ar  173  TYR173      0.0417
    147  CE2       -4.3830   45.0860  -42.0540 C.ar  173  TYR173      0.0417
    148  CZ        -4.2390   45.6760  -43.2910 C.ar  173  TYR173      0.1957
    149  OH        -3.5880   45.0060  -44.3040 O.3   173  TYR173     -0.2866
    150  N        -11.4910   48.0080  -43.0740 N.3   176  GLU176     -0.1245
    151  CA       -11.1160   48.4000  -44.4270 C.3   176  GLU176      0.1567
    152  C        -10.8890   47.1770  -45.3060 C.2   176  GLU176      0.2260
    153  O        -11.2880   47.1610  -46.4610 O.2   176  GLU176     -0.2867
    154  CB        -9.8720   49.2840  -44.3870 C.3   176  GLU176      0.0388
    155  CG       -10.1220   50.6100  -43.6860 C.3   176  GLU176      0.1160
    156  CD        -8.8660   51.4440  -43.4940 C.2   176  GLU176      0.3649
    157  OE1       -8.9390   52.6710  -43.7130 O.co2 176  GLU176     -0.2457
    158  OE2       -7.8210   50.8860  -43.0980 O.co2 176  GLU176     -0.2457
    159  N         -0.1350   36.4170  -40.2490 N.3   224  ARG224     -0.1245
    160  CA        -0.7270   37.3060  -39.2550 C.3   224  ARG224      0.1563
    161  C         -2.2460   37.3860  -39.4060 C.2   224  ARG224      0.2260
    162  O         -2.7760   37.5590  -40.5040 O.2   224  ARG224     -0.2867
    163  CB        -0.0670   38.6940  -39.3580 C.3   224  ARG224      0.0307
    164  CG        -0.9690   39.9320  -39.3720 C.3   224  ARG224      0.0489
    165  CD        -1.1940   40.5360  -38.0020 C.3   224  ARG224      0.2205
    166  NE        -1.8470   41.8390  -38.1260 N.pl3 224  ARG224     -0.0865
    167  CZ        -2.3080   42.5600  -37.1090 C.cat 224  ARG224      0.5346
    168  NH1       -2.1910   42.1230  -35.8590 N.pl3 224  ARG224      0.1354
    169  NH2       -2.8820   43.7320  -37.3460 N.pl3 224  ARG224      0.1354
    170  N         -5.4660   39.4790  -38.7200 N.3   226  VAL226     -0.1245
    171  CA        -5.8370   40.8710  -38.4990 C.3   226  VAL226      0.1561
    172  C         -6.8890   40.9560  -37.3940 C.2   226  VAL226      0.2260
    173  O         -6.9480   41.9390  -36.6510 O.2   226  VAL226     -0.2867
    174  CB        -6.3640   41.5220  -39.7950 C.3   226  VAL226      0.0252
    175  CG1       -6.6970   42.9870  -39.5720 C.3   226  VAL226      0.0019
    176  CG2       -5.3330   41.3940  -40.9030 C.3   226  VAL226      0.0019
@<TRIPOS>BOND
     1    21    20    2
     2    95    94    2
     3   153   152    2
     4    20    19    1
     5    19    22    1
     6    19    18    1
     7    22    23    1
     8    94    93    1
     9    23    24    1
    10   152   151    1
    11    24    25    1
    12    93    92    1
    13    93    96    1
    14    25    26    2
    15   151   154    1
    16   151   150    1
    17   154   155    1
    18   149   148    1
    19   157   156   ar
    20   155   156    1
    21   146   148   ar
    22   146   144   ar
    23   156   158   ar
    24    26    28    1
    25    26    27    1
    26    96    97    1
    27   148   147   ar
    28    41    42   ar
    29    41    39   ar
    30    99    97   ar
    31    99   101   ar
    32    42    40   ar
    33   144   143   ar
    34    97    98   ar
    35    88    87    2
    36    11    10    2
    37    15    14    2
    38     6     5    1
    39   141   140    2
    40   147   145   ar
    41     2     1    1
    42     2     5    1
    43     2     3    1
    44    39    36   ar
    45    87    86    1
    46   101   100   ar
    47    14    13    1
    48     5     7    1
    49    29    30    1
    50    40    38   ar
    51     3     8   am
    52     3     4    2
    53   143   145   ar
    54   143   142    1
    55     8     9    1
    56    10     9    1
    57    10    12   am
    58    98   100   ar
    59    13    12    1
    60    13    16    1
    61   140   139    1
    62   176   174    1
    63    36    38   ar
    64    36    34   ar
    65    32    31    2
    66    38    37   ar
    67   162   161    2
    68    86    85    1
    69    86    89    1
    70   139   142    1
    71   139   138    1
    72   137   136    2
    73   159   160    1
    74   110   109    1
    75    30    31    1
    76    30    33    1
    77   109   108    1
    78    16    17    1
    79   174   175    1
    80   174   171    1
    81    77    76    2
    82    31    43   am
    83    34    33    1
    84    34    35   ar
    85   102   103    1
    86   108   107    1
    87   161   160    1
    88    37    35   ar
    89    91    89    1
    90   164   163    1
    91   164   165    1
    92   163   160    1
    93   136   138   am
    94   136   135    1
    95   107   106    1
    96    89    90    1
    97    69    68    2
    98    78    75    1
    99    78    79    1
   100   106   103    1
   101   170   171    1
   102    76    75    1
   103    43    44    1
   104    74    75    1
   105   171   172    1
   106   103   104    1
   107    50    48    1
   108    44    45    1
   109    44    47    1
   110   166   165    1
   111   166   167    2
   112    79    81   ar
   113    79    80   ar
   114   135   134    1
   115    68    67    1
   116    45    46    2
   117    81    83   ar
   118   131   130    2
   119    48    47    1
   120    48    49    1
   121   104   105    2
   122    80    82   ar
   123    66    67    1
   124   172   173    2
   125   169   167    1
   126    70    67    1
   127    70    71    1
   128   167   168    1
   129   133   132    1
   130    83    84   ar
   131    60    59    2
   132   134   130   am
   133   130   129    1
   134    73    71   ar
   135    82    84   ar
   136   122   121    1
   137    71    72   ar
   138   119   121   ar
   139   119   117   ar
   140    59    58    1
   141   121   120   ar
   142   132   129    1
   143   129   128    1
   144    57    58    1
   145    54    53    2
   146   117   116   ar
   147    58    61    1
   148    53    52    1
   149   120   118   ar
   150    51    52    1
   151   116   118   ar
   152   116   115    1
   153    55    52    1
   154    55    56    1
   155    61    62    1
   156    62    63    1
   157   115   112    1
   158    64    63   ar
   159   112   113    1
   160   112   111    1
   161    63    65   ar
   162   127   124    1
   163   113   114    2
   164   123   124    1
   165   124   125    1
   166   125   126    2
