@<TRIPOS>MOLECULE
tmp/4x4rC00.pdb
 183 173 0 0 0
SMALL
GASTEIGER

@<TRIPOS>ATOM
      1  N         39.2880  -28.4160   -8.7330 N.3    45  VAL45      -0.1231
      2  CA        38.0470  -27.7860   -8.2870 C.3    45  VAL45       0.1692
      3  C         37.7690  -26.5430   -9.1180 C.2    45  VAL45       0.2593
      4  O         38.4580  -26.2800  -10.1080 O.2    45  VAL45      -0.2718
      5  CB        38.0980  -27.3920   -6.7880 C.3    45  VAL45       0.0266
      6  CG1       38.2280  -28.6310   -5.9120 C.3    45  VAL45       0.0020
      7  CG2       39.2380  -26.4100   -6.5230 C.3    45  VAL45       0.0020
      8  N         36.7490  -25.7900   -8.7140 N.am   46  GLY46      -0.1942
      9  CA        36.4490  -24.5090   -9.3260 C.3    46  GLY46       0.2014
     10  C         35.5120  -24.6060  -10.5120 C.2    46  GLY46       0.2639
     11  O         34.9090  -25.6490  -10.7620 O.2    46  GLY46      -0.2714
     12  N         35.3960  -23.5070  -11.2490 N.am   47  SER47      -0.1949
     13  CA        34.4620  -23.4310  -12.3630 C.3    47  SER47       0.1924
     14  C         34.8860  -24.3390  -13.5060 C.2    47  SER47       0.2314
     15  O         34.0950  -24.6280  -14.4040 O.2    47  SER47      -0.2863
     16  CB        34.3480  -21.9910  -12.8640 C.3    47  SER47       0.2116
     17  OG        35.5980  -21.5150  -13.3350 O.3    47  SER47      -0.2180
     18  N         33.9010  -28.2370  -12.7850 N.3    50  ARG50      -0.1245
     19  CA        32.4540  -28.4390  -12.8650 C.3    50  ARG50       0.1563
     20  C         31.8830  -27.9330  -14.1920 C.2    50  ARG50       0.2260
     21  O         30.6750  -28.0160  -14.4250 O.2    50  ARG50      -0.2867
     22  CB        31.7540  -27.7460  -11.6920 C.3    50  ARG50       0.0307
     23  CG        32.3260  -28.1180  -10.3280 C.3    50  ARG50       0.0489
     24  CD        31.5400  -27.4790   -9.1910 C.3    50  ARG50       0.2205
     25  NE        32.3300  -27.3740   -7.9620 N.pl3  50  ARG50      -0.0865
     26  CZ        32.9560  -26.2740   -7.5430 C.cat  50  ARG50       0.5346
     27  NH1       32.9100  -25.1500   -8.2490 N.pl3  50  ARG50       0.1354
     28  NH2       33.6430  -26.3010   -6.4070 N.pl3  50  ARG50       0.1354
     29  N         31.5880  -24.7850  -15.4120 N.3    52  THR52      -0.1203
     30  CA        30.7000  -23.6460  -15.1990 C.3    52  THR52       0.1994
     31  C         31.4450  -22.3280  -15.4170 C.2    52  THR52       0.2618
     32  O         31.0110  -21.2770  -14.9420 O.2    52  THR52      -0.2717
     33  CB        30.0980  -23.6470  -13.7720 C.3    52  THR52       0.1784
     34  OG1       31.1490  -23.5890  -12.7970 O.3    52  THR52      -0.2211
     35  CG2       29.2530  -24.8930  -13.5400 C.3    52  THR52       0.0376
     36  N         32.5680  -22.3850  -16.1290 N.am   53  TRP53      -0.1961
     37  CA        33.3590  -21.1850  -16.3890 C.3    53  TRP53       0.1771
     38  C         32.8350  -20.4340  -17.6130 C.2    53  TRP53       0.2619
     39  O         32.3910  -21.0440  -18.5870 O.2    53  TRP53      -0.2715
     40  CB        34.8430  -21.5440  -16.5700 C.3    53  TRP53       0.0590
     41  CG        35.2120  -22.0750  -17.9320 C.ar   53  TRP53       0.0006
     42  CD1       35.5920  -21.3450  -19.0230 C.ar   53  TRP53       0.0946
     43  CD2       35.2590  -23.4490  -18.3360 C.ar   53  TRP53       0.0152
     44  NE1       35.8630  -22.1780  -20.0810 N.ar   53  TRP53      -0.2442
     45  CE2       35.6660  -23.4750  -19.6860 C.ar   53  TRP53       0.0810
     46  CE3       34.9920  -24.6600  -17.6900 C.ar   53  TRP53       0.0012
     47  CZ2       35.8110  -24.6630  -20.4000 C.ar   53  TRP53       0.0191
     48  CZ3       35.1390  -25.8400  -18.4030 C.ar   53  TRP53       0.0001
     49  CH2       35.5420  -25.8320  -19.7430 C.ar   53  TRP53       0.0015
     50  N         32.8770  -19.1060  -17.5480 N.am   54  LEU54      -0.1977
     51  CA        32.3960  -18.2650  -18.6410 C.3    54  LEU54       0.1596
     52  C         33.4090  -18.1700  -19.7760 C.2    54  LEU54       0.2287
     53  O         34.6120  -18.3470  -19.5790 O.2    54  LEU54      -0.2864
     54  CB        32.0510  -16.8590  -18.1330 C.3    54  LEU54       0.0297
     55  CG        30.6840  -16.7000  -17.4590 C.3    54  LEU54       0.0022
     56  CD1       30.4370  -17.7910  -16.4250 C.3    54  LEU54       0.0001
     57  CD2       30.5590  -15.3220  -16.8190 C.3    54  LEU54       0.0001
     58  N         36.8480  -16.3650  -19.6980 N.3    57  SER57      -0.1217
     59  CA        37.2400  -16.3710  -18.2910 C.3    57  SER57       0.1889
     60  C         37.6990  -17.7640  -17.8710 C.2    57  SER57       0.2288
     61  O         37.2530  -18.3010  -16.8510 O.2    57  SER57      -0.2866
     62  CB        36.0780  -15.9070  -17.4110 C.3    57  SER57       0.2089
     63  OG        35.6340  -14.6180  -17.8010 O.3    57  SER57      -0.2183
     64  N         39.8840  -20.3920  -16.2390 N.3    59  GLU59      -0.1245
     65  CA        40.8500  -20.5740  -15.1630 C.3    59  GLU59       0.1567
     66  C         40.7490  -21.9750  -14.5860 C.2    59  GLU59       0.2260
     67  O         39.6670  -22.4190  -14.1990 O.2    59  GLU59      -0.2867
     68  CB        40.6180  -19.5540  -14.0480 C.3    59  GLU59       0.0388
     69  CG        41.6630  -19.6050  -12.9350 C.3    59  GLU59       0.1160
     70  CD        41.1860  -18.9610  -11.6450 C.2    59  GLU59       0.3649
     71  OE1       40.0540  -18.4290  -11.6140 O.co2  59  GLU59      -0.2457
     72  OE2       41.9450  -18.9940  -10.6540 O.co2  59  GLU59      -0.2457
     73  N         41.7770  -24.4690  -11.5440 N.3    61  ASP61      -0.1239
     74  CA        42.1990  -24.4510  -10.1500 C.3    61  ASP61       0.1674
     75  C         42.5530  -25.8600   -9.6820 C.2    61  ASP61       0.2266
     76  O         41.7870  -26.8070   -9.8890 O.2    61  ASP61      -0.2867
     77  CB        41.1030  -23.8380   -9.2760 C.3    61  ASP61       0.1410
     78  CG        40.7860  -22.4010   -9.6660 C.2    61  ASP61       0.3668
     79  OD1       41.5680  -21.4970   -9.3000 O.co2  61  ASP61      -0.2456
     80  OD2       39.7620  -22.1750  -10.3470 O.co2  61  ASP61      -0.2456
     81  N         44.0030  -27.8930   -6.2410 N.3    63  PHE63      -0.1241
     82  CA        44.3310  -27.9060   -4.8260 C.3    63  PHE63       0.1605
     83  C         45.2920  -29.0390   -4.4870 C.2    63  PHE63       0.2264
     84  O         45.1460  -30.1560   -4.9800 O.2    63  PHE63      -0.2867
     85  CB        43.0600  -28.0330   -3.9880 C.3    63  PHE63       0.0534
     86  CG        42.4290  -26.7150   -3.6480 C.ar   63  PHE63      -0.0203
     87  CD1       42.1790  -25.7760   -4.6380 C.ar   63  PHE63      -0.0042
     88  CD2       42.0850  -26.4140   -2.3370 C.ar   63  PHE63      -0.0042
     89  CE1       41.5980  -24.5590   -4.3260 C.ar   63  PHE63      -0.0003
     90  CE2       41.5030  -25.2000   -2.0180 C.ar   63  PHE63      -0.0003
     91  CZ        41.2590  -24.2710   -3.0140 C.ar   63  PHE63      -0.0000
     92  N         36.8440  -25.5200    0.1230 N.3   130  THR130     -0.1218
     93  CA        36.7500  -25.6090   -1.3320 C.3   130  THR130      0.1862
     94  C         36.7470  -27.0530   -1.8510 C.2   130  THR130      0.2287
     95  O         36.0620  -27.3520   -2.8310 O.2   130  THR130     -0.2866
     96  CB        37.9030  -24.8410   -2.0040 C.3   130  THR130      0.1770
     97  OG1       37.9240  -23.4940   -1.5180 O.3   130  THR130     -0.2211
     98  CG2       37.7400  -24.8290   -3.5210 C.3   130  THR130      0.0375
     99  N         33.3690  -28.2580   -1.1350 N.3   133  HIS133     -0.1241
    100  CA        32.4460  -27.5900   -2.0470 C.3   133  HIS133      0.1621
    101  C         32.2750  -28.4010   -3.3270 C.2   133  HIS133      0.2264
    102  O         31.1600  -28.5710   -3.8170 O.2   133  HIS133     -0.2867
    103  CB        32.9360  -26.1770   -2.3930 C.3   133  HIS133      0.0745
    104  CG        32.7140  -25.1710   -1.3060 C.ar  133  HIS133      0.0817
    105  ND1       33.3210  -23.9310   -1.3060 N.ar  133  HIS133     -0.2268
    106  CD2       31.9530  -25.2130   -0.1880 C.ar  133  HIS133      0.1154
    107  CE1       32.9450  -23.2590   -0.2350 C.ar  133  HIS133      0.1986
    108  NE2       32.1130  -24.0130    0.4620 N.ar  133  HIS133     -0.2212
    109  N         26.0140  -16.1010  -13.8030 N.3   152  LYS152     -0.1245
    110  CA        27.3550  -15.5250  -13.6990 C.3   152  LYS152      0.1561
    111  C         27.6220  -14.4580  -14.7660 C.2   152  LYS152      0.2260
    112  O         28.3150  -13.4740  -14.5080 O.2   152  LYS152     -0.2867
    113  CB        28.4090  -16.6310  -13.7950 C.3   152  LYS152      0.0271
    114  CG        28.5310  -17.4990  -12.5470 C.3   152  LYS152      0.0035
    115  CD        29.6730  -18.5040  -12.6790 C.3   152  LYS152      0.0206
    116  CE        29.8680  -19.3030  -11.3960 C.3   152  LYS152      0.1093
    117  NZ        31.0070  -20.2660  -11.4790 N.3   152  LYS152     -0.1314
    118  N         29.8800   -9.3700  -10.0030 N.3   161  TYR161     -0.1241
    119  CA        30.1950  -10.7940   -9.9260 C.3   161  TYR161      0.1605
    120  C         31.3990  -11.0770   -9.0310 C.2   161  TYR161      0.2264
    121  O         31.5240  -12.1670   -8.4820 O.2   161  TYR161     -0.2867
    122  CB        30.4470  -11.3780  -11.3200 C.3   161  TYR161      0.0534
    123  CG        30.8700  -12.8310  -11.2570 C.ar  161  TYR161     -0.0201
    124  CD1       30.0520  -13.7910  -10.6660 C.ar  161  TYR161     -0.0009
    125  CD2       32.0940  -13.2410  -11.7730 C.ar  161  TYR161     -0.0009
    126  CE1       30.4450  -15.1200  -10.5900 C.ar  161  TYR161      0.0417
    127  CE2       32.4920  -14.5680  -11.7070 C.ar  161  TYR161      0.0417
    128  CZ        31.6640  -15.5010  -11.1160 C.ar  161  TYR161      0.1957
    129  OH        32.0620  -16.8160  -11.0520 O.3   161  TYR161     -0.2866
    130  N         33.5130  -11.3350   -5.7800 N.3   163  ALA163     -0.1245
    131  CA        33.3040  -11.3670   -4.3330 C.3   163  ALA163      0.1562
    132  C         34.4790  -10.6690   -3.6540 C.2   163  ALA163      0.2260
    133  O         34.4640  -10.4280   -2.4440 O.2   163  ALA163     -0.2867
    134  CB        33.1670  -12.7860   -3.8360 C.3   163  ALA163      0.0290
    135  N         29.9690  -14.2760   -5.0700 N.3   171  SER171     -0.1202
    136  CA        31.0430  -15.2150   -5.4100 C.3   171  SER171      0.2020
    137  C         30.5610  -16.2510   -6.4310 C.2   171  SER171      0.2619
    138  O         29.3690  -16.5590   -6.5030 O.2   171  SER171     -0.2717
    139  CB        31.5810  -15.9140   -4.1510 C.3   171  SER171      0.2103
    140  OG        30.5590  -16.5750   -3.4270 O.3   171  SER171     -0.2182
    141  N         31.4910  -16.7770   -7.2240 N.am  172  GLY172     -0.1942
    142  CA        31.1650  -17.7660   -8.2390 C.3   172  GLY172      0.2014
    143  C         30.5280  -19.0180   -7.6600 C.2   172  GLY172      0.2638
    144  O         29.7890  -19.7200   -8.3470 O.2   172  GLY172     -0.2714
    145  N         30.8200  -19.2960   -6.3930 N.am  173  TYR173     -0.1973
    146  CA        30.2380  -20.4350   -5.6850 C.3   173  TYR173      0.1639
    147  C         28.8240  -20.1180   -5.2030 C.2   173  TYR173      0.2290
    148  O         27.9630  -21.0010   -5.1450 O.2   173  TYR173     -0.2864
    149  CB        31.1260  -20.8330   -4.5040 C.3   173  TYR173      0.0560
    150  CG        30.5190  -21.8470   -3.5520 C.ar  173  TYR173     -0.0198
    151  CD1       30.2160  -23.1370   -3.9730 C.ar  173  TYR173     -0.0009
    152  CD2       30.2680  -21.5170   -2.2230 C.ar  173  TYR173     -0.0009
    153  CE1       29.6680  -24.0650   -3.1010 C.ar  173  TYR173      0.0417
    154  CE2       29.7220  -22.4400   -1.3450 C.ar  173  TYR173      0.0417
    155  CZ        29.4230  -23.7110   -1.7900 C.ar  173  TYR173      0.1957
    156  OH        28.8790  -24.6280   -0.9190 O.3   173  TYR173     -0.2866
    157  N         26.4570  -20.7240   -7.9920 N.3   176  GLU176     -0.1245
    158  CA        26.2110  -22.1490   -8.1710 C.3   176  GLU176      0.1567
    159  C         25.1930  -22.6640   -7.1510 C.2   176  GLU176      0.2260
    160  O         24.3080  -23.4450   -7.5020 O.2   176  GLU176     -0.2867
    161  CB        27.5230  -22.9380   -8.0630 C.3   176  GLU176      0.0388
    162  CG        28.4970  -22.6790   -9.2130 C.3   176  GLU176      0.1160
    163  CD        29.8100  -23.4310   -9.0670 C.2   176  GLU176      0.3649
    164  OE1       30.0990  -24.2930   -9.9240 O.co2 176  GLU176     -0.2457
    165  OE2       30.5640  -23.1400   -8.1120 O.co2 176  GLU176     -0.2457
    166  N         29.0200  -20.6780    7.9980 N.3   224  ARG224     -0.1245
    167  CA        29.5220  -19.7840    6.9570 C.3   224  ARG224      0.1563
    168  C         28.4100  -19.1300    6.1410 C.2   224  ARG224      0.2260
    169  O         27.4690  -19.7960    5.7080 O.2   224  ARG224     -0.2867
    170  CB        30.4610  -20.5310    6.0060 C.3   224  ARG224      0.0307
    171  CG        30.6450  -19.8010    4.6780 C.3   224  ARG224      0.0489
    172  CD        31.9600  -20.1190    3.9930 C.3   224  ARG224      0.2205
    173  NE        32.2170  -19.1710    2.9090 N.pl3 224  ARG224     -0.0865
    174  CZ        32.6980  -17.9400    3.0830 C.cat 224  ARG224      0.5346
    175  NH1       32.9910  -17.4930    4.3020 N.pl3 224  ARG224      0.1354
    176  NH2       32.8870  -17.1500    2.0330 N.pl3 224  ARG224      0.1354
    177  N         27.8040  -17.6730    2.6830 N.3   226  VAL226     -0.1245
    178  CA        28.3940  -17.6760    1.3500 C.3   226  VAL226      0.1561
    179  C         28.2930  -16.2850    0.7300 C.2   226  VAL226      0.2260
    180  O         29.1020  -15.9110   -0.1210 O.2   226  VAL226     -0.2867
    181  CB        27.7150  -18.7080    0.4400 C.3   226  VAL226      0.0252
    182  CG1       28.4270  -18.7840   -0.8990 C.3   226  VAL226      0.0019
    183  CG2       27.7130  -20.0750    1.1100 C.3   226  VAL226      0.0019
@<TRIPOS>BOND
     1    47    49   ar
     2    47    45   ar
     3    44    45   ar
     4    44    42   ar
     5    52    53    2
     6    52    51    1
     7    49    48   ar
     8    58    59    1
     9    45    43   ar
    10    42    41   ar
    11    51    54    1
    12    51    50    1
    13    39    38    2
    14    48    46   ar
    15    43    41   ar
    16    43    46   ar
    17    59    60    1
    18    59    62    1
    19    54    55    1
    20    41    40    1
    21    60    61    2
    22    63    62    1
    23    38    50   am
    24    38    37    1
    25    55    57    1
    26    55    56    1
    27    40    37    1
    28    37    36    1
    29    64    65    1
    30    36    31   am
    31    31    30    1
    32    31    32    2
    33    29    30    1
    34    30    33    1
    35    65    66    1
    36    65    68    1
    37   111   112    2
    38   111   110    1
    39    66    67    2
    40    21    20    2
    41    15    14    2
    42    20    19    1
    43    68    69    1
    44   109   110    1
    45   113   110    1
    46   113   114    1
    47    33    35    1
    48    33    34    1
    49    14    13    1
    50    17    16    1
    51    69    70    1
    52    19    18    1
    53    19    22    1
    54    16    13    1
    55   115   114    1
    56   115   116    1
    57    13    12    1
    58   125   127   ar
    59   125   123   ar
    60   127   128   ar
    61    22    23    1
    62    70    71   ar
    63    70    72   ar
    64    73    74    1
    65   117   116    1
    66   122   123    1
    67   122   119    1
    68   123   124   ar
    69    12    10   am
    70   128   129    1
    71   128   126   ar
    72    11    10    2
    73   124   126   ar
    74    10     9    1
    75    80    78   ar
    76    23    24    1
    77    74    75    1
    78    74    77    1
    79     4     3    2
    80   118   119    1
    81   119   120    1
    82   164   163   ar
    83    76    75    2
    84    78    79   ar
    85    78    77    1
    86     9     8    1
    87   162   163    1
    88   162   161    1
    89    24    25    1
    90     3     8   am
    91     3     2    1
    92   163   165   ar
    93   120   121    2
    94     1     2    1
    95   144   143    2
    96     2     5    1
    97    27    26    1
    98   142   143    1
    99   142   141    1
   100   158   161    1
   101   158   157    1
   102   158   159    1
   103    25    26    2
   104   143   145   am
   105    26    28    1
   106   160   159    2
   107   141   137   am
   108     5     7    1
   109     5     6    1
   110   138   137    2
   111   137   136    1
   112   145   146    1
   113    81    82    1
   114   130   131    1
   115   146   147    1
   116   146   149    1
   117   136   135    1
   118   136   139    1
   119   147   148    2
   120    84    83    2
   121    82    83    1
   122    82    85    1
   123    87    89   ar
   124    87    86   ar
   125   149   150    1
   126   131   134    1
   127   131   132    1
   128    89    91   ar
   129   139   140    1
   130    85    86    1
   131   151   150   ar
   132   151   153   ar
   133   102   101    2
   134   132   133    2
   135    86    88   ar
   136   150   152   ar
   137    98    96    1
   138   101   100    1
   139   153   155   ar
   140    91    90   ar
   141    95    94    2
   142   103   100    1
   143   103   104    1
   144    88    90   ar
   145   152   154   ar
   146   100    99    1
   147    96    97    1
   148    96    93    1
   149    94    93    1
   150   155   154   ar
   151   155   156    1
   152    93    92    1
   153   105   104   ar
   154   105   107   ar
   155   104   106   ar
   156   182   181    1
   157   107   108   ar
   158   106   108   ar
   159   180   179    2
   160   181   183    1
   161   181   178    1
   162   179   178    1
   163   178   177    1
   164   176   174    1
   165   173   174    2
   166   173   172    1
   167   174   175    1
   168   172   171    1
   169   171   170    1
   170   169   168    2
   171   170   167    1
   172   168   167    1
   173   167   166    1
