@<TRIPOS>MOLECULE
tmp/4x4vA01.pdb
 93 88 0 0 0
SMALL
GASTEIGER

@<TRIPOS>ATOM
      1  N         12.1970   31.7140   42.3790 N.3   200  VAL200     -0.1245
      2  CA        10.9090   32.3140   42.7180 C.3   200  VAL200      0.1561
      3  C         11.0780   33.1780   43.9660 C.2   200  VAL200      0.2260
      4  O         11.3950   32.6730   45.0390 O.2   200  VAL200     -0.2867
      5  CB         9.8320   31.2320   42.9600 C.3   200  VAL200      0.0252
      6  CG1        8.5090   31.8520   43.3780 C.3   200  VAL200      0.0019
      7  CG2        9.6460   30.3550   41.7210 C.3   200  VAL200      0.0019
      8  N          9.2980   35.4490   46.6050 N.3   202  ASP202     -0.1239
      9  CA         7.9490   35.7020   47.1290 C.3   202  ASP202      0.1674
     10  C          8.0260   36.6800   48.2990 C.2   202  ASP202      0.2266
     11  O          8.1130   36.2750   49.4600 O.2   202  ASP202     -0.2867
     12  CB         7.2780   34.3910   47.5700 C.3   202  ASP202      0.1410
     13  CG         5.7950   34.5630   47.8950 C.2   202  ASP202      0.3668
     14  OD1        5.3570   35.7000   48.2010 O.co2 202  ASP202     -0.2456
     15  OD2        5.0600   33.5520   47.8420 O.co2 202  ASP202     -0.2456
     16  N         12.1510   30.4130   46.8110 N.3   209  ARG209     -0.1231
     17  CA        12.0430   28.9950   46.5230 C.3   209  ARG209      0.1694
     18  C         12.3500   28.7800   45.0400 C.2   209  ARG209      0.2592
     19  O         12.8010   29.7050   44.3750 O.2   209  ARG209     -0.2718
     20  CB        10.6560   28.4900   46.9110 C.3   209  ARG209      0.0321
     21  CG         9.5080   29.2980   46.3610 C.3   209  ARG209      0.0489
     22  CD         8.1740   28.7650   46.8680 C.3   209  ARG209      0.2205
     23  NE         7.0750   29.4610   46.2190 N.pl3 209  ARG209     -0.0865
     24  CZ         6.5050   30.5690   46.6710 C.cat 209  ARG209      0.5346
     25  NH1        6.9010   31.1150   47.8110 N.pl3 209  ARG209      0.1354
     26  NH2        5.5250   31.1360   45.9730 N.pl3 209  ARG209      0.1354
     27  N         12.1420   27.5710   44.5310 N.am  210  LYS210     -0.1966
     28  CA        12.3010   27.3150   43.1030 C.3   210  LYS210      0.1728
     29  C         11.0100   26.8360   42.4490 C.2   210  LYS210      0.2617
     30  O         10.1860   26.1770   43.0720 O.2   210  LYS210     -0.2715
     31  CB        13.4380   26.3350   42.8430 C.3   210  LYS210      0.0311
     32  CG        13.1090   24.8800   43.0570 C.3   210  LYS210      0.0038
     33  CD        13.5140   24.0400   41.8390 C.3   210  LYS210      0.0206
     34  CE        15.0130   24.1040   41.5600 C.3   210  LYS210      0.1093
     35  NZ        15.3850   23.3750   40.3140 N.3   210  LYS210     -0.1314
     36  N         10.8460   27.1920   41.1820 N.am  211  GLY211     -0.1940
     37  CA         9.6470   26.8700   40.4450 C.3   211  GLY211      0.2014
     38  C          9.9690   26.4880   39.0190 C.2   211  GLY211      0.2639
     39  O         11.0500   25.9790   38.7320 O.2   211  GLY211     -0.2714
     40  N          9.0220   26.7220   38.1240 N.am  212  GLU212     -0.1963
     41  CA         9.1740   26.2870   36.7510 C.3   212  GLU212      0.1733
     42  C          9.8280   27.3770   35.9290 C.2   212  GLU212      0.2616
     43  O         10.5200   27.0850   34.9600 O.2   212  GLU212     -0.2715
     44  CB         7.8250   25.8980   36.1480 C.3   212  GLU212      0.0429
     45  CG         7.1860   24.6750   36.8100 C.3   212  GLU212      0.1163
     46  CD         5.7750   24.3860   36.3010 C.2   212  GLU212      0.3649
     47  OE1        5.3260   25.0670   35.3510 O.co2 212  GLU212     -0.2457
     48  OE2        5.1150   23.4790   36.8570 O.co2 212  GLU212     -0.2457
     49  N          9.6330   28.6260   36.3490 N.am  213  GLU213     -0.1977
     50  CA        10.1400   29.7970   35.6350 C.3   213  GLU213      0.1602
     51  C         10.5060   30.9170   36.6210 C.2   213  GLU213      0.2287
     52  O         10.0600   30.9030   37.7580 O.2   213  GLU213     -0.2864
     53  CB         9.0680   30.3060   34.6690 C.3   213  GLU213      0.0415
     54  CG         7.7040   30.5160   35.3450 C.3   213  GLU213      0.1163
     55  CD         6.7310   31.3850   34.5470 C.2   213  GLU213      0.3649
     56  OE1        7.1870   32.1860   33.6950 O.co2 213  GLU213     -0.2457
     57  OE2        5.4990   31.2730   34.7900 O.co2 213  GLU213     -0.2457
     58  N         10.1040   33.8730   38.6540 N.3   215  PHE215     -0.1241
     59  CA         8.8170   34.3440   39.1280 C.3   215  PHE215      0.1605
     60  C          9.0040   35.2350   40.3420 C.2   215  PHE215      0.2264
     61  O          9.5440   34.8010   41.3500 O.2   215  PHE215     -0.2867
     62  CB         7.9330   33.1440   39.5090 C.3   215  PHE215      0.0534
     63  CG         6.4350   33.4200   39.4580 C.ar  215  PHE215     -0.0203
     64  CD1        5.8370   34.2770   40.3650 C.ar  215  PHE215     -0.0042
     65  CD2        5.6250   32.7850   38.5250 C.ar  215  PHE215     -0.0042
     66  CE1        4.4590   34.5030   40.3330 C.ar  215  PHE215     -0.0003
     67  CE2        4.2450   33.0050   38.4950 C.ar  215  PHE215     -0.0003
     68  CZ         3.6700   33.8650   39.3970 C.ar  215  PHE215     -0.0000
     69  N          6.6360   36.9950   42.8930 N.3   217  VAL217     -0.1245
     70  CA         5.2450   37.0160   43.3250 C.3   217  VAL217      0.1561
     71  C          4.8260   38.3830   43.8140 C.2   217  VAL217      0.2260
     72  O          5.3950   38.9070   44.7690 O.2   217  VAL217     -0.2867
     73  CB         4.9990   36.0130   44.4490 C.3   217  VAL217      0.0252
     74  CG1        3.5210   35.9970   44.8330 C.3   217  VAL217      0.0019
     75  CG2        5.4180   34.6500   44.0050 C.3   217  VAL217      0.0019
     76  N         -0.9500   36.8320   44.5200 N.3   222  GLU222     -0.1231
     77  CA         0.0200   35.7340   44.4310 C.3   222  GLU222      0.1699
     78  C          0.0980   35.0220   43.0610 C.2   222  GLU222      0.2592
     79  O          1.0560   34.2930   42.8070 O.2   222  GLU222     -0.2718
     80  CB        -0.2300   34.7090   45.5410 C.3   222  GLU222      0.0402
     81  CG        -1.4620   33.8280   45.3680 C.3   222  GLU222      0.1161
     82  CD        -2.7560   34.4850   45.8250 C.2   222  GLU222      0.3649
     83  OE1       -2.7670   35.7210   46.0580 O.co2 222  GLU222     -0.2457
     84  OE2       -3.7670   33.7520   45.9520 O.co2 222  GLU222     -0.2457
     85  N         -0.8990   35.2270   42.1970 N.am  223  LYS223     -0.1980
     86  CA        -0.9160   34.6310   40.8580 C.3   223  LYS223      0.1596
     87  C         -0.1220   35.4400   39.8220 C.2   223  LYS223      0.2287
     88  O          0.2920   34.9080   38.7990 O.2   223  LYS223     -0.2864
     89  CB        -2.3540   34.4570   40.3710 C.3   223  LYS223      0.0298
     90  CG        -3.1520   33.3960   41.1300 C.3   223  LYS223      0.0038
     91  CD        -2.6160   31.9800   40.8790 C.3   223  LYS223      0.0206
     92  CE        -3.4400   30.8980   41.5760 C.3   223  LYS223      0.1093
     93  NZ        -3.3340   30.9790   43.0570 N.3   223  LYS223     -0.1314
@<TRIPOS>BOND
     1    56    55   ar
     2    55    57   ar
     3    55    54    1
     4    53    54    1
     5    53    50    1
     6    43    42    2
     7    47    46   ar
     8    50    49    1
     9    50    51    1
    10    42    49   am
    11    42    41    1
    12    44    41    1
    13    44    45    1
    14    46    45    1
    15    46    48   ar
    16    51    52    2
    17    41    40    1
    18    40    38   am
    19    67    65   ar
    20    67    68   ar
    21    65    63   ar
    22    58    59    1
    23    39    38    2
    24    88    87    2
    25    38    37    1
    26    59    62    1
    27    59    60    1
    28    68    66   ar
    29    63    62    1
    30    63    64   ar
    31    87    86    1
    32    35    34    1
    33    66    64   ar
    34    60    61    2
    35    89    86    1
    36    89    90    1
    37    37    36    1
    38    86    85    1
    39    91    90    1
    40    91    92    1
    41    36    29   am
    42    34    33    1
    43    92    93    1
    44     7     5    1
    45    33    32    1
    46    85    78   am
    47     1     2    1
    48    29    30    2
    49    29    28    1
    50     2     5    1
    51     2     3    1
    52    79    78    2
    53    31    32    1
    54    31    28    1
    55    69    70    1
    56     5     6    1
    57    78    77    1
    58    28    27    1
    59    70    71    1
    60    70    73    1
    61    71    72    2
    62     3     4    2
    63    75    73    1
    64    19    18    2
    65    77    76    1
    66    77    80    1
    67    73    74    1
    68    27    18   am
    69    18    17    1
    70    81    80    1
    71    81    82    1
    72    82    84   ar
    73    82    83   ar
    74    26    24    1
    75    23    24    2
    76    23    22    1
    77    21    22    1
    78    21    20    1
    79    17    16    1
    80    17    20    1
    81     8     9    1
    82    24    25    1
    83     9    12    1
    84     9    10    1
    85    12    13    1
    86    15    13   ar
    87    13    14   ar
    88    10    11    2
