@<TRIPOS>MOLECULE
tmp/4x4wA00.pdb
 120 112 0 0 0
SMALL
GASTEIGER

@<TRIPOS>ATOM
      1  N         25.4630   49.2960   70.6940 N.3    37  GLY37      -0.1210
      2  CA        25.4080   50.6860   70.2850 C.3    37  GLY37       0.1956
      3  C         26.7310   51.2600   69.8260 C.2    37  GLY37       0.2612
      4  O         27.4830   50.6290   69.0670 O.2    37  GLY37      -0.2717
      5  N         26.9960   52.4590   70.3090 N.am   38  GLY38      -0.1956
      6  CA        28.1430   53.2410   69.8820 C.3    38  GLY38       0.1869
      7  C         29.4980   52.6020   70.2220 C.2    38  GLY38       0.2309
      8  O         30.5060   52.8000   69.5110 O.2    38  GLY38      -0.2863
      9  N         30.3890   50.2890   67.4400 N.3    41  ARG41      -0.1231
     10  CA        30.8780   51.0680   66.2970 C.3    41  ARG41       0.1694
     11  C         32.3320   51.5050   66.5420 C.2    41  ARG41       0.2592
     12  O         33.1870   51.3950   65.6480 O.2    41  ARG41      -0.2718
     13  CB        29.9820   52.3270   66.1270 C.3    41  ARG41       0.0321
     14  CG        30.3830   53.2080   64.9660 C.3    41  ARG41       0.0489
     15  CD        29.7630   54.5940   65.1040 C.3    41  ARG41       0.2205
     16  NE        30.3450   55.3020   66.2370 N.pl3  41  ARG41      -0.0865
     17  CZ        29.7360   55.7100   67.3240 C.cat  41  ARG41       0.5346
     18  NH1       28.4440   55.5830   67.5100 N.pl3  41  ARG41       0.1354
     19  NH2       30.4620   56.2860   68.2580 N.pl3  41  ARG41       0.1354
     20  N         32.6250   51.9550   67.7400 N.am   42  ASP42      -0.1974
     21  CA        33.9960   52.4110   68.0300 C.3    42  ASP42       0.1709
     22  C         35.0070   51.2860   67.9410 C.2    42  ASP42       0.2293
     23  O         36.0540   51.4420   67.2820 O.2    42  ASP42      -0.2864
     24  CB        34.1120   53.0300   69.4000 C.3    42  ASP42       0.1436
     25  CG        33.6230   54.4630   69.4320 C.2    42  ASP42       0.3671
     26  OD1       33.7300   55.1460   68.3990 O.co2  42  ASP42      -0.2456
     27  OD2       33.0730   54.8620   70.4850 O.co2  42  ASP42      -0.2456
     28  N         27.6150   51.4200   76.6140 N.3    53  ASP53      -0.1239
     29  CA        26.2840   50.9070   76.9540 C.3    53  ASP53       0.1674
     30  C         26.2720   49.3840   76.8280 C.2    53  ASP53       0.2266
     31  O         26.6040   48.8220   75.7690 O.2    53  ASP53      -0.2867
     32  CB        25.2640   51.5350   76.0360 C.3    53  ASP53       0.1410
     33  CG        25.0480   53.0290   76.3350 C.2    53  ASP53       0.3668
     34  OD1       26.0000   53.7300   76.7630 O.co2  53  ASP53      -0.2456
     35  OD2       23.9010   53.5090   76.1680 O.co2  53  ASP53      -0.2456
     36  N         16.9620   51.0870   67.2680 N.3   117  ARG117     -0.1231
     37  CA        18.0930   52.0050   67.1850 C.3   117  ARG117      0.1694
     38  C         18.1060   52.7920   65.8430 C.2   117  ARG117      0.2592
     39  O         17.3830   52.4560   64.8970 O.2   117  ARG117     -0.2718
     40  CB        19.3770   51.2030   67.4450 C.3   117  ARG117      0.0321
     41  CG        19.3710   50.6000   68.8920 C.3   117  ARG117      0.0489
     42  CD        20.4880   49.6340   69.1260 C.3   117  ARG117      0.2205
     43  NE        20.3950   48.9830   70.4470 N.pl3 117  ARG117     -0.0865
     44  CZ        20.9930   49.3860   71.5820 C.cat 117  ARG117      0.5346
     45  NH1       21.8290   50.4340   71.5980 N.pl3 117  ARG117      0.1354
     46  NH2       20.7560   48.6900   72.7300 N.pl3 117  ARG117      0.1354
     47  N         18.8560   53.8700   65.8100 N.am  118  ASP118     -0.1974
     48  CA        18.6890   54.8920   64.7930 C.3   118  ASP118      0.1709
     49  C         19.4100   54.4950   63.4930 C.2   118  ASP118      0.2293
     50  O         18.7790   54.3710   62.4240 O.2   118  ASP118     -0.2864
     51  CB        19.0470   56.3390   65.2790 C.3   118  ASP118      0.1436
     52  CG        20.5200   56.5240   65.9170 C.2   118  ASP118      0.3671
     53  OD1       21.4560   55.6830   65.9060 O.co2 118  ASP118     -0.2456
     54  OD2       20.7510   57.6390   66.4550 O.co2 118  ASP118     -0.2456
     55  N         25.0720   51.8960   64.4310 N.3   122  ASN122     -0.1240
     56  CA        24.8470   51.9610   65.9000 C.3   122  ASN122      0.1653
     57  C         23.8730   50.9210   66.4050 C.2   122  ASN122      0.2266
     58  O         23.4390   50.9830   67.5550 O.2   122  ASN122     -0.2867
     59  CB        24.3060   53.3500   66.2920 C.3   122  ASN122      0.1155
     60  CG        25.2460   54.4440   65.9860 C.2   122  ASN122      0.2627
     61  OD1       26.4500   54.2460   65.9080 O.2   122  ASN122     -0.2716
     62  ND2       24.7210   55.6330   65.8470 N.am  122  ASN122     -0.0877
     63  N         22.5330   63.8730   64.7440 N.3   166  ARG166     -0.1245
     64  CA        23.2630   62.6330   64.8420 C.3   166  ARG166      0.1563
     65  C         23.7530   62.1540   63.4830 C.2   166  ARG166      0.2260
     66  O         24.8710   61.6430   63.3810 O.2   166  ARG166     -0.2867
     67  CB        22.4520   61.5540   65.5290 C.3   166  ARG166      0.0307
     68  CG        22.3520   61.8700   67.0340 C.3   166  ARG166      0.0489
     69  CD        21.4590   60.9590   67.7490 C.3   166  ARG166      0.2205
     70  NE        21.9490   59.5810   67.7520 N.pl3 166  ARG166     -0.0865
     71  CZ        22.8780   59.1030   68.5670 C.cat 166  ARG166      0.5346
     72  NH1       23.4570   59.9070   69.4420 N.pl3 166  ARG166      0.1354
     73  NH2       23.2340   57.8250   68.4890 N.pl3 166  ARG166      0.1354
     74  N         26.8320   64.2590   62.7580 N.3   169  ARG169     -0.1231
     75  CA        27.9170   63.8460   63.6230 C.3   169  ARG169      0.1694
     76  C         28.5700   62.5280   63.2010 C.2   169  ARG169      0.2592
     77  O         29.7730   62.4170   63.1350 O.2   169  ARG169     -0.2718
     78  CB        27.3930   63.7620   65.0710 C.3   169  ARG169      0.0321
     79  CG        28.4650   63.3940   66.1150 C.3   169  ARG169      0.0489
     80  CD        27.7560   62.8590   67.3560 C.3   169  ARG169      0.2205
     81  NE        28.5080   61.8340   68.0120 N.pl3 169  ARG169     -0.0865
     82  CZ        28.0590   61.1650   69.0640 C.cat 169  ARG169      0.5346
     83  NH1       26.8510   61.4260   69.5540 N.pl3 169  ARG169      0.1354
     84  NH2       28.8310   60.2540   69.6250 N.pl3 169  ARG169      0.1354
     85  N         27.8140   61.5140   62.9090 N.am  170  PHE170     -0.1976
     86  CA        28.3700   60.2160   62.5320 C.3   170  PHE170      0.1639
     87  C         28.9260   60.2070   61.1020 C.2   170  PHE170      0.2290
     88  O         29.8500   59.4800   60.8050 O.2   170  PHE170     -0.2864
     89  CB        27.3560   59.0690   62.8000 C.3   170  PHE170      0.0560
     90  CG        27.1140   58.8840   64.2820 C.ar  170  PHE170     -0.0200
     91  CD1       28.1950   58.6240   65.1110 C.ar  170  PHE170     -0.0042
     92  CD2       25.8720   59.1080   64.8480 C.ar  170  PHE170     -0.0042
     93  CE1       28.0390   58.4940   66.4680 C.ar  170  PHE170     -0.0003
     94  CE2       25.7050   58.9790   66.2360 C.ar  170  PHE170     -0.0003
     95  CZ        26.7930   58.6820   67.0420 C.ar  170  PHE170     -0.0000
     96  N         24.6120   69.3620   73.2850 N.3   206  VAL206     -0.1231
     97  CA        25.4580   68.1680   73.3830 C.3   206  VAL206      0.1692
     98  C         25.9320   67.6440   72.0260 C.2   206  VAL206      0.2591
     99  O         27.1410   67.3580   71.8350 O.2   206  VAL206     -0.2718
    100  CB        24.7800   67.0290   74.1700 C.3   206  VAL206      0.0266
    101  CG1       25.5890   65.6800   74.0480 C.3   206  VAL206      0.0020
    102  CG2       24.5980   67.4250   75.6120 C.3   206  VAL206      0.0020
    103  N         25.0150   67.4670   71.0860 N.am  207  GLU207     -0.1979
    104  CA        25.3640   66.9910   69.7550 C.3   207  GLU207      0.1602
    105  C         26.1790   68.0000   68.9460 C.2   207  GLU207      0.2287
    106  O         27.1360   67.6220   68.2320 O.2   207  GLU207     -0.2864
    107  CB        24.0910   66.6760   68.9290 C.3   207  GLU207      0.0415
    108  CG        23.4020   65.4090   69.2940 C.3   207  GLU207      0.1163
    109  CD        24.2820   64.1840   69.0760 C.2   207  GLU207      0.3649
    110  OE1       25.0960   64.1710   68.1490 O.co2 207  GLU207     -0.2457
    111  OE2       24.1370   63.2350   69.8190 O.co2 207  GLU207     -0.2457
    112  N         29.7780   67.9620   69.8370 N.3   210  LYS210     -0.1245
    113  CA        30.4840   66.8150   69.2340 C.3   210  LYS210      0.1561
    114  C         30.7840   67.0450   67.7680 C.2   210  LYS210      0.2260
    115  O         31.8780   66.7410   67.3020 O.2   210  LYS210     -0.2867
    116  CB        29.6840   65.5190   69.4100 C.3   210  LYS210      0.0271
    117  CG        29.5530   65.1590   70.8490 C.3   210  LYS210      0.0035
    118  CD        28.6190   63.9790   71.0850 C.3   210  LYS210      0.0206
    119  CE        28.6990   63.5260   72.5440 C.3   210  LYS210      0.1093
    120  NZ        27.5110   62.7150   72.9640 N.3   210  LYS210     -0.1314
@<TRIPOS>BOND
     1    88    87    2
     2    87    86    1
     3    50    49    2
     4    86    89    1
     5    86    85    1
     6    74    75    1
     7    89    90    1
     8    85    76   am
     9    77    76    2
    10    76    75    1
    11    66    65    2
    12    65    64    1
    13    49    48    1
    14    75    78    1
    15    90    92   ar
    16    90    91   ar
    17    55    56    1
    18    63    64    1
    19    48    51    1
    20    48    47    1
    21    64    67    1
    22    92    94   ar
    23    39    38    2
    24    14    15    1
    25    14    13    1
    26    78    79    1
    27    15    16    1
    28    91    93   ar
    29    51    52    1
    30    67    68    1
    31    12    11    2
    32    47    38   am
    33    38    37    1
    34    62    60   am
    35    56    59    1
    36    56    57    1
    37    53    52   ar
    38    61    60    2
    39    52    54   ar
    40    60    59    1
    41    79    80    1
    42    13    10    1
    43    94    95   ar
    44    16    17    2
    45    10    11    1
    46    10     9    1
    47    57    58    2
    48    93    95   ar
    49    11    20   am
    50    68    69    1
    51    37    36    1
    52    37    40    1
    53    23    22    2
    54   115   114    2
    55    17    18    1
    56    17    19    1
    57    80    81    1
    58    40    41    1
    59    20    21    1
    60    69    70    1
    61    70    71    2
    62   114   113    1
    63    22    21    1
    64    81    82    2
    65    21    24    1
    66   110   109   ar
    67   106   105    2
    68    26    25   ar
    69    73    71    1
    70    71    72    1
    71    41    42    1
    72   107   108    1
    73   107   104    1
    74   105   104    1
    75    82    83    1
    76    82    84    1
    77     4     3    2
    78   109   108    1
    79   109   111   ar
    80    42    43    1
    81   113   116    1
    82   113   112    1
    83    24    25    1
    84   116   117    1
    85    25    27   ar
    86     8     7    2
    87   104   103    1
    88     3     2    1
    89     3     5   am
    90     6     7    1
    91     6     5    1
    92     2     1    1
    93    43    44    2
    94   117   118    1
    95   118   119    1
    96   103    98   am
    97    44    45    1
    98    44    46    1
    99    99    98    2
   100    98    97    1
   101   119   120    1
   102    96    97    1
   103    97   100    1
   104   101   100    1
   105   100   102    1
   106    31    30    2
   107    32    33    1
   108    32    29    1
   109    35    33   ar
   110    33    34   ar
   111    28    29    1
   112    30    29    1
