@<TRIPOS>MOLECULE
tmp/4x53A00.pdb
 152 149 0 0 0
SMALL
GASTEIGER

@<TRIPOS>ATOM
      1  N         26.5030    6.2860   -1.0450 N.3    48  VAL48      -0.1245
      2  CA        25.8950    5.1140   -0.4090 C.3    48  VAL48       0.1561
      3  C         25.8540    5.3840    1.1180 C.2    48  VAL48       0.2260
      4  O         26.8070    5.8980    1.6690 O.2    48  VAL48      -0.2867
      5  CB        26.6810    3.8260   -0.7010 C.3    48  VAL48       0.0252
      6  CG1       26.6160    3.4650   -2.1890 C.3    48  VAL48       0.0019
      7  CG2       28.1330    3.9210   -0.2560 C.3    48  VAL48       0.0019
      8  N         26.0720    3.2220    3.4840 N.3    50  ALA50      -0.1231
      9  CA        26.8300    2.1650    4.1340 C.3    50  ALA50       0.1694
     10  C         26.1970    1.8680    5.4550 C.2    50  ALA50       0.2592
     11  O         24.9740    1.7780    5.5320 O.2    50  ALA50      -0.2718
     12  CB        28.2980    2.5690    4.2780 C.3    50  ALA50       0.0304
     13  N         26.9780    1.8540    6.5240 N.am   51  SER51      -0.1952
     14  CA        26.4890    1.3540    7.7710 C.3    51  SER51       0.1924
     15  C         25.5690    2.3260    8.4960 C.2    51  SER51       0.2314
     16  O         25.0510    1.9860    9.5780 O.2    51  SER51      -0.2863
     17  CB        27.6660    0.9970    8.6800 C.3    51  SER51       0.2116
     18  OG        28.4460   -0.0940    8.1750 O.3    51  SER51      -0.2180
     19  N         36.4330   -9.2930   11.5030 N.3    82  TYR82      -0.1241
     20  CA        37.0490   -8.8490   12.7600 C.3    82  TYR82       0.1605
     21  C         36.6450   -9.7550   13.9690 C.2    82  TYR82       0.2264
     22  O         35.4950  -10.1510   14.0730 O.2    82  TYR82      -0.2867
     23  CB        36.6820   -7.3830   13.0500 C.3    82  TYR82       0.0534
     24  CG        36.5650   -6.4690   11.8290 C.ar   82  TYR82      -0.0201
     25  CD1       35.4420   -6.5150   11.0040 C.ar   82  TYR82      -0.0009
     26  CD2       37.5440   -5.5160   11.5370 C.ar   82  TYR82      -0.0009
     27  CE1       35.3110   -5.6760    9.9050 C.ar   82  TYR82       0.0417
     28  CE2       37.4220   -4.6750   10.4340 C.ar   82  TYR82       0.0417
     29  CZ        36.2970   -4.7580    9.6230 C.ar   82  TYR82       0.1957
     30  OH        36.1390   -3.9380    8.5230 O.3    82  TYR82      -0.2866
     31  N         33.5800   -9.3890   16.1290 N.3    85  TRP85      -0.1241
     32  CA        32.3000   -9.8230   15.7020 C.3    85  TRP85       0.1605
     33  C         32.1080  -11.2910   15.9680 C.2    85  TRP85       0.2264
     34  O         31.0200  -11.7890   15.6900 O.2    85  TRP85      -0.2867
     35  CB        32.1070   -9.6070   14.2110 C.3    85  TRP85       0.0550
     36  CG        32.0990   -8.1950   13.7940 C.ar   85  TRP85       0.0003
     37  CD1       32.0970   -7.0920   14.5910 C.ar   85  TRP85       0.0946
     38  CD2       32.0720   -7.7240   12.4380 C.ar   85  TRP85       0.0152
     39  NE1       32.0590   -5.9590   13.8050 N.ar   85  TRP85      -0.2442
     40  CE2       32.0090   -6.3240   12.4870 C.ar   85  TRP85       0.0810
     41  CE3       32.0470   -8.3680   11.1790 C.ar   85  TRP85       0.0012
     42  CZ2       31.9770   -5.5370   11.3260 C.ar   85  TRP85       0.0191
     43  CZ3       31.9760   -7.5950   10.0290 C.ar   85  TRP85       0.0001
     44  CH2       31.9250   -6.1850   10.1200 C.ar   85  TRP85       0.0015
     45  N         29.2290   -2.0270   14.8510 N.3    98  SER98      -0.1217
     46  CA        28.8330   -2.0930   13.4630 C.3    98  SER98       0.1889
     47  C         28.9640   -3.5000   12.9220 C.2    98  SER98       0.2288
     48  O         29.4580   -3.6900   11.8320 O.2    98  SER98      -0.2866
     49  CB        29.6040   -1.0920   12.5690 C.3    98  SER98       0.2089
     50  OG        28.9610   -0.9540   11.2540 O.3    98  SER98      -0.2183
     51  N         28.0810   -6.5140   10.8970 N.3   100  ASP100     -0.1239
     52  CA        27.2410   -6.7700    9.7330 C.3   100  ASP100      0.1674
     53  C         26.4490   -8.0310    9.7560 C.2   100  ASP100      0.2266
     54  O         25.3290   -8.0360    9.2860 O.2   100  ASP100     -0.2867
     55  CB        28.0590   -6.7910    8.4440 C.3   100  ASP100      0.1410
     56  CG        28.2530   -5.4310    7.9020 C.2   100  ASP100      0.3668
     57  OD1       27.3500   -4.9510    7.1410 O.co2 100  ASP100     -0.2456
     58  OD2       29.2370   -4.8190    8.3510 O.co2 100  ASP100     -0.2456
     59  N         22.7740   -3.8570    0.0410 N.3   136  PHE136     -0.1227
     60  CA        22.1620   -2.6460   -0.5940 C.3   136  PHE136      0.1736
     61  C         22.5250   -1.2950    0.0380 C.2   136  PHE136      0.2595
     62  O         22.4890   -0.2680   -0.6280 O.2   136  PHE136     -0.2718
     63  CB        20.6420   -2.7730   -0.7480 C.3   136  PHE136      0.0547
     64  CG        19.8710   -2.6590    0.5390 C.ar  136  PHE136     -0.0202
     65  CD1       19.6990   -1.4250    1.1550 C.ar  136  PHE136     -0.0042
     66  CD2       19.2560   -3.7780    1.1020 C.ar  136  PHE136     -0.0042
     67  CE1       18.9670   -1.3160    2.3280 C.ar  136  PHE136     -0.0003
     68  CE2       18.5300   -3.6750    2.2770 C.ar  136  PHE136     -0.0003
     69  CZ        18.3790   -2.4430    2.8900 C.ar  136  PHE136     -0.0000
     70  N         22.8060   -1.3170    1.3400 N.am  137  TRP137     -0.1976
     71  CA        23.4100   -0.1900    2.0670 C.3   137  TRP137      0.1640
     72  C         24.9040   -0.0490    1.7580 C.2   137  TRP137      0.2290
     73  O         25.4430    1.0670    1.7750 O.2   137  TRP137     -0.2864
     74  CB        23.2000   -0.3210    3.5930 C.3   137  TRP137      0.0576
     75  CG        23.7520   -1.6080    4.2610 C.ar  137  TRP137      0.0006
     76  CD1       25.0280   -1.8150    4.7350 C.ar  137  TRP137      0.0946
     77  CD2       23.0290   -2.8300    4.5340 C.ar  137  TRP137      0.0152
     78  NE1       25.1360   -3.0790    5.2690 N.ar  137  TRP137     -0.2442
     79  CE2       23.9240   -3.7140    5.1710 C.ar  137  TRP137      0.0810
     80  CE3       21.7120   -3.2610    4.2950 C.ar  137  TRP137      0.0012
     81  CZ2       23.5450   -4.9940    5.5710 C.ar  137  TRP137      0.0191
     82  CZ3       21.3380   -4.5340    4.7060 C.ar  137  TRP137      0.0001
     83  CH2       22.2540   -5.3820    5.3220 C.ar  137  TRP137      0.0015
     84  N         25.4170    0.0080   -2.9470 N.3   138  GLY138     -0.1225
     85  CA        24.4190    0.4990   -3.9190 C.3   138  GLY138      0.1811
     86  C         23.1660   -0.3720   -4.0350 C.2   138  GLY138      0.2280
     87  O         23.1510   -1.4900   -3.4930 O.2   138  GLY138     -0.2866
     88  N         25.8140    7.1400   14.3710 N.3   186  LYS186     -0.1231
     89  CA        26.3110    5.9810   13.7060 C.3   186  LYS186      0.1693
     90  C         27.3320    6.2720   12.5760 C.2   186  LYS186      0.2593
     91  O         27.1040    7.1330   11.7230 O.2   186  LYS186     -0.2718
     92  CB        25.1380    5.2100   13.1560 C.3   186  LYS186      0.0285
     93  CG        25.5040    3.9030   12.5070 C.3   186  LYS186      0.0035
     94  CD        26.1670    2.9730   13.4870 C.3   186  LYS186      0.0206
     95  CE        26.6150    1.6950   12.8090 C.3   186  LYS186      0.1093
     96  NZ        28.0190    1.7950   12.3250 N.3   186  LYS186     -0.1314
     97  N         28.4150    5.4930   12.5360 N.am  187  SER187     -0.1938
     98  CA        29.4730    5.6960   11.5580 C.3   187  SER187      0.2055
     99  C         29.1690    4.9270   10.3710 C.2   187  SER187      0.2644
    100  O         28.4310    3.9580   10.4370 O.2   187  SER187     -0.2714
    101  CB        30.7960    5.1430   12.0270 C.3   187  SER187      0.2130
    102  OG        30.6320    3.7430   12.2630 O.3   187  SER187     -0.2179
    103  N         29.8150    5.3040    9.2760 N.am  188  GLY188     -0.1939
    104  CA        29.7220    4.5440    8.0270 C.3   188  GLY188      0.2014
    105  C         31.0230    4.6300    7.2330 C.2   188  GLY188      0.2639
    106  O         31.7690    5.5990    7.3290 O.2   188  GLY188     -0.2714
    107  N         31.2790    3.6160    6.4190 N.am  189  TRP189     -0.1959
    108  CA        32.4040    3.6190    5.4840 C.3   189  TRP189      0.1771
    109  C         32.0220    2.7460    4.2920 C.2   189  TRP189      0.2620
    110  O         31.9010    1.5270    4.4260 O.2   189  TRP189     -0.2715
    111  CB        33.5910    3.0180    6.2020 C.3   189  TRP189      0.0590
    112  CG        34.9060    3.0980    5.5320 C.ar  189  TRP189      0.0006
    113  CD1       35.1840    3.2420    4.1870 C.ar  189  TRP189      0.0946
    114  CD2       36.1700    3.0470    6.2030 C.ar  189  TRP189      0.0152
    115  NE1       36.5470    3.2730    3.9900 N.ar  189  TRP189     -0.2442
    116  CE2       37.1770    3.1640    5.2120 C.ar  189  TRP189      0.0810
    117  CE3       36.5500    2.9240    7.5530 C.ar  189  TRP189      0.0012
    118  CZ2       38.5510    3.1320    5.5340 C.ar  189  TRP189      0.0191
    119  CZ3       37.9230    2.8980    7.8760 C.ar  189  TRP189      0.0001
    120  CH2       38.9060    2.9900    6.8590 C.ar  189  TRP189      0.0015
    121  N         31.7710    3.3620    3.1490 N.am  190  GLY190     -0.1940
    122  CA        31.3120    2.6180    1.9960 C.3   190  GLY190      0.2014
    123  C         32.3140    2.7450    0.8790 C.2   190  GLY190      0.2638
    124  O         33.0200    3.7520    0.7810 O.2   190  GLY190     -0.2714
    125  N         32.3860    1.7160    0.0400 N.am  191  MET191     -0.1976
    126  CA        33.1390    1.7900   -1.2130 C.3   191  MET191      0.1605
    127  C         32.1650    2.1230   -2.3350 C.2   191  MET191      0.2287
    128  O         31.1510    1.4540   -2.4920 O.2   191  MET191     -0.2864
    129  CB        33.8390    0.4600   -1.4820 C.3   191  MET191      0.0413
    130  CG        34.5220    0.3950   -2.8380 C.3   191  MET191      0.0598
    131  SD        36.1130    1.2290   -2.8570 S.3   191  MET191     -0.1393
    132  CE        37.0260    0.3160   -1.6040 C.3   191  MET191      0.0692
    133  N         35.8020    6.0930   -1.6830 N.3   196  GLN196     -0.1245
    134  CA        35.2280    5.6370   -0.4490 C.3   196  GLN196      0.1566
    135  C         34.5980    6.7880    0.2800 C.2   196  GLN196      0.2260
    136  O         35.1610    7.8930    0.2880 O.2   196  GLN196     -0.2867
    137  CB        36.2920    5.0480    0.4260 C.3   196  GLN196      0.0367
    138  CG        36.9340    3.8120   -0.1530 C.3   196  GLN196      0.0905
    139  CD        38.1640    3.4250    0.6360 C.2   196  GLN196      0.2608
    140  OE1       38.0740    3.0130    1.7950 O.2   196  GLN196     -0.2717
    141  NE2       39.3280    3.6390    0.0410 N.am  196  GLN196     -0.0878
    142  N         36.8200    9.9900   11.6840 N.3   229  ARG229     -0.1245
    143  CA        35.4800   10.5060   11.5150 C.3   229  ARG229      0.1563
    144  C         35.0090   11.1040   12.8320 C.2   229  ARG229      0.2260
    145  O         34.5080   12.2330   12.8840 O.2   229  ARG229     -0.2867
    146  CB        34.5520    9.4060   11.0870 C.3   229  ARG229      0.0307
    147  CG        34.9110    8.8280    9.7530 C.3   229  ARG229      0.0489
    148  CD        34.1840    7.5130    9.4550 C.3   229  ARG229      0.2205
    149  NE        34.5430    6.4940   10.4150 N.pl3 229  ARG229     -0.0865
    150  CZ        34.1990    5.2070   10.3370 C.cat 229  ARG229      0.5346
    151  NH1       34.5390    4.4080   11.3430 N.pl3 229  ARG229      0.1354
    152  NH2       33.3960    4.7510    9.3700 N.pl3 229  ARG229      0.1354
@<TRIPOS>BOND
     1    86    85    1
     2    86    87    2
     3    85    84    1
     4   131   130    1
     5   131   132    1
     6   130   129    1
     7   128   127    2
     8   127   126    1
     9     6     5    1
    10   133   134    1
    11   129   126    1
    12   126   125    1
    13     1     2    1
    14    63    60    1
    15    63    64    1
    16     5     2    1
    17     5     7    1
    18    62    61    2
    19    60    61    1
    20    60    59    1
    21   134   135    1
    22   134   137    1
    23     2     3    1
    24   138   137    1
    25   138   139    1
    26    61    70   am
    27   125   123   am
    28   141   139   am
    29   135   136    2
    30    64    66   ar
    31    64    65   ar
    32   139   140    2
    33   124   123    2
    34   123   122    1
    35    66    68   ar
    36     3     4    2
    37    65    67   ar
    38    70    71    1
    39    72    73    2
    40    72    71    1
    41   122   121    1
    42    71    74    1
    43    68    69   ar
    44    67    69   ar
    45   121   109   am
    46     8     9    1
    47    74    75    1
    48   115   113   ar
    49   115   116   ar
    50     9    12    1
    51     9    10    1
    52   113   112   ar
    53    75    77   ar
    54    75    76   ar
    55   109   110    2
    56   109   108    1
    57    80    77   ar
    58    80    82   ar
    59    77    79   ar
    60    82    83   ar
    61    76    78   ar
    62    79    78   ar
    63    79    81   ar
    64   116   118   ar
    65   116   114   ar
    66    83    81   ar
    67    10    11    2
    68    10    13   am
    69   108   111    1
    70   108   107    1
    71   112   111    1
    72   112   114   ar
    73   118   120   ar
    74   114   117   ar
    75   107   105   am
    76    13    14    1
    77   120   119   ar
    78    57    56   ar
    79   105   106    2
    80   105   104    1
    81   117   119   ar
    82    14    15    1
    83    14    17    1
    84    56    58   ar
    85    56    55    1
    86   104   103    1
    87    18    17    1
    88    55    52    1
    89    15    16    2
    90    30    29    1
    91   103    99   am
    92    54    53    2
    93   152   150    1
    94   148   147    1
    95   148   149    1
    96    29    27   ar
    97    29    28   ar
    98    52    53    1
    99    52    51    1
   100   147   146    1
   101    27    25   ar
   102    43    44   ar
   103    43    41   ar
   104    44    42   ar
   105   150   149    2
   106   150   151    1
   107    99   100    2
   108    99    98    1
   109    28    26   ar
   110    25    24   ar
   111   146   143    1
   112    41    38   ar
   113    50    49    1
   114    42    40   ar
   115    19    20    1
   116   143   142    1
   117   143   144    1
   118    26    24   ar
   119    98   101    1
   120    98    97    1
   121    91    90    2
   122    24    23    1
   123    48    47    2
   124   101   102    1
   125    96    95    1
   126    38    40   ar
   127    38    36   ar
   128    40    39   ar
   129    93    92    1
   130    93    94    1
   131    97    90   am
   132    49    46    1
   133    90    89    1
   134    20    23    1
   135    20    21    1
   136    95    94    1
   137   144   145    2
   138    47    46    1
   139    92    89    1
   140    46    45    1
   141    89    88    1
   142    36    35    1
   143    36    37   ar
   144    39    37   ar
   145    21    22    2
   146    35    32    1
   147    34    33    2
   148    32    33    1
   149    32    31    1
