@<TRIPOS>MOLECULE
tmp/4x55B00.pdb
 143 138 0 0 0
SMALL
GASTEIGER

@<TRIPOS>ATOM
      1  N        -23.5220   69.8140   -3.0920 N.3    42  ALA42      -0.1231
      2  CA       -24.9160   70.1520   -2.9520 C.3    42  ALA42       0.1694
      3  C        -25.7670   69.3720   -3.9460 C.2    42  ALA42       0.2592
      4  O        -25.5590   68.1640   -4.1320 O.2    42  ALA42      -0.2718
      5  CB       -25.1090   71.6600   -3.0830 C.3    42  ALA42       0.0304
      6  N        -26.7050   70.0220   -4.6120 N.am   43  SER43      -0.1952
      7  CA       -27.6200   69.3180   -5.5310 C.3    43  SER43       0.1924
      8  C        -27.0050   68.7430   -6.8190 C.2    43  SER43       0.2314
      9  O        -27.6440   67.8830   -7.4630 O.2    43  SER43      -0.2863
     10  CB       -28.7770   70.2250   -5.9360 C.3    43  SER43       0.2116
     11  OG       -29.5790   70.5610   -4.8330 O.3    43  SER43      -0.2180
     12  N        -40.1800   75.2180   -1.5380 N.3    71  PHE71      -0.1241
     13  CA       -40.4380   76.0760   -2.7000 C.3    71  PHE71       0.1605
     14  C        -41.7510   75.6340   -3.3630 C.2    71  PHE71       0.2264
     15  O        -42.3240   74.5950   -2.9860 O.2    71  PHE71      -0.2867
     16  CB       -39.2720   76.0400   -3.7070 C.3    71  PHE71       0.0534
     17  CG       -37.9200   76.4390   -3.1250 C.ar   71  PHE71      -0.0203
     18  CD1      -37.2090   75.5710   -2.3060 C.ar   71  PHE71      -0.0042
     19  CD2      -37.3130   77.6240   -3.5020 C.ar   71  PHE71      -0.0042
     20  CE1      -35.9610   75.9130   -1.8060 C.ar   71  PHE71      -0.0003
     21  CE2      -36.0590   77.9710   -3.0190 C.ar   71  PHE71      -0.0003
     22  CZ       -35.3870   77.1210   -2.1580 C.ar   71  PHE71      -0.0000
     23  N        -41.8960   72.0490   -5.5000 N.3    74  TRP74      -0.1241
     24  CA       -41.7470   70.8310   -4.7110 C.3    74  TRP74       0.1605
     25  C        -43.0870   70.2880   -4.1580 C.2    74  TRP74       0.2264
     26  O        -43.1020   69.2640   -3.4510 O.2    74  TRP74      -0.2867
     27  CB       -40.7770   71.0630   -3.5480 C.3    74  TRP74       0.0550
     28  CG       -39.4090   71.5300   -3.9400 C.ar   74  TRP74       0.0003
     29  CD1      -38.9940   71.9410   -5.1740 C.ar   74  TRP74       0.0946
     30  CD2      -38.2940   71.6680   -3.0750 C.ar   74  TRP74       0.0152
     31  NE1      -37.6780   72.2960   -5.1280 N.ar   74  TRP74      -0.2442
     32  CE2      -37.2300   72.1650   -3.8450 C.ar   74  TRP74       0.0810
     33  CE3      -38.0880   71.4260   -1.7110 C.ar   74  TRP74       0.0012
     34  CZ2      -35.9720   72.3670   -3.3150 C.ar   74  TRP74       0.0191
     35  CZ3      -36.8340   71.6080   -1.1890 C.ar   74  TRP74       0.0001
     36  CH2      -35.7920   72.0910   -1.9790 C.ar   74  TRP74       0.0015
     37  N        -36.2380   70.5780  -11.2830 N.3    85  LEU85      -0.1231
     38  CA       -36.6380   71.5010  -10.2280 C.3    85  LEU85       0.1693
     39  C        -35.6550   71.4680   -9.0520 C.2    85  LEU85       0.2592
     40  O        -35.8290   72.1990   -8.1070 O.2    85  LEU85      -0.2718
     41  CB       -38.0230   71.1160   -9.6900 C.3    85  LEU85       0.0284
     42  CG       -39.1610   71.0680  -10.7090 C.3    85  LEU85       0.0019
     43  CD1      -40.3800   70.3700  -10.1110 C.3    85  LEU85       0.0001
     44  CD2      -39.5080   72.4710  -11.1750 C.3    85  LEU85       0.0001
     45  N        -34.7580   70.4860   -9.0210 N.am   86  SER86      -0.1952
     46  CA       -33.8970   70.2800   -7.8360 C.3    86  SER86       0.1924
     47  C        -34.6850   69.9540   -6.5390 C.2    86  SER86       0.2314
     48  O        -34.4560   70.5500   -5.4860 O.2    86  SER86      -0.2863
     49  CB       -32.9940   71.5070   -7.6360 C.3    86  SER86       0.2116
     50  OG       -31.7110   71.1410   -7.1830 O.3    86  SER86      -0.2180
     51  N        -35.2880   68.4570   -3.6480 N.3    88  VAL88      -0.1245
     52  CA       -34.5310   67.7580   -2.6180 C.3    88  VAL88       0.1561
     53  C        -35.2840   66.5950   -1.9250 C.2    88  VAL88       0.2260
     54  O        -34.6890   65.5620   -1.6260 O.2    88  VAL88      -0.2867
     55  CB       -34.0210   68.7810   -1.5680 C.3    88  VAL88       0.0252
     56  CG1      -33.5740   68.1040   -0.2800 C.3    88  VAL88       0.0019
     57  CG2      -32.8750   69.6050   -2.1390 C.3    88  VAL88       0.0019
     58  N        -25.5170   67.6600    0.9300 N.3   126  LEU126     -0.1231
     59  CA       -25.8950   69.0370    1.2310 C.3   126  LEU126      0.1693
     60  C        -25.0320   69.7310    2.3220 C.2   126  LEU126      0.2591
     61  O        -24.6460   70.8970    2.1710 O.2   126  LEU126     -0.2718
     62  CB       -27.3780   69.0840    1.5940 C.3   126  LEU126      0.0284
     63  CG       -28.3350   68.6250    0.4900 C.3   126  LEU126      0.0019
     64  CD1      -29.7800   68.5600    0.9530 C.3   126  LEU126      0.0001
     65  CD2      -28.2360   69.5090   -0.7420 C.3   126  LEU126      0.0001
     66  N        -24.7010   69.0000    3.3850 N.am  127  VAL127     -0.1980
     67  CA       -24.0790   69.5770    4.5780 C.3   127  VAL127      0.1595
     68  C        -22.7420   68.9130    4.9110 C.2   127  VAL127      0.2287
     69  O        -22.0970   69.2670    5.8820 O.2   127  VAL127     -0.2864
     70  CB       -25.0380   69.4970    5.8150 C.3   127  VAL127      0.0276
     71  CG1      -26.3690   70.2000    5.5370 C.3   127  VAL127      0.0022
     72  CG2      -25.2780   68.0590    6.2600 C.3   127  VAL127      0.0022
     73  N        -27.5690   72.5140  -11.5180 N.3   177  THR177     -0.1203
     74  CA       -27.1970   73.4640  -10.5060 C.3   177  THR177      0.1994
     75  C        -27.0190   72.8910   -9.0880 C.2   177  THR177      0.2618
     76  O        -27.4950   71.7850   -8.7590 O.2   177  THR177     -0.2717
     77  CB       -28.2610   74.5670  -10.4060 C.3   177  THR177      0.1784
     78  OG1      -29.5080   73.9660  -10.0790 O.3   177  THR177     -0.2211
     79  CG2      -28.4120   75.3000  -11.7050 C.3   177  THR177      0.0376
     80  N        -26.2980   73.6390   -8.2630 N.am  178  GLY178     -0.1942
     81  CA       -26.3310   73.4540   -6.8160 C.3   178  GLY178      0.2014
     82  C        -26.0310   74.7210   -6.0710 C.2   178  GLY178      0.2639
     83  O        -25.3800   75.6130   -6.5910 O.2   178  GLY178     -0.2714
     84  N        -26.4960   74.7800   -4.8310 N.am  179  TRP179     -0.1959
     85  CA       -26.3170   75.9350   -4.0100 C.3   179  TRP179      0.1771
     86  C        -26.4440   75.5290   -2.5640 C.2   179  TRP179      0.2620
     87  O        -27.4820   75.0170   -2.1400 O.2   179  TRP179     -0.2715
     88  CB       -27.4080   76.9200   -4.3330 C.3   179  TRP179      0.0590
     89  CG       -27.2210   78.2870   -3.7720 C.ar  179  TRP179      0.0006
     90  CD1      -26.4130   78.6670   -2.7300 C.ar  179  TRP179      0.0946
     91  CD2      -27.9310   79.4540   -4.1710 C.ar  179  TRP179      0.0152
     92  NE1      -26.5770   80.0040   -2.4800 N.ar  179  TRP179     -0.2442
     93  CE2      -27.4420   80.5230   -3.4050 C.ar  179  TRP179      0.0810
     94  CE3      -28.8790   79.7150   -5.1640 C.ar  179  TRP179      0.0012
     95  CZ2      -27.9310   81.8150   -3.5380 C.ar  179  TRP179      0.0191
     96  CZ3      -29.3720   81.0170   -5.2780 C.ar  179  TRP179      0.0001
     97  CH2      -28.8910   82.0350   -4.4720 C.ar  179  TRP179      0.0015
     98  N        -25.4090   75.7420   -1.7840 N.am  180  ALA180     -0.1963
     99  CA       -25.4950   75.3760   -0.3830 C.3   180  ALA180      0.1728
    100  C        -25.0780   76.5300    0.4640 C.2   180  ALA180      0.2616
    101  O        -24.1210   77.2180    0.1220 O.2   180  ALA180     -0.2715
    102  CB       -24.6330   74.1690   -0.0780 C.3   180  ALA180      0.0334
    103  N        -25.5900   76.4950    1.6910 N.am  181  MET181     -0.1963
    104  CA       -26.1040   77.6520    2.4200 C.3   181  MET181      0.1736
    105  C        -25.2870   77.8830    3.7240 C.2   181  MET181      0.2616
    106  O        -25.7840   78.4840    4.6740 O.2   181  MET181     -0.2715
    107  CB       -27.6040   77.3950    2.7140 C.3   181  MET181      0.0427
    108  CG       -28.2900   78.3420    3.6880 C.3   181  MET181      0.0599
    109  SD       -28.2940   80.0610    3.1420 S.3   181  MET181     -0.1393
    110  CE       -28.4950   80.9160    4.7070 C.3   181  MET181      0.0692
    111  N        -24.0140   77.4710    3.7220 N.am  182  ASP182     -0.1971
    112  CA       -23.1550   77.4960    4.9210 C.3   182  ASP182      0.1709
    113  C        -22.5930   78.8880    5.1960 C.2   182  ASP182      0.2293
    114  O        -23.3330   79.8200    5.5060 O.2   182  ASP182     -0.2864
    115  CB       -21.9890   76.5120    4.7720 C.3   182  ASP182      0.1436
    116  CG       -22.3880   75.0470    4.8520 C.2   182  ASP182      0.3671
    117  OD1      -23.5490   74.7510    5.2200 O.co2 182  ASP182     -0.2456
    118  OD2      -21.5600   74.1950    4.5390 O.co2 182  ASP182     -0.2456
    119  N        -21.2820   80.6270    0.9760 N.3   185  GLN185     -0.1245
    120  CA       -22.1980   79.8610    0.1270 C.3   185  GLN185      0.1566
    121  C        -21.5150   79.5050   -1.1540 C.2   185  GLN185      0.2260
    122  O        -20.7550   80.3150   -1.7180 O.2   185  GLN185     -0.2867
    123  CB       -23.4300   80.6860   -0.1940 C.3   185  GLN185      0.0367
    124  CG       -24.1190   81.2600    1.0280 C.3   185  GLN185      0.0905
    125  CD       -25.3720   82.0220    0.6620 C.2   185  GLN185      0.2608
    126  OE1      -26.1220   81.6350   -0.2540 O.2   185  GLN185     -0.2717
    127  NE2      -25.6050   83.1200    1.3580 N.am  185  GLN185     -0.0878
    128  N        -31.1140   82.9290   -8.5600 N.3   215  ALA215     -0.1245
    129  CA       -30.5970   81.6010   -8.8420 C.3   215  ALA215      0.1562
    130  C        -30.0700   81.5150  -10.2740 C.2   215  ALA215      0.2260
    131  O        -29.1340   80.7600  -10.5580 O.2   215  ALA215     -0.2867
    132  CB       -31.6890   80.5660   -8.6090 C.3   215  ALA215      0.0290
    133  N        -26.1160   81.9790  -12.1190 N.3   218  ARG218     -0.1245
    134  CA       -25.1650   80.9550  -12.5230 C.3   218  ARG218      0.1563
    135  C        -25.2470   80.6720  -14.0210 C.2   218  ARG218      0.2260
    136  O        -24.1970   80.6080  -14.7020 O.2   218  ARG218     -0.2867
    137  CB       -25.3280   79.7050  -11.6390 C.3   218  ARG218      0.0307
    138  CG       -24.9990   80.0120  -10.1740 C.3   218  ARG218      0.0489
    139  CD       -25.7240   79.1110   -9.2110 C.3   218  ARG218      0.2205
    140  NE       -27.1480   79.0130   -9.5060 N.pl3 218  ARG218     -0.0865
    141  CZ       -27.9620   78.1210   -8.9440 C.cat 218  ARG218      0.5346
    142  NH1      -29.2540   78.1250   -9.2180 N.pl3 218  ARG218      0.1354
    143  NH2      -27.5080   77.2970   -8.0230 N.pl3 218  ARG218      0.1354
@<TRIPOS>BOND
     1   136   135    2
     2   135   134    1
     3   134   133    1
     4   134   137    1
     5    79    77    1
     6   137   138    1
     7    73    74    1
     8    37    38    1
     9    44    42    1
    10    42    43    1
    11    42    41    1
    12   131   130    2
    13    74    77    1
    14    74    75    1
    15    77    78    1
    16   130   129    1
    17    38    41    1
    18    38    39    1
    19   138   139    1
    20   140   139    1
    21   140   141    2
    22   142   141    1
    23    75    76    2
    24    75    80   am
    25    39    45   am
    26    39    40    2
    27    45    46    1
    28   141   143    1
    29   129   132    1
    30   129   128    1
    31    80    81    1
    32    46    49    1
    33    46    47    1
    34    49    50    1
    35     9     8    2
    36     8     7    1
    37    81    82    1
    38    83    82    2
    39    47    48    2
    40    82    84   am
    41    10     7    1
    42    10    11    1
    43     7     6    1
    44    23    24    1
    45    96    94   ar
    46    96    97   ar
    47    29    31   ar
    48    29    28   ar
    49    94    91   ar
    50    31    32   ar
    51    84    85    1
    52    24    25    1
    53    24    27    1
    54     6     3   am
    55    97    95   ar
    56    88    85    1
    57    88    89    1
    58    91    89   ar
    59    91    93   ar
    60    25    26    2
    61     4     3    2
    62    85    86    1
    63     3     2    1
    64    28    27    1
    65    28    30   ar
    66    32    34   ar
    67    32    30   ar
    68    89    90   ar
    69    16    17    1
    70    16    13    1
    71    51    52    1
    72    95    93   ar
    73    19    17   ar
    74    19    21   ar
    75    93    92   ar
    76    14    15    2
    77    14    13    1
    78    34    36   ar
    79    17    18   ar
    80     1     2    1
    81     5     2    1
    82    30    33   ar
    83    21    22   ar
    84    90    92   ar
    85    13    12    1
    86    52    53    1
    87    52    55    1
    88    86    87    2
    89    86    98   am
    90    18    20   ar
    91    22    20   ar
    92    57    55    1
    93    36    35   ar
    94    53    54    2
    95    98    99    1
    96   122   121    2
    97    33    35   ar
    98    55    56    1
    99   121   120    1
   100    65    63    1
   101    99   102    1
   102    99   100    1
   103   126   125    2
   104   123   120    1
   105   123   124    1
   106   101   100    2
   107   120   119    1
   108   100   103   am
   109    63    64    1
   110    63    62    1
   111   125   124    1
   112   125   127   am
   113    58    59    1
   114    59    62    1
   115    59    60    1
   116   103   104    1
   117    61    60    2
   118    60    66   am
   119   104   107    1
   120   104   105    1
   121   107   108    1
   122   109   108    1
   123   109   110    1
   124    66    67    1
   125   111   105   am
   126   111   112    1
   127   105   106    2
   128   118   116   ar
   129    67    68    1
   130    67    70    1
   131   115   116    1
   132   115   112    1
   133   116   117   ar
   134    68    69    2
   135   112   113    1
   136   113   114    2
   137    71    70    1
   138    70    72    1
