@<TRIPOS>MOLECULE
tmp/4x56A00.pdb
 158 151 0 0 0
SMALL
GASTEIGER

@<TRIPOS>ATOM
      1  N         -6.2050   26.8290  -22.4230 N.3    48  VAL48      -0.1245
      2  CA        -5.0570   26.1480  -21.8060 C.3    48  VAL48       0.1561
      3  C         -5.3590   26.0620  -20.3130 C.2    48  VAL48       0.2260
      4  O         -5.8850   27.0230  -19.7420 O.2    48  VAL48      -0.2867
      5  CB        -3.7480   26.9030  -22.0770 C.3    48  VAL48       0.0252
      6  CG1       -3.4310   26.9390  -23.6000 C.3    48  VAL48       0.0019
      7  CG2       -3.8090   28.3370  -21.5570 C.3    48  VAL48       0.0019
      8  N         -3.2930   26.2370  -17.9520 N.3    50  ALA50      -0.1231
      9  CA        -2.2980   26.9990  -17.2330 C.3    50  ALA50       0.1694
     10  C         -1.9900   26.3090  -15.8880 C.2    50  ALA50       0.2592
     11  O         -1.9220   25.0920  -15.8490 O.2    50  ALA50      -0.2718
     12  CB        -2.7550   28.4220  -17.0480 C.3    50  ALA50       0.0304
     13  N         -1.8950   27.0670  -14.8050 N.am   51  SER51      -0.1952
     14  CA        -1.5400   26.5050  -13.5240 C.3    51  SER51       0.1924
     15  C         -2.5970   25.6430  -12.8560 C.2    51  SER51       0.2314
     16  O         -2.3000   25.0480  -11.8110 O.2    51  SER51      -0.2863
     17  CB        -1.1260   27.5960  -12.5390 C.3    51  SER51       0.2116
     18  OG         0.0800   28.2090  -12.9220 O.3    51  SER51      -0.2180
     19  N         10.6190   34.9280  -12.0940 N.3    81  THR81      -0.1203
     20  CA         9.6580   35.8490  -12.6180 C.3    81  THR81       0.1994
     21  C          9.1170   36.7000  -11.5060 C.2    81  THR81       0.2617
     22  O          8.9530   37.8470  -11.7310 O.2    81  THR81      -0.2717
     23  CB         8.5530   35.0540  -13.3450 C.3    81  THR81       0.1784
     24  OG1        9.1680   34.3260  -14.3990 O.3    81  THR81      -0.2211
     25  CG2        7.4520   35.9430  -13.9120 C.3    81  THR81       0.0376
     26  N          8.8230   36.1240  -10.3320 N.am   82  TYR82      -0.1975
     27  CA         8.3340   36.8480   -9.1370 C.3    82  TYR82       0.1639
     28  C          9.2740   36.6000   -7.9220 C.2    82  TYR82       0.2290
     29  O          9.7290   35.4760   -7.6920 O.2    82  TYR82      -0.2864
     30  CB         6.9050   36.3760   -8.7400 C.3    82  TYR82       0.0560
     31  CG         5.8940   36.4120   -9.8880 C.ar   82  TYR82      -0.0198
     32  CD1        5.1730   37.5630  -10.1900 C.ar   82  TYR82      -0.0009
     33  CD2        5.6980   35.3070  -10.6840 C.ar   82  TYR82      -0.0009
     34  CE1        4.2700   37.5850  -11.2510 C.ar   82  TYR82       0.0417
     35  CE2        4.8080   35.3110  -11.7380 C.ar   82  TYR82       0.0417
     36  CZ         4.0890   36.4450  -12.0140 C.ar   82  TYR82       0.1957
     37  OH         3.2310   36.4170  -13.0900 O.3    82  TYR82      -0.2866
     38  N          8.6990   36.5050   -4.8400 N.3    84  MET84      -0.1182
     39  CA         8.1400   35.5310   -3.8990 C.3    84  MET84       0.1917
     40  C          8.5110   34.0550   -4.2450 C.2    84  MET84       0.2634
     41  O          8.3960   33.1760   -3.4040 O.2    84  MET84      -0.2714
     42  CB         6.6150   35.7510   -3.7450 C.2    84  MET84       0.0083
     43  CG         5.7940   35.5560   -5.0250 C.2    84  MET84       0.0282
     44  SD         3.9760   35.6540   -4.8570 S.3    84  MET84      -0.1125
     45  CE         3.3920   35.0700   -6.4590 C.3    84  MET84       0.0742
     46  N          8.9250   33.7800   -5.4810 N.am   85  TRP85      -0.1973
     47  CA         9.3180   32.4550   -5.8680 C.3    85  TRP85       0.1640
     48  C         10.7680   32.1960   -5.5130 C.2    85  TRP85       0.2290
     49  O         11.2180   31.0500   -5.6540 O.2    85  TRP85      -0.2864
     50  CB         9.1270   32.2350   -7.3630 C.3    85  TRP85       0.0576
     51  CG         7.6830   32.2110   -7.8230 C.ar   85  TRP85       0.0006
     52  CD1        6.5640   32.1500   -7.0390 C.ar   85  TRP85       0.0946
     53  CD2        7.2160   32.1620   -9.1980 C.ar   85  TRP85       0.0152
     54  NE1        5.4320   32.1020   -7.8480 N.ar   85  TRP85      -0.2442
     55  CE2        5.8190   32.1110   -9.1650 C.ar   85  TRP85       0.0810
     56  CE3        7.8650   32.1420  -10.4490 C.ar   85  TRP85       0.0012
     57  CZ2        5.0530   32.0790  -10.3320 C.ar   85  TRP85       0.0191
     58  CZ3        7.1300   32.0820  -11.5890 C.ar   85  TRP85       0.0001
     59  CH2        5.7230   32.0520  -11.5370 C.ar   85  TRP85       0.0015
     60  N          1.7800   29.1710   -6.6120 N.3    98  SER98      -0.1217
     61  CA         1.7510   28.8240   -8.0450 C.3    98  SER98       0.1889
     62  C          3.1300   28.9900   -8.6610 C.2    98  SER98       0.2288
     63  O          3.2840   29.5270   -9.7650 O.2    98  SER98      -0.2866
     64  CB         0.6680   29.6130   -8.8270 C.3    98  SER98       0.2089
     65  OG         0.1860   28.8720   -9.9970 O.3    98  SER98      -0.2183
     66  N          5.9210   28.1120  -10.7270 N.3   100  ASP100     -0.1239
     67  CA         6.2430   27.2840  -11.9210 C.3   100  ASP100      0.1674
     68  C          7.5700   26.5320  -11.8220 C.2   100  ASP100      0.2266
     69  O          7.6430   25.3760  -12.1640 O.2   100  ASP100     -0.2867
     70  CB         6.3130   28.1230  -13.1890 C.3   100  ASP100      0.1410
     71  CG         4.9820   28.8450  -13.5090 C.2   100  ASP100      0.3668
     72  OD1        3.9490   28.5140  -12.9080 O.co2 100  ASP100     -0.2456
     73  OD2        4.9890   29.7860  -14.3360 O.co2 100  ASP100     -0.2456
     74  N          6.7780   22.6930  -20.2830 N.3   135  ASN135     -0.1240
     75  CA         5.8550   23.7590  -20.7090 C.3   135  ASN135      0.1653
     76  C          4.9380   23.2720  -21.8360 C.2   135  ASN135      0.2266
     77  O          5.2930   23.4190  -23.0220 O.2   135  ASN135     -0.2867
     78  CB         6.6350   24.9830  -21.2280 C.3   135  ASN135      0.1155
     79  CG         5.7440   26.2060  -21.3710 C.2   135  ASN135      0.2627
     80  OD1        4.6330   26.2270  -20.9040 O.2   135  ASN135     -0.2716
     81  ND2        6.3210   27.2170  -21.9830 N.am  135  ASN135     -0.0877
     82  N          1.2980   23.4120  -20.7060 N.3   137  TRP137     -0.1241
     83  CA         0.1070   23.6760  -19.8900 C.3   137  TRP137      0.1605
     84  C         -0.2330   25.1660  -19.8760 C.2   137  TRP137      0.2264
     85  O         -1.4210   25.5330  -19.8980 O.2   137  TRP137     -0.2867
     86  CB         0.2610   23.1410  -18.4250 C.3   137  TRP137      0.0550
     87  CG         1.5660   23.5180  -17.6340 C.ar  137  TRP137      0.0003
     88  CD1        1.8540   24.7270  -17.0760 C.ar  137  TRP137      0.0946
     89  CD2        2.7060   22.6540  -17.3280 C.ar  137  TRP137      0.0152
     90  NE1        3.0920   24.6870  -16.4660 N.ar  137  TRP137     -0.2442
     91  CE2        3.6320   23.4280  -16.5930 C.ar  137  TRP137      0.0810
     92  CE3        3.0340   21.3010  -17.6150 C.ar  137  TRP137      0.0012
     93  CZ2        4.8740   22.8870  -16.1170 C.ar  137  TRP137      0.0191
     94  CZ3        4.2470   20.7590  -17.1320 C.ar  137  TRP137      0.0001
     95  CH2        5.1650   21.5730  -16.4330 C.ar  137  TRP137      0.0015
     96  N          0.5530   26.9090  -22.9400 N.3   138  VAL138     -0.1245
     97  CA         0.9270   27.4430  -24.2710 C.3   138  VAL138      0.1561
     98  C          0.5380   26.4980  -25.3850 C.2   138  VAL138      0.2260
     99  O          0.9670   26.6730  -26.5280 O.2   138  VAL138     -0.2867
    100  CB         2.4540   27.7590  -24.4280 C.3   138  VAL138      0.0252
    101  CG1        2.7820   28.2950  -25.8170 C.3   138  VAL138      0.0019
    102  CG2        2.8400   28.8250  -23.3990 C.3   138  VAL138      0.0019
    103  N         -5.7350   28.3080   -8.8260 N.3   188  SER188     -0.1217
    104  CA        -5.8390   29.3840   -9.7910 C.3   188  SER188      0.1889
    105  C         -4.9710   29.1030  -10.9550 C.2   188  SER188      0.2288
    106  O         -4.0790   28.2490  -10.9090 O.2   188  SER188     -0.2866
    107  CB        -5.3990   30.6920   -9.2080 C.3   188  SER188      0.2089
    108  OG        -4.0580   30.5840   -8.8130 O.3   188  SER188     -0.2183
    109  N         -3.5240   31.3210  -14.7240 N.3   190  TRP190     -0.1227
    110  CA        -3.4870   32.5440  -15.5170 C.3   190  TRP190      0.1737
    111  C         -2.6060   32.2660  -16.7260 C.2   190  TRP190      0.2596
    112  O         -1.4110   32.1500  -16.6200 O.2   190  TRP190     -0.2718
    113  CB        -2.9550   33.6850  -14.6690 C.3   190  TRP190      0.0564
    114  CG        -3.0900   35.0200  -15.3520 C.ar  190  TRP190      0.0003
    115  CD1       -3.2080   35.2700  -16.7330 C.ar  190  TRP190      0.0946
    116  CD2       -3.1590   36.2850  -14.7020 C.ar  190  TRP190      0.0152
    117  NE1       -3.2900   36.6280  -16.9300 N.ar  190  TRP190     -0.2442
    118  CE2       -3.2280   37.2670  -15.7070 C.ar  190  TRP190      0.0810
    119  CE3       -3.0790   36.6930  -13.3460 C.ar  190  TRP190      0.0012
    120  CZ2       -3.2990   38.6070  -15.4070 C.ar  190  TRP190      0.0191
    121  CZ3       -3.1270   38.0190  -13.0490 C.ar  190  TRP190      0.0001
    122  CH2       -3.2670   38.9730  -14.0710 C.ar  190  TRP190      0.0015
    123  N         -3.2240   32.0560  -17.8710 N.am  191  GLY191     -0.1942
    124  CA        -2.4960   31.6980  -19.0560 C.3   191  GLY191      0.2014
    125  C         -2.4640   32.8380  -20.0440 C.2   191  GLY191      0.2638
    126  O         -3.4340   33.6030  -20.1680 O.2   191  GLY191     -0.2714
    127  N         -1.3420   32.9450  -20.7530 N.am  192  MET192     -0.1976
    128  CA        -1.1390   33.9330  -21.8390 C.3   192  MET192      0.1605
    129  C         -1.4870   33.2360  -23.1420 C.2   192  MET192      0.2287
    130  O         -1.1090   32.0910  -23.3660 O.2   192  MET192     -0.2864
    131  CB         0.3100   34.4090  -21.8410 C.3   192  MET192      0.0413
    132  CG         0.6500   35.3750  -22.9470 C.3   192  MET192      0.0598
    133  SD        -0.4370   36.8080  -22.9780 S.3   192  MET192     -0.1393
    134  CE         0.1190   37.7370  -21.5400 C.3   192  MET192      0.0692
    135  N         -5.8250   36.4100  -22.6120 N.3   197  GLN197     -0.1245
    136  CA        -5.3800   35.6780  -21.4340 C.3   197  GLN197      0.1566
    137  C         -6.5390   35.0510  -20.6850 C.2   197  GLN197      0.2260
    138  O         -7.5300   35.7130  -20.3940 O.2   197  GLN197     -0.2867
    139  CB        -4.7220   36.6270  -20.4640 C.3   197  GLN197      0.0367
    140  CG        -3.4790   37.3270  -20.9750 C.3   197  GLN197      0.0905
    141  CD        -3.2950   38.6540  -20.2810 C.2   197  GLN197      0.2608
    142  OE1       -3.1920   38.7210  -19.0670 O.2   197  GLN197     -0.2717
    143  NE2       -3.3410   39.7280  -21.0420 N.am  197  GLN197     -0.0878
    144  N         -5.0180   39.2860   -9.7860 N.3   227  GLY227     -0.1225
    145  CA        -5.3600   37.8720   -9.8600 C.3   227  GLY227      0.1811
    146  C         -6.5100   37.5460   -8.9190 C.2   227  GLY227      0.2280
    147  O         -7.3120   36.6250   -9.1820 O.2   227  GLY227     -0.2866
    148  N        -10.3630   36.8500   -9.3590 N.3   230  ARG230     -0.1245
    149  CA       -10.8840   35.5550   -9.6730 C.3   230  ARG230      0.1563
    150  C        -11.4980   34.9800   -8.4170 C.2   230  ARG230      0.2260
    151  O        -12.5930   34.4180   -8.4460 O.2   230  ARG230     -0.2867
    152  CB        -9.7880   34.6630  -10.1720 C.3   230  ARG230      0.0307
    153  CG        -9.1630   35.1200  -11.4620 C.3   230  ARG230      0.0489
    154  CD        -7.8930   34.3690  -11.7600 C.3   230  ARG230      0.2205
    155  NE        -6.9030   34.6240  -10.7180 N.pl3 230  ARG230     -0.0865
    156  CZ        -5.6580   34.1850  -10.7490 C.cat 230  ARG230      0.5346
    157  NH1       -4.8770   34.4250   -9.7200 N.pl3 230  ARG230      0.1354
    158  NH2       -5.2350   33.4320  -11.7380 N.pl3 230  ARG230      0.1354
@<TRIPOS>BOND
     1    99    98    2
     2   101   100    1
     3    98    97    1
     4   100    97    1
     5   100   102    1
     6    97    96    1
     7     6     5    1
     8   130   129    2
     9   129   128    1
    10    77    76    2
    11   133   132    1
    12   133   134    1
    13   132   131    1
    14   135   136    1
    15     1     2    1
    16     5     2    1
    17     5     7    1
    18    81    79   am
    19   131   128    1
    20   128   127    1
    21    76    75    1
    22     2     3    1
    23   136   137    1
    24   136   139    1
    25    79    78    1
    26    79    80    2
    27    78    75    1
    28   143   141   am
    29   140   139    1
    30   140   141    1
    31   127   125   am
    32    75    74    1
    33    82    83    1
    34   137   138    2
    35     3     4    2
    36   141   142    2
    37   126   125    2
    38   125   124    1
    39    85    84    2
    40    83    84    1
    41    83    86    1
    42   124   123    1
    43    86    87    1
    44     8     9    1
    45   123   111   am
    46    87    89   ar
    47    87    88   ar
    48    92    89   ar
    49    92    94   ar
    50    89    91   ar
    51     9    12    1
    52     9    10    1
    53    94    95   ar
    54    88    90   ar
    55   117   115   ar
    56   117   118   ar
    57   115   114   ar
    58   111   112    2
    59   111   110    1
    60    91    90   ar
    61    91    93   ar
    62    95    93   ar
    63    10    11    2
    64    10    13   am
    65   118   120   ar
    66   118   116   ar
    67   110   109    1
    68   110   113    1
    69   120   122   ar
    70   114   116   ar
    71   114   113    1
    72    13    14    1
    73   116   119   ar
    74    24    23    1
    75    73    71   ar
    76   122   121   ar
    77    25    23    1
    78    14    15    1
    79    14    17    1
    80    71    70    1
    81    71    72   ar
    82   119   121   ar
    83    23    20    1
    84    70    67    1
    85    37    36    1
    86    18    17    1
    87    15    16    2
    88    20    19    1
    89    20    21    1
    90    69    68    2
    91    36    35   ar
    92    36    34   ar
    93    67    68    1
    94    67    66    1
    95   154   153    1
    96   154   155    1
    97   158   156    1
    98    35    33   ar
    99    22    21    2
   100    58    59   ar
   101    58    56   ar
   102    59    57   ar
   103    21    26   am
   104   153   152    1
   105    34    32   ar
   106   105   106    2
   107   105   104    1
   108   156   155    2
   109   156   157    1
   110    33    31   ar
   111    56    53   ar
   112    57    55   ar
   113    26    27    1
   114    32    31   ar
   115   152   149    1
   116    65    64    1
   117    31    30    1
   118   145   144    1
   119   145   146    1
   120   104   107    1
   121   104   103    1
   122    63    62    2
   123   149   148    1
   124   149   150    1
   125   107   108    1
   126    53    55   ar
   127    53    51   ar
   128   147   146    2
   129    55    54   ar
   130    27    30    1
   131    27    28    1
   132    64    61    1
   133    62    61    1
   134   151   150    2
   135    61    60    1
   136    28    29    2
   137    54    52   ar
   138    51    50    1
   139    51    52   ar
   140    50    47    1
   141    45    44    1
   142    47    48    1
   143    47    46    1
   144    49    48    2
   145    46    40   am
   146    43    44    1
   147    43    42    2
   148    38    39    1
   149    40    39    1
   150    40    41    2
   151    39    42    1
