@<TRIPOS>MOLECULE
tmp/4x58A00.pdb
 74 69 0 0 0
SMALL
GASTEIGER

@<TRIPOS>ATOM
      1  N          4.5310   28.4970   38.0720 N.3   282  LEU282     -0.1231
      2  CA         5.5650   28.6150   39.0960 C.3   282  LEU282      0.1693
      3  C          5.9730   30.0760   39.3030 C.2   282  LEU282      0.2593
      4  O          6.4730   30.4420   40.3670 O.2   282  LEU282     -0.2718
      5  CB         6.7810   27.7440   38.7400 C.3   282  LEU282      0.0284
      6  CG         6.4980   26.2440   38.5550 C.3   282  LEU282      0.0019
      7  CD1        7.7870   25.4560   38.3760 C.3   282  LEU282      0.0001
      8  CD2        5.6730   25.6600   39.7030 C.3   282  LEU282      0.0001
      9  N          5.7280   30.9090   38.2920 N.am  283  GLY283     -0.1942
     10  CA         6.0110   32.3360   38.3700 C.3   283  GLY283      0.2014
     11  C          4.9240   33.1590   39.0420 C.2   283  GLY283      0.2639
     12  O          5.0580   34.3730   39.1560 O.2   283  GLY283     -0.2714
     13  N          3.8380   32.5080   39.4580 N.am  284  GLY284     -0.1954
     14  CA         2.7650   33.1650   40.2020 C.3   284  GLY284      0.1869
     15  C          1.5260   33.5290   39.4040 C.2   284  GLY284      0.2309
     16  O          0.6440   34.1920   39.9340 O.2   284  GLY284     -0.2863
     17  N         -1.9670   33.6210   38.2840 N.3   286  ARG286     -0.1245
     18  CA        -3.2260   33.1780   38.8700 C.3   286  ARG286      0.1563
     19  C         -4.1670   32.7350   37.7610 C.2   286  ARG286      0.2260
     20  O         -4.0320   33.1580   36.6100 O.2   286  ARG286     -0.2867
     21  CB        -3.8730   34.3110   39.6740 C.3   286  ARG286      0.0307
     22  CG        -3.0000   34.8780   40.7870 C.3   286  ARG286      0.0489
     23  CD        -3.1200   34.0680   42.0620 C.3   286  ARG286      0.2205
     24  NE        -2.1140   34.4540   43.0480 N.pl3 286  ARG286     -0.0865
     25  CZ        -2.1750   34.1790   44.3490 C.cat 286  ARG286      0.5346
     26  NH1       -1.1910   34.5770   45.1500 N.pl3 286  ARG286      0.1354
     27  NH2       -3.2110   33.5170   44.8610 N.pl3 286  ARG286      0.1354
     28  N         -3.2790   27.2750   37.6430 N.3   290  ARG290     -0.1245
     29  CA        -2.7240   27.2970   38.9930 C.3   290  ARG290      0.1563
     30  C         -3.6400   26.5460   39.9490 C.2   290  ARG290      0.2260
     31  O         -3.1830   25.7240   40.7340 O.2   290  ARG290     -0.2867
     32  CB        -2.5560   28.7280   39.5020 C.3   290  ARG290      0.0307
     33  CG        -2.1160   28.7970   40.9570 C.3   290  ARG290      0.0489
     34  CD        -2.3890   30.1620   41.5430 C.3   290  ARG290      0.2205
     35  NE        -2.1980   30.1990   42.9840 N.pl3 290  ARG290     -0.0865
     36  CZ        -1.0960   30.6160   43.6060 C.cat 290  ARG290      0.5346
     37  NH1       -0.0250   31.0290   42.9220 N.pl3 290  ARG290      0.1354
     38  NH2       -1.0690   30.6160   44.9320 N.pl3 290  ARG290      0.1354
     39  N          4.4230   27.6990   45.9640 N.3   328  ILE328     -0.1231
     40  CA         4.4180   28.5580   44.7770 C.3   328  ILE328      0.1692
     41  C          4.7100   30.0100   45.1620 C.2   328  ILE328      0.2592
     42  O          5.5980   30.6390   44.6040 O.2   328  ILE328     -0.2718
     43  CB         3.0990   28.4690   43.9950 C.3   328  ILE328      0.0266
     44  CG1        2.9020   27.0440   43.4730 C.3   328  ILE328      0.0019
     45  CG2        3.1100   29.4630   42.8370 C.3   328  ILE328      0.0020
     46  CD1        1.6030   26.8260   42.7280 C.3   328  ILE328      0.0001
     47  N          3.9670   30.5290   46.1310 N.am  329  ASP329     -0.1960
     48  CA         3.9920   31.9540   46.4540 C.3   329  ASP329      0.1840
     49  C          5.3570   32.4830   46.9550 C.2   329  ASP329      0.2623
     50  O          5.7280   33.6190   46.6580 O.2   329  ASP329     -0.2715
     51  CB         2.9000   32.2620   47.4880 C.3   329  ASP329      0.1450
     52  CG         1.4990   32.0920   46.9390 C.2   329  ASP329      0.3671
     53  OD1        1.3250   32.0290   45.7140 O.co2 329  ASP329     -0.2456
     54  OD2        0.5470   32.0160   47.7530 O.co2 329  ASP329     -0.2456
     55  N          6.0850   31.6590   47.6990 N.am  330  THR330     -0.1937
     56  CA         7.4020   32.0290   48.2250 C.3   330  THR330      0.2028
     57  C          8.4690   31.9860   47.1390 C.2   330  THR330      0.2642
     58  O          9.5880   32.4380   47.3570 O.2   330  THR330     -0.2714
     59  CB         7.8700   31.0590   49.3200 C.3   330  THR330      0.1808
     60  OG1        7.9180   29.7210   48.7970 O.3   330  THR330     -0.2208
     61  CG2        6.9380   31.1230   50.5310 C.3   330  THR330      0.0379
     62  N          8.1320   31.3940   46.0000 N.am  331  GLY331     -0.1954
     63  CA         9.1120   31.1810   44.9360 C.3   331  GLY331      0.1869
     64  C          9.8310   29.8510   45.0530 C.2   331  GLY331      0.2309
     65  O         10.6590   29.5150   44.2030 O.2   331  GLY331     -0.2863
     66  N          9.4580   27.6130   41.8980 N.3   334  GLU334     -0.1245
     67  CA        10.2130   28.1750   40.7770 C.3   334  GLU334      0.1567
     68  C         11.7040   27.9280   40.9580 C.2   334  GLU334      0.2260
     69  O         12.3820   27.4900   40.0210 O.2   334  GLU334     -0.2867
     70  CB         9.9360   29.6750   40.6330 C.3   334  GLU334      0.0388
     71  CG        10.4920   30.2760   39.3480 C.3   334  GLU334      0.1160
     72  CD        10.0540   31.7050   39.1450 C.2   334  GLU334      0.3649
     73  OE1        9.4280   32.0040   38.1160 O.co2 334  GLU334     -0.2457
     74  OE2       10.3120   32.5370   40.0320 O.co2 334  GLU334     -0.2457
@<TRIPOS>BOND
     1    20    19    2
     2    28    29    1
     3    19    18    1
     4     1     2    1
     5    73    72   ar
     6    17    18    1
     7     9    10    1
     8     9     3   am
     9    10    11    1
    10     7     6    1
    11     6     5    1
    12     6     8    1
    13     5     2    1
    14    18    21    1
    15    29    32    1
    16    29    30    1
    17    11    12    2
    18    11    13   am
    19     2     3    1
    20    72    71    1
    21    72    74   ar
    22     3     4    2
    23    71    70    1
    24    15    16    2
    25    15    14    1
    26    13    14    1
    27    32    33    1
    28    21    22    1
    29    30    31    2
    30    69    68    2
    31    70    67    1
    32    67    68    1
    33    67    66    1
    34    22    23    1
    35    33    34    1
    36    34    35    1
    37    23    24    1
    38    46    44    1
    39    45    43    1
    40    37    36    1
    41    35    36    2
    42    24    25    2
    43    44    43    1
    44    36    38    1
    45    43    40    1
    46    65    64    2
    47    25    27    1
    48    25    26    1
    49    42    41    2
    50    40    41    1
    51    40    39    1
    52    63    64    1
    53    63    62    1
    54    41    47   am
    55    53    52   ar
    56    62    57   am
    57    47    48    1
    58    48    49    1
    59    48    51    1
    60    50    49    2
    61    52    51    1
    62    52    54   ar
    63    49    55   am
    64    57    58    2
    65    57    56    1
    66    55    56    1
    67    56    59    1
    68    60    59    1
    69    59    61    1
