@<TRIPOS>MOLECULE
tmp/4x5cB00.pdb
 98 92 0 0 0
SMALL
GASTEIGER

@<TRIPOS>ATOM
      1  N        -19.1070  -31.2860    7.1970 N.3    83  VAL83      -0.1231
      2  CA       -17.9630  -30.7320    7.8870 C.3    83  VAL83       0.1692
      3  C        -18.3360  -30.2760    9.3000 C.2    83  VAL83       0.2592
      4  O        -19.5020  -30.0460    9.5980 O.2    83  VAL83      -0.2718
      5  CB       -17.3900  -29.5420    7.0800 C.3    83  VAL83       0.0266
      6  CG1      -18.3780  -28.3860    7.0140 C.3    83  VAL83       0.0020
      7  CG2      -16.0340  -29.0880    7.6220 C.3    83  VAL83       0.0020
      8  N        -17.3230  -30.1750   10.1640 N.am   84  GLY84      -0.1957
      9  CA       -17.4740  -29.6040   11.5120 C.3    84  GLY84       0.1869
     10  C        -16.4570  -28.5280   11.8380 C.2    84  GLY84       0.2309
     11  O        -15.4210  -28.4090   11.1840 O.2    84  GLY84      -0.2863
     12  N        -14.7580  -28.5430   14.4260 N.3    86  GLY86      -0.1225
     13  CA       -13.7020  -29.1620   15.2010 C.3    86  GLY86       0.1811
     14  C        -13.6930  -28.5740   16.6030 C.2    86  GLY86       0.2280
     15  O        -14.7570  -28.2260   17.1470 O.2    86  GLY86      -0.2866
     16  N        -11.8680  -38.2540   18.2520 N.3    90  THR90      -0.1203
     17  CA       -12.9300  -38.6630   17.3360 C.3    90  THR90       0.1994
     18  C        -12.4000  -39.6960   16.3440 C.2    90  THR90       0.2618
     19  O        -11.1940  -39.9380   16.2740 O.2    90  THR90      -0.2717
     20  CB       -13.4750  -37.4700   16.5010 C.3    90  THR90       0.1784
     21  OG1      -12.4420  -36.8480   15.7190 O.3    90  THR90      -0.2211
     22  CG2      -14.1040  -36.4350   17.4080 C.3    90  THR90       0.0376
     23  N        -13.3130  -40.3330   15.6160 N.am   91  VAL91      -0.1965
     24  CA       -13.0310  -40.8660   14.2770 C.3    91  VAL91       0.1727
     25  C        -13.5050  -39.7570   13.3630 C.2    91  VAL91       0.2616
     26  O        -14.3860  -39.0010   13.7530 O.2    91  VAL91      -0.2715
     27  CB       -13.8260  -42.1520   13.9650 C.3    91  VAL91       0.0290
     28  CG1      -13.1420  -42.8210   12.7710 C.3    91  VAL91       0.0023
     29  CG2      -13.7410  -43.0650   15.1880 C.3    91  VAL91       0.0023
     30  N        -12.9290  -39.6200   12.1730 N.am   92  ASN92      -0.1958
     31  CA       -13.4270  -38.6090   11.2480 C.3    92  ASN92       0.1819
     32  C        -14.7800  -39.0840   10.7140 C.2    92  ASN92       0.2621
     33  O        -14.8620  -39.7030    9.6500 O.2    92  ASN92      -0.2715
     34  CB       -12.4520  -38.3500   10.1060 C.3    92  ASN92       0.1195
     35  CG       -11.4670  -37.2430   10.4130 C.2    92  ASN92       0.2630
     36  OD1      -11.7140  -36.3580   11.2580 O.2    92  ASN92      -0.2716
     37  ND2      -10.3340  -37.2820    9.7380 N.am   92  ASN92      -0.0877
     38  N        -15.8350  -38.8020   11.4830 N.am   93  LEU93      -0.1963
     39  CA       -17.1940  -39.1650   11.1050 C.3    93  LEU93       0.1728
     40  C        -17.6240  -38.3720    9.8830 C.2    93  LEU93       0.2617
     41  O        -18.3360  -38.8870    9.0410 O.2    93  LEU93      -0.2715
     42  CB       -18.1540  -38.8980   12.2520 C.3    93  LEU93       0.0311
     43  CG       -17.7710  -39.7070   13.4790 C.3    93  LEU93       0.0022
     44  CD1      -18.2960  -39.0600   14.7390 C.3    93  LEU93       0.0001
     45  CD2      -18.2590  -41.1430   13.3270 C.3    93  LEU93       0.0001
     46  N        -17.1800  -37.1220    9.7960 N.am   94  SER94      -0.1936
     47  CA       -17.5220  -36.2660    8.6700 C.3    94  SER94       0.2055
     48  C        -17.0190  -36.7970    7.3510 C.2    94  SER94       0.2643
     49  O        -17.7540  -36.8240    6.3820 O.2    94  SER94      -0.2714
     50  CB       -16.9760  -34.8650    8.8730 C.3    94  SER94       0.2130
     51  OG       -17.7740  -34.1650    9.8070 O.3    94  SER94      -0.2179
     52  N        -15.7490  -37.1850    7.3320 N.am   95  THR95      -0.1950
     53  CA       -15.0680  -37.7190    6.1570 C.3    95  THR95       0.1897
     54  C        -15.8090  -38.9330    5.5860 C.2    95  THR95       0.2313
     55  O        -16.0860  -39.0060    4.3770 O.2    95  THR95      -0.2863
     56  CB       -13.6230  -38.1530    6.5480 C.3    95  THR95       0.1794
     57  OG1      -12.8060  -36.9840    6.7660 O.3    95  THR95      -0.2208
     58  CG2      -12.9900  -39.0860    5.4790 C.3    95  THR95       0.0378
     59  N        -16.2880  -30.5470   -0.2550 N.3   110  LYS110     -0.1245
     60  CA       -15.8490  -30.3570    1.1280 C.3   110  LYS110      0.1561
     61  C        -14.7670  -29.3230    1.2170 C.2   110  LYS110      0.2260
     62  O        -14.0120  -29.1000    0.2770 O.2   110  LYS110     -0.2867
     63  CB       -15.3240  -31.6640    1.7210 C.3   110  LYS110      0.0271
     64  CG       -16.2760  -32.3160    2.7080 C.3   110  LYS110      0.0035
     65  CD       -15.6810  -33.5640    3.3440 C.3   110  LYS110      0.0206
     66  CE       -14.5910  -33.2410    4.3280 C.3   110  LYS110      0.1093
     67  NZ       -15.1000  -32.6070    5.5620 N.3   110  LYS110     -0.1314
     68  N        -11.1210  -25.9020    9.9660 N.3   120  SER120     -0.1202
     69  CA       -11.5860  -27.2980    9.9720 C.3   120  SER120      0.2020
     70  C        -10.4990  -28.3310    9.6230 C.2   120  SER120      0.2619
     71  O         -9.4370  -27.9750    9.0940 O.2   120  SER120     -0.2717
     72  CB       -12.7490  -27.5750    8.9750 C.3   120  SER120      0.2103
     73  OG       -13.8920  -26.7740    9.3090 O.3   120  SER120     -0.2182
     74  N        -10.7860  -29.6040    9.9170 N.am  121  GLY121     -0.1942
     75  CA        -9.8760  -30.7330    9.6220 C.3   121  GLY121      0.2014
     76  C        -10.3130  -31.7060    8.5070 C.2   121  GLY121      0.2639
     77  O        -11.1760  -31.3860    7.6440 O.2   121  GLY121     -0.2714
     78  N         -9.7000  -32.8980    8.5260 N.am  122  GLY122     -0.1954
     79  CA       -10.0760  -34.0220    7.6350 C.3   122  GLY122      0.1869
     80  C         -9.1050  -34.3010    6.4840 C.2   122  GLY122      0.2309
     81  O         -9.0910  -35.3870    5.9260 O.2   122  GLY122     -0.2863
     82  N        -19.1310  -32.3210   17.7410 N.3   226  ASP226     -0.1225
     83  CA       -19.3920  -31.5020   16.5450 C.3   226  ASP226      0.1805
     84  C        -19.9580  -32.3250   15.3750 C.2   226  ASP226      0.2597
     85  O        -19.6930  -32.0570   14.2130 O.2   226  ASP226     -0.2718
     86  CB       -18.1380  -30.7290   16.1270 C.3   226  ASP226      0.1424
     87  CG       -17.0780  -31.5980   15.5100 C.2   226  ASP226      0.3668
     88  OD1      -17.0050  -32.8040   15.8110 O.co2 226  ASP226     -0.2456
     89  OD2      -16.2960  -31.0420   14.7210 O.co2 226  ASP226     -0.2456
     90  N        -20.7250  -33.3510   15.7170 N.am  227  GLU227     -0.1979
     91  CA       -21.4660  -34.1680   14.7810 C.3   227  GLU227      0.1602
     92  C        -22.7840  -34.4650   15.4700 C.2   227  GLU227      0.2287
     93  O        -22.9210  -34.1870   16.6540 O.2   227  GLU227     -0.2864
     94  CB       -20.7700  -35.4980   14.5480 C.3   227  GLU227      0.0415
     95  CG       -19.3010  -35.3950   14.2230 C.3   227  GLU227      0.1163
     96  CD       -19.0450  -34.9180   12.8140 C.2   227  GLU227      0.3649
     97  OE1      -20.0140  -34.8210   12.0050 O.co2 227  GLU227     -0.2457
     98  OE2      -17.8490  -34.6630   12.5260 O.co2 227  GLU227     -0.2457
@<TRIPOS>BOND
     1    59    60    1
     2    62    61    2
     3    60    61    1
     4    60    63    1
     5    63    64    1
     6    64    65    1
     7    65    66    1
     8    66    67    1
     9    55    54    2
    10    58    56    1
    11    54    53    1
    12    81    80    2
    13    53    56    1
    14    53    52    1
    15    49    48    2
    16    80    79    1
    17    56    57    1
    18     6     5    1
    19     5     7    1
    20     5     2    1
    21     1     2    1
    22    52    48   am
    23    48    47    1
    24    79    78    1
    25    77    76    2
    26     2     3    1
    27    76    78   am
    28    76    75    1
    29    47    50    1
    30    47    46    1
    31    50    51    1
    32    72    73    1
    33    72    69    1
    34    41    40    2
    35    71    70    2
    36     3     4    2
    37     3     8   am
    38    75    74    1
    39    70    74   am
    40    70    69    1
    41    33    32    2
    42    37    35   am
    43    46    40   am
    44    40    39    1
    45    68    69    1
    46    34    35    1
    47    34    31    1
    48     8     9    1
    49    35    36    2
    50    32    31    1
    51    32    38   am
    52    39    38    1
    53    39    42    1
    54    11    10    2
    55    31    30    1
    56     9    10    1
    57    97    96   ar
    58    30    25   am
    59    42    43    1
    60    98    96   ar
    61    28    27    1
    62    96    95    1
    63    45    43    1
    64    25    26    2
    65    25    24    1
    66    43    44    1
    67    27    24    1
    68    27    29    1
    69    85    84    2
    70    95    94    1
    71    24    23    1
    72    12    13    1
    73    94    91    1
    74    89    87   ar
    75    91    92    1
    76    91    90    1
    77    13    14    1
    78    84    90   am
    79    84    83    1
    80    92    93    2
    81    87    88   ar
    82    87    86    1
    83    23    18   am
    84    21    20    1
    85    86    83    1
    86    19    18    2
    87    18    17    1
    88    20    17    1
    89    20    22    1
    90    83    82    1
    91    14    15    2
    92    17    16    1
