@<TRIPOS>MOLECULE
tmp/4x5kA00.pdb
 206 208 0 0 0
SMALL
GASTEIGER

@<TRIPOS>ATOM
      1  N        -12.3780    7.0360   -2.1540 N.3    25  PHE25      -0.1228
      2  CA       -11.7750    7.9440   -3.1430 C.3    25  PHE25       0.1721
      3  C        -12.8110    8.7080   -3.9720 C.2    25  PHE25       0.2437
      4  O        -13.8090    8.1250   -4.4010 O.2    25  PHE25      -0.2733
      5  CB       -10.8420    7.1750   -4.0960 C.3    25  PHE25       0.0547
      6  CG        -9.8550    6.2690   -3.3980 C.ar   25  PHE25      -0.0202
      7  CD1       -8.7050    6.7920   -2.7980 C.ar   25  PHE25      -0.0042
      8  CD2      -10.0580    4.8890   -3.3650 C.ar   25  PHE25      -0.0042
      9  CE1       -7.7880    5.9580   -2.1610 C.ar   25  PHE25      -0.0003
     10  CE2       -9.1380    4.0470   -2.7400 C.ar   25  PHE25      -0.0003
     11  CZ        -8.0000    4.5790   -2.1380 C.ar   25  PHE25      -0.0000
     12  N        -12.5430   10.0070   -4.2380 N.am   26  PRO26      -0.2718
     13  CA       -13.4110   10.9030   -5.0110 C.3    26  PRO26       0.1535
     14  C        -13.3220   10.6700   -6.5080 C.2    26  PRO26       0.2598
     15  O        -13.9320   11.4300   -7.2590 O.2    26  PRO26      -0.2715
     16  CB       -12.8160   12.2810   -4.7220 C.3    26  PRO26       0.0310
     17  CG       -11.3310   11.9950   -4.6420 C.3    26  PRO26       0.0237
     18  CD       -11.2850   10.6840   -3.8520 C.3    26  PRO26       0.0939
     19  N        -12.5500    9.6790   -6.9460 N.am   27  VAL27      -0.1964
     20  CA       -12.5760    9.2940   -8.3530 C.3    27  VAL27       0.1727
     21  C        -13.2890    7.9530   -8.4950 C.2    27  VAL27       0.2617
     22  O        -13.3550    7.1580   -7.5470 O.2    27  VAL27      -0.2715
     23  CB       -11.1640    9.2110   -8.9990 C.3    27  VAL27       0.0290
     24  CG1      -10.3610   10.4650   -8.7180 C.3    27  VAL27       0.0023
     25  CG2      -10.4230    7.9970   -8.4950 C.3    27  VAL27       0.0023
     26  N        -13.8400    7.7090   -9.6790 N.am   28  SER28      -0.1936
     27  CA       -14.4810    6.4290   -9.9470 C.3    28  SER28       0.2055
     28  C        -13.7100    5.6450  -10.9840 C.2    28  SER28       0.2643
     29  O        -13.2900    6.1830  -12.0190 O.2    28  SER28      -0.2714
     30  CB       -15.9420    6.6080  -10.3680 C.3    28  SER28       0.2130
     31  OG       -16.7910    6.5670   -9.2250 O.3    28  SER28      -0.2179
     32  N        -13.5230    4.3660  -10.6900 N.am   29  TYR29      -0.1973
     33  CA       -12.8410    3.4660  -11.6050 C.3    29  TYR29       0.1639
     34  C        -13.8820    2.5920  -12.2730 C.2    29  TYR29       0.2290
     35  O        -14.8540    2.1940  -11.6190 O.2    29  TYR29      -0.2864
     36  CB       -11.8440    2.6100  -10.8230 C.3    29  TYR29       0.0560
     37  CG       -10.8330    3.4460  -10.0570 C.ar   29  TYR29      -0.0198
     38  CD1       -9.6610    3.8860  -10.6700 C.ar   29  TYR29      -0.0009
     39  CD2      -11.0560    3.8110   -8.7370 C.ar   29  TYR29      -0.0009
     40  CE1       -8.7290    4.6520   -9.9890 C.ar   29  TYR29       0.0417
     41  CE2      -10.1300    4.5930   -8.0470 C.ar   29  TYR29       0.0417
     42  CZ        -8.9640    5.0080   -8.6810 C.ar   29  TYR29       0.1957
     43  OH        -8.0290    5.7830   -8.0180 O.3    29  TYR29      -0.2866
     44  N        -10.3970   -1.8130  -14.1590 N.3    33  PHE33      -0.1241
     45  CA        -9.6470   -1.7520  -12.9120 C.3    33  PHE33       0.1605
     46  C         -9.8430   -3.0160  -12.1010 C.2    33  PHE33       0.2264
     47  O         -8.8810   -3.6430  -11.6460 O.2    33  PHE33      -0.2867
     48  CB       -10.1460   -0.5430  -12.1210 C.3    33  PHE33       0.0534
     49  CG        -9.4420   -0.3200  -10.8200 C.ar   33  PHE33      -0.0203
     50  CD1       -8.4790    0.6770  -10.7090 C.ar   33  PHE33      -0.0042
     51  CD2       -9.7580   -1.0790   -9.6880 C.ar   33  PHE33      -0.0042
     52  CE1       -7.8260    0.9070   -9.4920 C.ar   33  PHE33      -0.0003
     53  CE2       -9.1060   -0.8660   -8.4760 C.ar   33  PHE33      -0.0003
     54  CZ        -8.1440    0.1310   -8.3750 C.ar   33  PHE33      -0.0000
     55  N         -0.1020   -2.5730   -9.2420 N.3    60  ARG60      -0.1245
     56  CA         0.1200   -2.8710  -10.6440 C.3    60  ARG60       0.1563
     57  C          1.6250   -2.7580  -10.9480 C.2    60  ARG60       0.2260
     58  O          2.3190   -1.9250  -10.3540 O.2    60  ARG60      -0.2867
     59  CB        -0.6560   -1.8620  -11.4750 C.3    60  ARG60       0.0307
     60  CG        -0.4980   -2.0260  -12.9650 C.3    60  ARG60       0.0489
     61  CD        -0.1650   -0.6900  -13.5890 C.3    60  ARG60       0.2205
     62  NE        -1.2810    0.2500  -13.6250 N.pl3  60  ARG60      -0.0865
     63  CZ        -1.1680    1.5400  -13.9260 C.cat  60  ARG60       0.5346
     64  NH1       -2.2510    2.3140  -13.9390 N.pl3  60  ARG60       0.1354
     65  NH2        0.0230    2.0550  -14.2070 N.pl3  60  ARG60       0.1354
     66  N          3.4370    0.1890   -8.9110 N.3    71  TYR71      -0.1227
     67  CA         2.5110    1.3180   -8.8810 C.3    71  TYR71       0.1736
     68  C          1.3310    1.0530   -7.9470 C.2    71  TYR71       0.2595
     69  O          0.4900    0.1690   -8.2060 O.2    71  TYR71      -0.2718
     70  CB         1.9830    1.6110  -10.2890 C.3    71  TYR71       0.0548
     71  CG         1.1020    2.8380  -10.3830 C.ar   71  TYR71      -0.0200
     72  CD1        1.6300    4.1120  -10.2040 C.ar   71  TYR71      -0.0009
     73  CD2       -0.2430    2.7290  -10.6860 C.ar   71  TYR71      -0.0009
     74  CE1        0.8360    5.2470  -10.3130 C.ar   71  TYR71       0.0417
     75  CE2       -1.0540    3.8650  -10.7910 C.ar   71  TYR71       0.0417
     76  CZ        -0.5050    5.1200  -10.6020 C.ar   71  TYR71       0.1957
     77  OH        -1.2900    6.2500  -10.6960 O.3    71  TYR71      -0.2866
     78  N          1.2590    1.8270   -6.8680 N.am   72  ILE72      -0.1966
     79  CA         0.0960    1.7630   -5.9920 C.3    72  ILE72       0.1727
     80  C         -1.0460    2.5820   -6.6350 C.2    72  ILE72       0.2616
     81  O         -1.0010    3.8250   -6.6640 O.2    72  ILE72      -0.2715
     82  CB         0.4330    2.2420   -4.5470 C.3    72  ILE72       0.0290
     83  CG1        1.5570    1.3900   -3.9470 C.3    72  ILE72       0.0022
     84  CG2       -0.7900    2.1650   -3.6440 C.3    72  ILE72       0.0023
     85  CD1        1.9250    1.7790   -2.5150 C.3    72  ILE72       0.0001
     86  N         -2.0430    1.8800   -7.1840 N.am   73  MET73      -0.1963
     87  CA        -3.2190    2.5290   -7.7920 C.3    73  MET73       0.1736
     88  C         -4.1380    3.1070   -6.7250 C.2    73  MET73       0.2617
     89  O         -4.5950    4.2440   -6.8330 O.2    73  MET73      -0.2715
     90  CB        -4.0430    1.5350   -8.6200 C.3    73  MET73       0.0427
     91  CG        -3.2930    0.8360   -9.7370 C.3    73  MET73       0.0599
     92  SD        -4.1920   -0.6160  -10.3420 S.3    73  MET73      -0.1393
     93  CE        -5.1160    0.1170  -11.7030 C.3    73  MET73       0.0692
     94  N         -4.4260    2.2820   -5.7190 N.am   74  THR74      -0.1937
     95  CA        -5.2470    2.6660   -4.5810 C.3    74  THR74       0.2028
     96  C         -4.7410    2.0610   -3.2690 C.2    74  THR74       0.2642
     97  O         -4.4360    0.8710   -3.2020 O.2    74  THR74      -0.2714
     98  CB        -6.7110    2.2280   -4.7490 C.3    74  THR74       0.1808
     99  OG1       -6.7460    0.8260   -5.0540 O.3    74  THR74      -0.2208
    100  CG2       -7.4150    3.0430   -5.8420 C.3    74  THR74       0.0379
    101  N         -4.6800    2.8850   -2.2260 N.am   75  LEU75      -0.1977
    102  CA        -4.4440    2.4050   -0.8680 C.3    75  LEU75       0.1596
    103  C         -5.2710    3.2930    0.0720 C.2    75  LEU75       0.2287
    104  O         -5.1570    4.5210    0.0470 O.2    75  LEU75      -0.2864
    105  CB        -2.9550    2.4590   -0.5280 C.3    75  LEU75       0.0297
    106  CG        -2.4040    1.6360    0.6490 C.3    75  LEU75       0.0022
    107  CD1       -0.8750    1.6910    0.6720 C.3    75  LEU75       0.0001
    108  CD2       -2.9530    2.0930    1.9870 C.3    75  LEU75       0.0001
    109  N          3.3770    6.2330   -6.7560 N.3   109  LEU109     -0.1231
    110  CA         1.9490    6.4400   -6.6960 C.3   109  LEU109      0.1693
    111  C          1.6310    7.9030   -6.9270 C.2   109  LEU109      0.2592
    112  O          2.5210    8.7570   -6.9260 O.2   109  LEU109     -0.2718
    113  CB         1.4010    5.9680   -5.3430 C.3   109  LEU109      0.0284
    114  CG         2.0580    6.5870   -4.1110 C.3   109  LEU109      0.0019
    115  CD1        1.0440    7.4470   -3.3890 C.3   109  LEU109      0.0001
    116  CD2        2.6020    5.5120   -3.1830 C.3   109  LEU109      0.0001
    117  N          0.3540    8.1910   -7.1240 N.am  110  HIS110     -0.1962
    118  CA        -0.0900    9.5570   -7.3110 C.3   110  HIS110      0.1787
    119  C         -0.8970   10.0100   -6.0990 C.2   110  HIS110      0.2620
    120  O         -1.7220    9.2640   -5.5790 O.2   110  HIS110     -0.2715
    121  CB        -0.9430    9.6640   -8.5760 C.3   110  HIS110      0.0785
    122  CG        -0.1440    9.7430   -9.8390 C.ar  110  HIS110      0.0821
    123  ND1        0.1090    8.6450  -10.6290 N.ar  110  HIS110     -0.2267
    124  CD2        0.4550   10.8000  -10.4450 C.ar  110  HIS110      0.1154
    125  CE1        0.8350    9.0210  -11.6740 C.ar  110  HIS110      0.1986
    126  NE2        1.0510   10.3210  -11.5840 N.ar  110  HIS110     -0.2212
    127  N         -0.6450   11.2330   -5.6460 N.am  111  VAL111     -0.1963
    128  CA        -1.4050   11.8330   -4.5530 C.3   111  VAL111      0.1727
    129  C         -1.7830   13.2870   -4.8920 C.2   111  VAL111      0.2616
    130  O         -0.9180   14.1040   -5.2220 O.2   111  VAL111     -0.2715
    131  CB        -0.6380   11.7450   -3.2040 C.3   111  VAL111      0.0290
    132  CG1       -1.0560   12.8650   -2.2630 C.3   111  VAL111      0.0023
    133  CG2       -0.8750   10.3830   -2.5440 C.3   111  VAL111      0.0023
    134  N         -3.0840   13.5780   -4.8350 N.am  112  GLN112     -0.1977
    135  CA        -3.6350   14.9190   -5.0030 C.3   112  GLN112      0.1601
    136  C         -2.9170   15.9140   -4.0730 C.2   112  GLN112      0.2287
    137  O         -2.7140   15.6200   -2.8820 O.2   112  GLN112     -0.2864
    138  CB        -5.1130   14.8680   -4.6370 C.3   112  GLN112      0.0394
    139  CG        -5.9060   16.0740   -5.0270 C.3   112  GLN112      0.0908
    140  CD        -7.3810   15.8030   -4.9260 C.2   112  GLN112      0.2608
    141  OE1       -7.7840   14.7340   -4.4620 O.2   112  GLN112     -0.2717
    142  NE2       -8.2030   16.7610   -5.3660 N.am  112  GLN112     -0.0878
    143  N          2.9190    8.9080    3.4340 N.3   122  TYR122     -0.1241
    144  CA         3.9070    8.2730    2.5580 C.3   122  TYR122      0.1605
    145  C          5.3480    8.7120    2.8210 C.2   122  TYR122      0.2264
    146  O          6.2620    7.8770    2.8610 O.2   122  TYR122     -0.2867
    147  CB         3.5470    8.4340    1.0900 C.3   122  TYR122      0.0534
    148  CG         2.4180    7.5370    0.6630 C.ar  122  TYR122     -0.0201
    149  CD1        2.6120    6.1710    0.4760 C.ar  122  TYR122     -0.0009
    150  CD2        1.1590    8.0540    0.4370 C.ar  122  TYR122     -0.0009
    151  CE1        1.5620    5.3460    0.0770 C.ar  122  TYR122      0.0417
    152  CE2        0.1230    7.2520    0.0370 C.ar  122  TYR122      0.0417
    153  CZ         0.3220    5.9040   -0.1450 C.ar  122  TYR122      0.1957
    154  OH        -0.7420    5.1360   -0.5500 O.3   122  TYR122     -0.2866
    155  N         -3.5970   16.3240  -13.5410 N.3   136  TYR136     -0.1227
    156  CA        -3.5360   14.8670  -13.5930 C.3   136  TYR136      0.1736
    157  C         -4.9260   14.2620  -13.3960 C.2   136  TYR136      0.2595
    158  O         -5.2680   13.2660  -14.0370 O.2   136  TYR136     -0.2718
    159  CB        -2.5560   14.3110  -12.5480 C.3   136  TYR136      0.0548
    160  CG        -2.6310   12.8000  -12.4030 C.ar  136  TYR136     -0.0200
    161  CD1       -2.0190   11.9600  -13.3240 C.ar  136  TYR136     -0.0009
    162  CD2       -3.3100   12.2180  -11.3460 C.ar  136  TYR136     -0.0009
    163  CE1       -2.0880   10.5730  -13.1930 C.ar  136  TYR136      0.0417
    164  CE2       -3.3890   10.8420  -11.2070 C.ar  136  TYR136      0.0417
    165  CZ        -2.7800   10.0160  -12.1280 C.ar  136  TYR136      0.1957
    166  OH        -2.8690    8.6350  -11.9820 O.3   136  TYR136     -0.2866
    167  N         -5.7210   14.8500  -12.5020 N.am  137  TYR137     -0.1962
    168  CA        -7.1240   14.4530  -12.3480 C.3   137  TYR137      0.1771
    169  C         -7.9740   15.2050  -13.3700 C.2   137  TYR137      0.2619
    170  O         -7.6410   16.3370  -13.7400 O.2   137  TYR137     -0.2715
    171  CB        -7.6060   14.7180  -10.9100 C.3   137  TYR137      0.0574
    172  CG        -6.8480   13.8840   -9.9120 C.ar  137  TYR137     -0.0198
    173  CD1       -6.9900   12.5030   -9.9020 C.ar  137  TYR137     -0.0009
    174  CD2       -5.9510   14.4600   -9.0170 C.ar  137  TYR137     -0.0009
    175  CE1       -6.2710   11.7000   -9.0100 C.ar  137  TYR137      0.0417
    176  CE2       -5.2250   13.6710   -8.1090 C.ar  137  TYR137      0.0417
    177  CZ        -5.3950   12.2890   -8.1130 C.ar  137  TYR137      0.1957
    178  OH        -4.7070   11.4810   -7.2340 O.3   137  TYR137     -0.2866
    179  N         -9.0600   14.5900  -13.8380 N.am  138  LYS138     -0.1963
    180  CA        -9.8820   15.2050  -14.8780 C.3   138  LYS138      0.1728
    181  C        -11.1060   15.8870  -14.2890 C.2   138  LYS138      0.2616
    182  O        -11.4550   17.0200  -14.6470 O.2   138  LYS138     -0.2715
    183  CB       -10.3170   14.1520  -15.8940 C.3   138  LYS138      0.0311
    184  CG        -9.2410   13.3860  -16.6570 C.3   138  LYS138      0.0038
    185  CD        -8.5410   14.4030  -17.4830 C.3   138  LYS138      0.0206
    186  CE        -7.3680   13.5460  -18.0200 C.3   138  LYS138      0.1093
    187  NZ        -6.2010   14.4340  -18.1450 N.3   138  LYS138     -0.1314
    188  N        -11.7430   15.1880  -13.3600 N.am  139  ARG139     -0.1963
    189  CA       -13.0640   15.5740  -12.8900 C.3   139  ARG139      0.1729
    190  C        -13.0970   16.3180  -11.5340 C.2   139  ARG139      0.2616
    191  O        -14.1620   16.7510  -11.1140 O.2   139  ARG139     -0.2715
    192  CB       -13.9690   14.3270  -12.8380 C.3   139  ARG139      0.0348
    193  CG       -13.9900   13.4810  -14.1310 C.3   139  ARG139      0.0492
    194  CD       -14.5510   14.2520  -15.3520 C.3   139  ARG139      0.2205
    195  NE       -13.7260   14.1420  -16.5770 N.pl3 139  ARG139     -0.0865
    196  CZ       -13.5260   15.1380  -17.4530 C.cat 139  ARG139      0.5346
    197  NH1      -14.0870   16.3380  -17.2530 N.pl3 139  ARG139      0.1354
    198  NH2      -12.7580   14.9460  -18.5300 N.pl3 139  ARG139      0.1354
    199  N        -11.9560   16.4640  -10.8550 N.am  140  ILE140     -0.1977
    200  CA       -11.9270   17.0150   -9.4870 C.3   140  ILE140      0.1596
    201  C        -10.9110   18.1560   -9.2460 C.2   140  ILE140      0.2287
    202  O         -9.8750   18.2420   -9.9160 O.2   140  ILE140     -0.2864
    203  CB       -11.6630   15.9090   -8.4270 C.3   140  ILE140      0.0276
    204  CG1      -10.2250   15.3990   -8.5410 C.3   140  ILE140      0.0022
    205  CG2      -12.6730   14.7780   -8.5470 C.3   140  ILE140      0.0022
    206  CD1       -9.8950   14.2460   -7.6120 C.3   140  ILE140      0.0001
@<TRIPOS>BOND
     1   198   196    1
     2   187   186    1
     3   186   185    1
     4   185   184    1
     5   196   197    1
     6   196   195    2
     7   184   183    1
     8   195   194    1
     9   183   180    1
    10   194   193    1
    11   180   181    1
    12   180   179    1
    13   182   181    2
    14   181   188   am
    15    65    63    1
    16    44    45    1
    17   193   192    1
    18   158   157    2
    19    64    63    1
    20    63    62    2
    21   179   169   am
    22   170   169    2
    23    62    61    1
    24   156   155    1
    25   156   157    1
    26   156   159    1
    27    61    60    1
    28   157   167   am
    29   169   168    1
    30   188   189    1
    31   161   163   ar
    32   161   160   ar
    33   163   165   ar
    34    60    59    1
    35    45    48    1
    36    45    46    1
    37   189   192    1
    38   189   190    1
    39   159   160    1
    40   167   168    1
    41   160   162   ar
    42   168   171    1
    43    34    35    2
    44    34    33    1
    45   165   166    1
    46   165   164   ar
    47    48    49    1
    48    46    47    2
    49    29    28    2
    50    93    92    1
    51   125   126   ar
    52   125   123   ar
    53    33    36    1
    54    33    32    1
    55   126   124   ar
    56   190   191    2
    57   190   199   am
    58    59    56    1
    59   162   164   ar
    60    28    32   am
    61    28    27    1
    62    57    56    1
    63    57    58    2
    64   171   172    1
    65   199   200    1
    66    36    37    1
    67    49    50   ar
    68    49    51   ar
    69    75    73   ar
    70    75    76   ar
    71    50    52   ar
    72    77    76    1
    73    73    71   ar
    74    38    37   ar
    75    38    40   ar
    76    56    55    1
    77   123   122   ar
    78    76    74   ar
    79   124   122   ar
    80    71    70    1
    81    71    72   ar
    82    30    27    1
    83    30    31    1
    84    92    91    1
    85    74    72   ar
    86    70    67    1
    87    37    39   ar
    88    40    42   ar
    89    27    26    1
    90   202   201    2
    91   172   173   ar
    92   172   174   ar
    93   173   175   ar
    94   122   121    1
    95    91    90    1
    96    51    53   ar
    97    26    21   am
    98    52    54   ar
    99   200   201    1
   100   200   203    1
   101   174   176   ar
   102   175   177   ar
   103    23    24    1
   104    23    25    1
   105    23    20    1
   106    66    67    1
   107    67    68    1
   108    39    41   ar
   109    42    41   ar
   110    42    43    1
   111    90    87    1
   112   121   118    1
   113   205   203    1
   114   204   203    1
   115   204   206    1
   116    21    20    1
   117    21    22    2
   118    53    54   ar
   119    20    19    1
   120    69    68    2
   121   177   176   ar
   122   177   178    1
   123    68    78   am
   124    87    86    1
   125    87    88    1
   126   118   117    1
   127   118   119    1
   128    15    14    2
   129    86    80   am
   130   117   111   am
   131    19    14   am
   132   111   112    2
   133   111   110    1
   134    78    79    1
   135    89    88    2
   136   109   110    1
   137    88    94   am
   138   110   113    1
   139    81    80    2
   140    80    79    1
   141    14    13    1
   142   119   127   am
   143   119   120    2
   144    79    82    1
   145   100    98    1
   146    94    95    1
   147   127   128    1
   148   142   140   am
   149   113   114    1
   150   130   129    2
   151    99    98    1
   152   139   140    1
   153   139   138    1
   154    13    16    1
   155    13    12    1
   156   135   134    1
   157   135   138    1
   158   135   136    1
   159   140   141    2
   160   129   134   am
   161   129   128    1
   162    98    95    1
   163    16    17    1
   164    17    18    1
   165    95    96    1
   166   128   131    1
   167    82    83    1
   168    82    84    1
   169     4     3    2
   170    12     3   am
   171    12    18    1
   172   114   115    1
   173   114   116    1
   174     5     6    1
   175     5     2    1
   176   136   137    2
   177     3     2    1
   178    83    85    1
   179     6     8   ar
   180     6     7   ar
   181     8    10   ar
   182    96    97    2
   183    96   101   am
   184   131   133    1
   185   131   132    1
   186     2     1    1
   187     7     9   ar
   188    10    11   ar
   189   101   102    1
   190     9    11   ar
   191   102   105    1
   192   102   103    1
   193   154   153    1
   194   105   106    1
   195   153   152   ar
   196   153   151   ar
   197   152   150   ar
   198   104   103    2
   199   151   149   ar
   200   150   148   ar
   201   149   148   ar
   202   106   107    1
   203   106   108    1
   204   148   147    1
   205   147   144    1
   206   144   145    1
   207   144   143    1
   208   145   146    2
