@<TRIPOS>MOLECULE
tmp/4x5mB08.pdb
 97 92 0 0 0
SMALL
GASTEIGER

@<TRIPOS>ATOM
      1  N         59.5210   29.8210  -11.0570 N.3     1  MET1       -0.1230
      2  CA        58.9120   28.7010  -11.7650 C.3     1  MET1        0.1702
      3  C         57.9340   29.1880  -12.8270 C.2     1  MET1        0.2592
      4  O         57.9030   28.6680  -13.9420 O.2     1  MET1       -0.2718
      5  CB        58.1960   27.7690  -10.7840 C.3     1  MET1        0.0401
      6  CG        57.6350   26.5550  -11.4550 C.3     1  MET1        0.0596
      7  SD        58.9950   25.4290  -11.7800 S.3     1  MET1       -0.1393
      8  CE        58.8880   24.4720  -10.2830 C.3     1  MET1        0.0692
      9  N         57.1370   30.1900  -12.4710 N.am    2  ASP2       -0.1974
     10  CA        56.1280   30.7250  -13.3760 C.3     2  ASP2        0.1709
     11  C         56.7510   31.5140  -14.5190 C.2     2  ASP2        0.2293
     12  O         56.3090   31.4130  -15.6620 O.2     2  ASP2       -0.2864
     13  CB        55.1370   31.6040  -12.6120 C.3     2  ASP2        0.1436
     14  CG        54.2140   30.7970  -11.7250 C.2     2  ASP2        0.3671
     15  OD1       54.0580   29.5850  -11.9790 O.co2   2  ASP2       -0.2456
     16  OD2       53.6400   31.3740  -10.7800 O.co2   2  ASP2       -0.2456
     17  N         58.0960   29.0180  -16.9340 N.3     5  LEU5       -0.1245
     18  CA        57.0010   28.5030  -17.7490 C.3     5  LEU5        0.1561
     19  C         56.5970   29.5120  -18.8180 C.2     5  LEU5        0.2260
     20  O         56.3700   29.1480  -19.9720 O.2     5  LEU5       -0.2867
     21  CB        55.7970   28.1550  -16.8710 C.3     5  LEU5        0.0270
     22  CG        54.5220   27.7060  -17.5910 C.3     5  LEU5        0.0019
     23  CD1       54.7770   26.4520  -18.4110 C.3     5  LEU5        0.0001
     24  CD2       53.3960   27.4780  -16.5940 C.3     5  LEU5        0.0001
     25  N         56.2680   29.0240  -22.8130 N.3     9  LEU9       -0.1245
     26  CA        55.0100   29.2600  -23.5170 C.3     9  LEU9        0.1561
     27  C         55.2040   30.2760  -24.6370 C.2     9  LEU9        0.2260
     28  O         54.6280   30.1460  -25.7180 O.2     9  LEU9       -0.2867
     29  CB        53.9260   29.7390  -22.5460 C.3     9  LEU9        0.0270
     30  CG        53.4810   28.7370  -21.4780 C.3     9  LEU9        0.0019
     31  CD1       52.3850   29.3310  -20.6100 C.3     9  LEU9        0.0001
     32  CD2       53.0180   27.4410  -22.1220 C.3     9  LEU9        0.0001
     33  N         57.0200   28.3760  -27.2350 N.3    12  ALA12      -0.1231
     34  CA        56.1100   27.4220  -27.8530 C.3    12  ALA12       0.1694
     35  C         55.2030   28.0920  -28.8800 C.2    12  ALA12       0.2592
     36  O         54.9550   27.5350  -29.9450 O.2    12  ALA12      -0.2718
     37  CB        55.2780   26.7180  -26.7900 C.3    12  ALA12       0.0304
     38  N         54.7160   29.2900  -28.5660 N.am   13  PHE13      -0.1976
     39  CA        53.8170   29.9970  -29.4770 C.3    13  PHE13       0.1639
     40  C         54.4900   30.3590  -30.7960 C.2    13  PHE13       0.2290
     41  O         53.9030   30.1990  -31.8660 O.2    13  PHE13      -0.2864
     42  CB        53.2690   31.2720  -28.8300 C.3    13  PHE13       0.0560
     43  CG        52.5250   32.1610  -29.7910 C.ar   13  PHE13      -0.0200
     44  CD1       51.2490   31.8250  -30.2180 C.ar   13  PHE13      -0.0042
     45  CD2       53.1030   33.3240  -30.2760 C.ar   13  PHE13      -0.0042
     46  CE1       50.5640   32.6330  -31.1060 C.ar   13  PHE13      -0.0003
     47  CE2       52.4220   34.1360  -31.1630 C.ar   13  PHE13      -0.0003
     48  CZ        51.1520   33.7900  -31.5790 C.ar   13  PHE13      -0.0000
     49  N         55.6940   27.0440  -32.9400 N.3    16  THR16      -0.1203
     50  CA        54.5920   26.1940  -33.3810 C.3    16  THR16       0.1994
     51  C         53.7780   26.8470  -34.4960 C.2    16  THR16       0.2617
     52  O         53.3570   26.1790  -35.4420 O.2    16  THR16      -0.2717
     53  CB        53.6500   25.8390  -32.2140 C.3    16  THR16       0.1784
     54  OG1       54.4040   25.2280  -31.1590 O.3    16  THR16      -0.2211
     55  CG2       52.5690   24.8790  -32.6730 C.3    16  THR16       0.0376
     56  N         53.5710   28.1540  -34.3930 N.am   17  PHE17      -0.1975
     57  CA        52.7100   28.8560  -35.3410 C.3    17  PHE17       0.1639
     58  C         53.4800   29.6090  -36.4200 C.2    17  PHE17       0.2290
     59  O         52.8810   30.2910  -37.2510 O.2    17  PHE17      -0.2864
     60  CB        51.7850   29.8180  -34.5930 C.3    17  PHE17       0.0560
     61  CG        50.7500   29.1240  -33.7570 C.ar   17  PHE17      -0.0200
     62  CD1       49.6200   28.5820  -34.3450 C.ar   17  PHE17      -0.0042
     63  CD2       50.9090   29.0080  -32.3860 C.ar   17  PHE17      -0.0042
     64  CE1       48.6650   27.9390  -33.5820 C.ar   17  PHE17      -0.0003
     65  CE2       49.9570   28.3670  -31.6170 C.ar   17  PHE17      -0.0003
     66  CZ        48.8350   27.8320  -32.2160 C.ar   17  PHE17      -0.0000
     67  N         55.6550   21.3030  -19.2130 N.3    60  PHE60      -0.1241
     68  CA        54.3770   21.7100  -19.7840 C.3    60  PHE60       0.1605
     69  C         54.5490   22.4060  -21.1330 C.2    60  PHE60       0.2264
     70  O         53.7670   22.1860  -22.0590 O.2    60  PHE60      -0.2867
     71  CB        53.6440   22.6250  -18.7970 C.3    60  PHE60       0.0534
     72  CG        52.1780   22.7820  -19.0770 C.ar   60  PHE60      -0.0203
     73  CD1       51.3370   21.6810  -19.0950 C.ar   60  PHE60      -0.0042
     74  CD2       51.6350   24.0370  -19.2940 C.ar   60  PHE60      -0.0042
     75  CE1       49.9850   21.8270  -19.3440 C.ar   60  PHE60      -0.0003
     76  CE2       50.2830   24.1900  -19.5380 C.ar   60  PHE60      -0.0003
     77  CZ        49.4580   23.0850  -19.5660 C.ar   60  PHE60      -0.0000
     78  N         53.0150   20.9600  -24.6620 N.3    64  ILE64      -0.1231
     79  CA        52.0480   21.7460  -25.4280 C.3    64  ILE64       0.1692
     80  C         52.4910   21.9820  -26.8670 C.2    64  ILE64       0.2591
     81  O         51.7190   21.7810  -27.8070 O.2    64  ILE64      -0.2718
     82  CB        51.7960   23.1280  -24.7850 C.3    64  ILE64       0.0266
     83  CG1       50.9880   22.9940  -23.4950 C.3    64  ILE64       0.0019
     84  CG2       51.0700   24.0450  -25.7600 C.3    64  ILE64       0.0020
     85  CD1       50.5100   24.3270  -22.9530 C.3    64  ILE64       0.0001
     86  N         53.7350   22.4240  -27.0250 N.am   65  ALA65      -0.1980
     87  CA        54.2720   22.7690  -28.3340 C.3    65  ALA65       0.1597
     88  C         54.1900   21.5970  -29.3030 C.2    65  ALA65       0.2287
     89  O         53.8160   21.7610  -30.4630 O.2    65  ALA65      -0.2864
     90  CB        55.7150   23.2450  -28.2020 C.3    65  ALA65       0.0319
     91  N         50.4690   20.2610  -30.2380 N.3    68  VAL68      -0.1245
     92  CA        49.9250   21.1090  -31.2940 C.3    68  VAL68       0.1561
     93  C         50.6630   20.8710  -32.6100 C.2    68  VAL68       0.2260
     94  O         50.0570   20.8880  -33.6820 O.2    68  VAL68      -0.2867
     95  CB        50.0010   22.6060  -30.9210 C.3    68  VAL68       0.0252
     96  CG1       49.3840   23.4590  -32.0190 C.3    68  VAL68       0.0019
     97  CG2       49.2920   22.8590  -29.6010 C.3    68  VAL68       0.0019
@<TRIPOS>BOND
     1    59    58    2
     2    58    57    1
     3    52    51    2
     4    57    60    1
     5    57    56    1
     6    60    61    1
     7    51    56   am
     8    51    50    1
     9    62    61   ar
    10    62    64   ar
    11    61    63   ar
    12    94    93    2
    13    64    66   ar
    14    50    49    1
    15    50    53    1
    16    55    53    1
    17    93    92    1
    18    63    65   ar
    19    66    65   ar
    20    53    54    1
    21    96    95    1
    22    41    40    2
    23    48    47   ar
    24    48    46   ar
    25    92    95    1
    26    92    91    1
    27    47    45   ar
    28    46    44   ar
    29    95    97    1
    30    40    39    1
    31    89    88    2
    32    45    43   ar
    33    44    43   ar
    34    36    35    2
    35    43    42    1
    36    39    42    1
    37    39    38    1
    38    88    87    1
    39    35    38   am
    40    35    34    1
    41    87    90    1
    42    87    86    1
    43    34    33    1
    44    34    37    1
    45    81    80    2
    46    86    80   am
    47    80    79    1
    48    84    82    1
    49    28    27    2
    50    79    82    1
    51    79    78    1
    52    82    83    1
    53    27    26    1
    54    26    25    1
    55    26    29    1
    56    83    85    1
    57    29    30    1
    58    32    30    1
    59    70    69    2
    60    30    31    1
    61    69    68    1
    62    20    19    2
    63    68    67    1
    64    68    71    1
    65    77    76   ar
    66    77    75   ar
    67    76    74   ar
    68    75    73   ar
    69    74    72   ar
    70    73    72   ar
    71    72    71    1
    72    19    18    1
    73    23    22    1
    74    18    17    1
    75    18    21    1
    76    22    21    1
    77    22    24    1
    78    12    11    2
    79    11    10    1
    80     4     3    2
    81    10    13    1
    82    10     9    1
    83     3     9   am
    84     3     2    1
    85    13    14    1
    86    15    14   ar
    87     7     6    1
    88     7     8    1
    89     2     1    1
    90     2     5    1
    91    14    16   ar
    92     6     5    1
