@<TRIPOS>MOLECULE
tmp/4x5mC00.pdb
 116 110 0 0 0
SMALL
GASTEIGER

@<TRIPOS>ATOM
      1  N         63.8680   15.4020  -34.5110 N.3    14  THR14      -0.1203
      2  CA        63.2040   16.6590  -34.8620 C.3    14  THR14       0.1994
      3  C         64.1510   17.6260  -35.5570 C.2    14  THR14       0.2618
      4  O         63.7690   18.3080  -36.5080 O.2    14  THR14      -0.2717
      5  CB        62.6220   17.3710  -33.6290 C.3    14  THR14       0.1784
      6  OG1       63.6360   17.5010  -32.6250 O.3    14  THR14      -0.2211
      7  CG2       61.4520   16.5950  -33.0700 C.3    14  THR14       0.0376
      8  N         65.3850   17.6880  -35.0700 N.am   15  THR15      -0.1952
      9  CA        66.3660   18.6210  -35.6090 C.3    15  THR15       0.1897
     10  C         66.9320   18.1220  -36.9370 C.2    15  THR15       0.2313
     11  O         67.1760   18.9090  -37.8520 O.2    15  THR15      -0.2863
     12  CB        67.5190   18.8590  -34.6160 C.3    15  THR15       0.1794
     13  OG1       66.9800   19.2090  -33.3340 O.3    15  THR15      -0.2208
     14  CG2       68.4190   19.9810  -35.1010 C.3    15  THR15       0.0378
     15  N         64.5280   18.0390  -40.9930 N.3    18  PHE18      -0.1241
     16  CA        64.5240   19.0120  -42.0780 C.3    18  PHE18       0.1605
     17  C         65.8710   19.7110  -42.2130 C.2    18  PHE18       0.2264
     18  O         65.9760   20.7740  -42.8260 O.2    18  PHE18      -0.2867
     19  CB        63.4050   20.0310  -41.8670 C.3    18  PHE18       0.0534
     20  CG        62.0310   19.4230  -41.8780 C.ar   18  PHE18      -0.0203
     21  CD1       61.4230   19.0790  -43.0750 C.ar   18  PHE18      -0.0042
     22  CD2       61.3520   19.1860  -40.6940 C.ar   18  PHE18      -0.0042
     23  CE1       60.1610   18.5140  -43.0910 C.ar   18  PHE18      -0.0003
     24  CE2       60.0890   18.6220  -40.7030 C.ar   18  PHE18      -0.0003
     25  CZ        59.4930   18.2860  -41.9040 C.ar   18  PHE18      -0.0000
     26  N         67.0520   19.9010  -45.9590 N.3    21  GLN21      -0.1231
     27  CA        66.4160   20.9940  -46.6910 C.3    21  GLN21       0.1698
     28  C         67.0970   22.3280  -46.3980 C.2    21  GLN21       0.2592
     29  O         67.3390   23.1230  -47.3060 O.2    21  GLN21      -0.2718
     30  CB        64.9250   21.0820  -46.3530 C.3    21  GLN21       0.0381
     31  CG        64.0740   19.9840  -46.9710 C.3    21  GLN21       0.0905
     32  CD        62.5890   20.2880  -46.8930 C.2    21  GLN21       0.2608
     33  OE1       62.1750   21.2490  -46.2450 O.2    21  GLN21      -0.2717
     34  NE2       61.7810   19.4720  -47.5590 N.am   21  GLN21      -0.0878
     35  N         67.4000   22.5670  -45.1260 N.am   22  SER22      -0.1952
     36  CA        68.0660   23.7990  -44.7160 C.3    22  SER22       0.1924
     37  C         69.4710   23.8940  -45.3040 C.2    22  SER22       0.2314
     38  O         69.8750   24.9440  -45.8000 O.2    22  SER22      -0.2863
     39  CB        68.1340   23.8960  -43.1900 C.3    22  SER22       0.2116
     40  OG        66.8380   23.9420  -42.6200 O.3    22  SER22      -0.2180
     41  N         60.3260   32.7920  -40.7930 N.3    39  TYR39      -0.1241
     42  CA        61.6260   32.4360  -40.2370 C.3    39  TYR39       0.1605
     43  C         62.0080   33.3370  -39.0660 C.2    39  TYR39       0.2264
     44  O         62.6440   32.8870  -38.1130 O.2    39  TYR39      -0.2867
     45  CB        62.7050   32.4850  -41.3210 C.3    39  TYR39       0.0534
     46  CG        62.9180   31.1520  -41.9980 C.ar   39  TYR39      -0.0201
     47  CD1       62.0620   30.7170  -43.0010 C.ar   39  TYR39      -0.0009
     48  CD2       63.9660   30.3220  -41.6230 C.ar   39  TYR39      -0.0009
     49  CE1       62.2470   29.4960  -43.6170 C.ar   39  TYR39       0.0417
     50  CE2       64.1610   29.0990  -42.2330 C.ar   39  TYR39       0.0417
     51  CZ        63.2980   28.6900  -43.2300 C.ar   39  TYR39       0.1957
     52  OH        63.4850   27.4730  -43.8420 O.3    39  TYR39      -0.2866
     53  N         59.9330   32.0850  -36.2470 N.3    42  PHE42      -0.1241
     54  CA        60.4720   30.7970  -35.8270 C.3    42  PHE42       0.1605
     55  C         61.7340   30.9620  -34.9870 C.2    42  PHE42       0.2264
     56  O         61.8530   30.3860  -33.9060 O.2    42  PHE42      -0.2867
     57  CB        60.7610   29.9260  -37.0520 C.3    42  PHE42       0.0534
     58  CG        61.2980   28.5650  -36.7180 C.ar   42  PHE42      -0.0203
     59  CD1       60.4700   27.5910  -36.1860 C.ar   42  PHE42      -0.0042
     60  CD2       62.6280   28.2570  -36.9470 C.ar   42  PHE42      -0.0042
     61  CE1       60.9620   26.3370  -35.8800 C.ar   42  PHE42      -0.0003
     62  CE2       63.1250   27.0050  -36.6470 C.ar   42  PHE42      -0.0003
     63  CZ        62.2910   26.0440  -36.1120 C.ar   42  PHE42      -0.0000
     64  N         62.8970   29.9350  -31.2450 N.3    46  VAL46      -0.1245
     65  CA        64.0610   29.0700  -31.0650 C.3    46  VAL46       0.1561
     66  C         65.0320   29.6460  -30.0390 C.2    46  VAL46       0.2260
     67  O         65.5190   28.9360  -29.1570 O.2    46  VAL46      -0.2867
     68  CB        64.8020   28.8450  -32.4010 C.3    46  VAL46       0.0252
     69  CG1       66.1560   28.1890  -32.1640 C.3    46  VAL46       0.0019
     70  CG2       63.9560   28.0010  -33.3350 C.3    46  VAL46       0.0019
     71  N         63.5130   29.2430  -26.7750 N.3    49  TRP49      -0.1241
     72  CA        63.6830   27.8610  -26.3300 C.3    49  TRP49       0.1605
     73  C         65.0630   27.6480  -25.7220 C.2    49  TRP49       0.2264
     74  O         65.2260   26.8770  -24.7770 O.2    49  TRP49      -0.2867
     75  CB        63.4810   26.8820  -27.4880 C.3    49  TRP49       0.0550
     76  CG        62.0520   26.5510  -27.7950 C.ar   49  TRP49       0.0003
     77  CD1       61.3800   26.8220  -28.9510 C.ar   49  TRP49       0.0946
     78  CD2       61.1220   25.8780  -26.9390 C.ar   49  TRP49       0.0152
     79  NE1       60.0880   26.3620  -28.8670 N.ar   49  TRP49      -0.2442
     80  CE2       59.9040   25.7790  -27.6400 C.ar   49  TRP49       0.0810
     81  CE3       61.1980   25.3520  -25.6450 C.ar   49  TRP49       0.0012
     82  CZ2       58.7720   25.1760  -27.0940 C.ar   49  TRP49       0.0191
     83  CZ3       60.0720   24.7540  -25.1030 C.ar   49  TRP49       0.0001
     84  CH2       58.8760   24.6720  -25.8280 C.ar   49  TRP49       0.0015
     85  N         66.5620   20.1330  -24.6430 N.3    61  VAL61      -0.1245
     86  CA        65.9440   21.3170  -25.2320 C.3    61  VAL61       0.1561
     87  C         67.0030   22.2940  -25.7380 C.2    61  VAL61       0.2260
     88  O         66.8840   22.8490  -26.8330 O.2    61  VAL61      -0.2867
     89  CB        65.0270   22.0400  -24.2180 C.3    61  VAL61       0.0252
     90  CG1       64.5570   23.3770  -24.7750 C.3    61  VAL61       0.0019
     91  CG2       63.8400   21.1620  -23.8510 C.3    61  VAL61       0.0019
     92  N         69.1180   20.8300  -28.9050 N.3    64  ALA64      -0.1231
     93  CA        68.2380   20.7050  -30.0640 C.3    64  ALA64       0.1694
     94  C         68.0040   22.0520  -30.7410 C.2    64  ALA64       0.2592
     95  O         68.0430   22.1580  -31.9670 O.2    64  ALA64      -0.2718
     96  CB        66.9090   20.0850  -29.6560 C.3    64  ALA64       0.0304
     97  N         67.7700   23.0810  -29.9330 N.am   65  ASN65      -0.1974
     98  CA        67.4570   24.4060  -30.4560 C.3    65  ASN65       0.1688
     99  C         68.6920   25.2180  -30.8260 C.2    65  ASN65       0.2292
    100  O         68.6110   26.1440  -31.6310 O.2    65  ASN65      -0.2864
    101  CB        66.6110   25.1810  -29.4470 C.3    65  ASN65       0.1181
    102  CG        65.1710   24.7160  -29.4240 C.2    65  ASN65       0.2629
    103  OD1       64.3570   25.1490  -30.2390 O.2    65  ASN65      -0.2716
    104  ND2       64.8480   23.8290  -28.4900 N.am   65  ASN65      -0.0877
    105  N         69.2440   23.8460  -34.1880 N.3    68  THR68      -0.1218
    106  CA        68.1650   24.3980  -35.0020 C.3    68  THR68       0.1862
    107  C         68.4630   25.8460  -35.3780 C.2    68  THR68       0.2287
    108  O         68.2700   26.2520  -36.5260 O.2    68  THR68      -0.2866
    109  CB        66.8040   24.3310  -34.2740 C.3    68  THR68       0.1770
    110  OG1       66.4180   22.9620  -34.1010 O.3    68  THR68      -0.2211
    111  CG2       65.7280   25.0500  -35.0760 C.3    68  THR68       0.0375
    112  N         68.7110   27.2990  -39.2760 N.3    72  ALA72      -0.1245
    113  CA        67.6690   28.1670  -39.8190 C.3    72  ALA72       0.1562
    114  C         68.1170   29.6190  -39.9970 C.2    72  ALA72       0.2260
    115  O         67.6770   30.2950  -40.9270 O.2    72  ALA72      -0.2867
    116  CB        66.4330   28.1100  -38.9310 C.3    72  ALA72       0.0290
@<TRIPOS>BOND
     1    34    32   am
     2    29    28    2
     3    31    32    1
     4    31    30    1
     5    32    33    2
     6    27    28    1
     7    27    30    1
     8    27    26    1
     9    28    35   am
    10    38    37    2
    11    37    36    1
    12    35    36    1
    13    36    39    1
    14    52    51    1
    15    49    51   ar
    16    49    47   ar
    17    51    50   ar
    18    39    40    1
    19    23    21   ar
    20    23    25   ar
    21    21    20   ar
    22    47    46   ar
    23    18    17    2
    24    50    48   ar
    25    17    16    1
    26    16    19    1
    27    16    15    1
    28    46    48   ar
    29    46    45    1
    30    25    24   ar
    31    20    19    1
    32    20    22   ar
    33    45    42    1
    34   115   114    2
    35    41    42    1
    36    24    22   ar
    37    42    43    1
    38   114   113    1
    39   113   112    1
    40   113   116    1
    41    43    44    2
    42    11    10    2
    43    57    58    1
    44    57    54    1
    45    60    58   ar
    46    60    62   ar
    47    10     9    1
    48    58    59   ar
    49    62    63   ar
    50   108   107    2
    51     4     3    2
    52    53    54    1
    53    59    61   ar
    54    63    61   ar
    55    54    55    1
    56     9     8    1
    57     9    12    1
    58     3     8   am
    59     3     2    1
    60   107   106    1
    61    14    12    1
    62   111   109    1
    63   106   109    1
    64   106   105    1
    65    55    56    2
    66     2     1    1
    67     2     5    1
    68    12    13    1
    69   109   110    1
    70     5     7    1
    71     5     6    1
    72    70    68    1
    73    68    69    1
    74    68    65    1
    75    95    94    2
    76   100    99    2
    77    64    65    1
    78    65    66    1
    79    99    98    1
    80    94    93    1
    81    94    97   am
    82    98    97    1
    83    98   101    1
    84   103   102    2
    85    93    96    1
    86    93    92    1
    87    66    67    2
    88   101   102    1
    89   102   104   am
    90    77    79   ar
    91    77    76   ar
    92    79    80   ar
    93    76    75    1
    94    76    78   ar
    95    80    82   ar
    96    80    78   ar
    97    75    72    1
    98    82    84   ar
    99    78    81   ar
   100    88    87    2
   101    71    72    1
   102    72    73    1
   103    84    83   ar
   104    87    86    1
   105    73    74    2
   106    81    83   ar
   107    86    85    1
   108    86    89    1
   109    90    89    1
   110    89    91    1
