@<TRIPOS>MOLECULE
tmp/4x5mA01.pdb
 80 75 0 0 0
SMALL
GASTEIGER

@<TRIPOS>ATOM
      1  N         48.2610   44.6570  -31.8390 N.3    50  ILE50      -0.1245
      2  CA        48.6240   43.4310  -32.5410 C.3    50  ILE50       0.1561
      3  C         47.8760   43.3360  -33.8670 C.2    50  ILE50       0.2260
      4  O         48.4650   43.0160  -34.8980 O.2    50  ILE50      -0.2867
      5  CB        48.3360   42.1810  -31.6840 C.3    50  ILE50       0.0252
      6  CG1       49.2250   42.1820  -30.4380 C.3    50  ILE50       0.0019
      7  CG2       48.5620   40.9130  -32.4910 C.3    50  ILE50       0.0019
      8  CD1       49.0230   40.9830  -29.5350 C.3    50  ILE50       0.0001
      9  N         49.6650   43.6550  -37.5710 N.3    54  ILE54      -0.1245
     10  CA        49.4510   42.6860  -38.6410 C.3    54  ILE54       0.1561
     11  C         48.9820   43.3870  -39.9090 C.2    54  ILE54       0.2260
     12  O         49.4720   43.1140  -41.0060 O.2    54  ILE54      -0.2867
     13  CB        48.4170   41.6140  -38.2370 C.3    54  ILE54       0.0252
     14  CG1       48.9670   40.7390  -37.1100 C.3    54  ILE54       0.0019
     15  CG2       48.0370   40.7550  -39.4350 C.3    54  ILE54       0.0019
     16  CD1       47.9670   39.7340  -36.5760 C.3    54  ILE54       0.0001
     17  N         51.8760   45.2780  -41.3860 N.3    57  SER57      -0.1217
     18  CA        53.0850   44.4870  -41.6150 C.3    57  SER57       0.1889
     19  C         54.2540   45.1000  -40.8490 C.2    57  SER57       0.2288
     20  O         55.3410   45.3010  -41.3950 O.2    57  SER57      -0.2866
     21  CB        53.4080   44.3870  -43.1090 C.3    57  SER57       0.2089
     22  OG        52.3600   43.7450  -43.8140 O.3    57  SER57      -0.2183
     23  N         56.5670   44.4540  -37.8170 N.3    59  PHE59      -0.1241
     24  CA        57.0450   43.4630  -36.8610 C.3    59  PHE59       0.1605
     25  C         57.5250   44.1100  -35.5660 C.2    59  PHE59       0.2264
     26  O         57.5130   43.4790  -34.5110 O.2    59  PHE59      -0.2867
     27  CB        58.1660   42.6180  -37.4680 C.3    59  PHE59       0.0534
     28  CG        58.6110   41.4870  -36.5850 C.ar   59  PHE59      -0.0203
     29  CD1       57.8450   40.3380  -36.4730 C.ar   59  PHE59      -0.0042
     30  CD2       59.7880   41.5760  -35.8600 C.ar   59  PHE59      -0.0042
     31  CE1       58.2450   39.2960  -35.6570 C.ar   59  PHE59      -0.0003
     32  CE2       60.1940   40.5370  -35.0420 C.ar   59  PHE59      -0.0003
     33  CZ        59.4220   39.3960  -34.9400 C.ar   59  PHE59      -0.0000
     34  N         54.4210   44.6160  -33.6630 N.3    62  LEU62      -0.1245
     35  CA        53.9470   43.2710  -33.3530 C.3    62  LEU62       0.1561
     36  C         54.6640   42.6490  -32.1590 C.2    62  LEU62       0.2260
     37  O         54.0300   42.3130  -31.1590 O.2    62  LEU62      -0.2867
     38  CB        54.0990   42.3600  -34.5730 C.3    62  LEU62       0.0270
     39  CG        52.8390   42.1450  -35.4120 C.3    62  LEU62       0.0019
     40  CD1       53.1170   41.2050  -36.5760 C.3    62  LEU62       0.0001
     41  CD2       51.7120   41.6070  -34.5430 C.3    62  LEU62       0.0001
     42  N         53.2350   41.7340  -28.3960 N.3    66  ILE66      -0.1245
     43  CA        53.0950   40.3120  -28.1040 C.3    66  ILE66       0.1561
     44  C         53.8330   39.9840  -26.8100 C.2    66  ILE66       0.2260
     45  O         53.3030   39.2880  -25.9440 O.2    66  ILE66      -0.2867
     46  CB        53.6230   39.4290  -29.2530 C.3    66  ILE66       0.0252
     47  CG1       52.6910   39.5210  -30.4620 C.3    66  ILE66       0.0019
     48  CG2       53.7370   37.9800  -28.8030 C.3    66  ILE66       0.0019
     49  CD1       53.1940   38.7810  -31.6850 C.3    66  ILE66       0.0001
     50  N         51.9590   41.4270  -24.0350 N.3    69  LEU69      -0.1231
     51  CA        50.8240   40.5620  -23.7300 C.3    69  LEU69       0.1693
     52  C         51.2280   39.4160  -22.8040 C.2    69  LEU69       0.2592
     53  O         50.5100   39.0870  -21.8620 O.2    69  LEU69      -0.2718
     54  CB        50.2150   40.0050  -25.0200 C.3    69  LEU69       0.0284
     55  CG        49.0450   39.0310  -24.8570 C.3    69  LEU69       0.0019
     56  CD1       47.8600   39.7150  -24.1900 C.3    69  LEU69       0.0001
     57  CD2       48.6440   38.4430  -26.2020 C.3    69  LEU69       0.0001
     58  N         52.3860   38.8200  -23.0730 N.am   70  PHE70      -0.1976
     59  CA        52.8840   37.7070  -22.2680 C.3    70  PHE70       0.1639
     60  C         53.3340   38.1520  -20.8790 C.2    70  PHE70       0.2290
     61  O         53.5490   37.3250  -19.9930 O.2    70  PHE70      -0.2864
     62  CB        54.0390   37.0020  -22.9850 C.3    70  PHE70       0.0560
     63  CG        53.5980   35.9070  -23.9150 C.ar   70  PHE70      -0.0200
     64  CD1       53.1370   36.2020  -25.1870 C.ar   70  PHE70      -0.0042
     65  CD2       53.6500   34.5810  -23.5180 C.ar   70  PHE70      -0.0042
     66  CE1       52.7320   35.1950  -26.0440 C.ar   70  PHE70      -0.0003
     67  CE2       53.2470   33.5700  -24.3680 C.ar   70  PHE70      -0.0003
     68  CZ        52.7880   33.8760  -25.6330 C.ar   70  PHE70      -0.0000
     69  N         49.2030   39.8930  -19.2940 N.3    73  ALA73      -0.1231
     70  CA        48.1280   38.9270  -19.0690 C.3    73  ALA73       0.1679
     71  C         48.3160   38.0920  -17.7920 C.2    73  ALA73       0.2434
     72  O         47.3610   37.9260  -17.0340 O.2    73  ALA73      -0.2733
     73  CB        47.9700   38.0090  -20.2850 C.3    73  ALA73       0.0304
     74  N         49.5330   37.5620  -17.5430 N.am   74  PRO74      -0.2729
     75  CA        49.6980   36.8280  -16.2820 C.3    74  PRO74       0.1401
     76  C         49.5020   37.7090  -15.0500 C.2    74  PRO74       0.2269
     77  O         49.0070   37.2260  -14.0320 O.2    74  PRO74      -0.2865
     78  CB        51.1430   36.3200  -16.3590 C.3    74  PRO74       0.0296
     79  CG        51.4350   36.2510  -17.8080 C.3    74  PRO74       0.0237
     80  CD        50.7320   37.4350  -18.3930 C.3    74  PRO74       0.0939
@<TRIPOS>BOND
     1    22    21    1
     2    21    18    1
     3    18    17    1
     4    18    19    1
     5    20    19    2
     6    12    11    2
     7    11    10    1
     8    15    13    1
     9    10    13    1
    10    10     9    1
    11    13    14    1
    12    23    24    1
    13    27    24    1
    14    27    28    1
    15    14    16    1
    16    24    25    1
    17    28    29   ar
    18    28    30   ar
    19    40    39    1
    20    29    31   ar
    21    30    32   ar
    22    31    33   ar
    23    25    26    2
    24    39    38    1
    25    39    41    1
    26    32    33   ar
    27     4     3    2
    28    38    35    1
    29     3     2    1
    30    34    35    1
    31    35    36    1
    32     2     1    1
    33     2     5    1
    34     7     5    1
    35    36    37    2
    36    49    47    1
    37     5     6    1
    38    47    46    1
    39     6     8    1
    40    46    48    1
    41    46    43    1
    42    42    43    1
    43    43    44    1
    44    44    45    2
    45    57    55    1
    46    66    68   ar
    47    66    64   ar
    48    68    67   ar
    49    64    63   ar
    50    54    55    1
    51    54    51    1
    52    55    56    1
    53    67    65   ar
    54    50    51    1
    55    63    65   ar
    56    63    62    1
    57    51    52    1
    58    58    52   am
    59    58    59    1
    60    62    59    1
    61    52    53    2
    62    59    60    1
    63    60    61    2
    64    73    70    1
    65    69    70    1
    66    70    71    1
    67    80    79    1
    68    80    74    1
    69    79    78    1
    70    71    74   am
    71    71    72    2
    72    74    75    1
    73    78    75    1
    74    75    76    1
    75    76    77    2
