@<TRIPOS>MOLECULE
tmp/4x5pA00.pdb
 130 123 0 0 0
SMALL
GASTEIGER

@<TRIPOS>ATOM
      1  N         -0.5280   51.0770   -8.5710 N.3     1  PHE1       -0.1241
      2  CA         0.4450   51.7700   -7.7070 C.3     1  PHE1        0.1605
      3  C          1.6720   52.1450   -8.5150 C.2     1  PHE1        0.2264
      4  O          2.2660   51.2770   -9.1650 O.2     1  PHE1       -0.2867
      5  CB         0.8440   50.8970   -6.5200 C.3     1  PHE1        0.0534
      6  CG         1.8290   51.5590   -5.6090 C.ar    1  PHE1       -0.0203
      7  CD1        3.1970   51.4420   -5.8210 C.ar    1  PHE1       -0.0042
      8  CD2        1.3870   52.3080   -4.5240 C.ar    1  PHE1       -0.0042
      9  CE1        4.1150   52.0550   -4.9750 C.ar    1  PHE1       -0.0003
     10  CE2        2.3000   52.9190   -3.6850 C.ar    1  PHE1       -0.0003
     11  CZ         3.6590   52.8010   -3.9050 C.ar    1  PHE1       -0.0000
     12  N          3.7840   50.9890  -12.5280 N.3    13  ILE13      -0.1245
     13  CA         3.2250   49.7310  -12.0350 C.3    13  ILE13       0.1561
     14  C          4.2480   48.6370  -12.2560 C.2    13  ILE13       0.2260
     15  O          4.8250   48.5120  -13.3430 O.2    13  ILE13      -0.2867
     16  CB         1.9320   49.3800  -12.7760 C.3    13  ILE13       0.0252
     17  CG1        0.7910   50.2690  -12.2700 C.3    13  ILE13       0.0019
     18  CG2        1.6070   47.8970  -12.6700 C.3    13  ILE13       0.0019
     19  CD1       -0.5220   50.0750  -13.0060 C.3    13  ILE13       0.0001
     20  N         -2.1270   55.1930   -5.3580 N.3    46  ASN46      -0.1225
     21  CA        -2.9150   53.9680   -5.6040 C.3    46  ASN46       0.1785
     22  C         -3.7710   54.1780   -6.8660 C.2    46  ASN46       0.2597
     23  O         -4.4220   55.2100   -7.0160 O.2    46  ASN46      -0.2718
     24  CB        -3.7650   53.7410   -4.3550 C.3    46  ASN46       0.1169
     25  CG        -4.6820   52.5420   -4.3940 C.2    46  ASN46       0.2627
     26  OD1       -5.1930   52.1240   -5.4200 O.2    46  ASN46      -0.2716
     27  ND2       -4.9380   51.9920   -3.2110 N.am   46  ASN46      -0.0877
     28  N         -3.7260   53.2080   -7.7680 N.am   47  ASP47      -0.1960
     29  CA        -4.4010   53.3110   -9.0500 C.3    47  ASP47       0.1840
     30  C         -5.8330   52.7850   -9.0580 C.2    47  ASP47       0.2622
     31  O         -6.5280   52.9340  -10.0750 O.2    47  ASP47      -0.2715
     32  CB        -3.5710   52.5980  -10.1170 C.3    47  ASP47       0.1450
     33  CG        -2.3610   53.4060  -10.5300 C.2    47  ASP47       0.3671
     34  OD1       -2.5430   54.5780  -10.9010 O.co2  47  ASP47      -0.2456
     35  OD2       -1.2270   52.8770  -10.4900 O.co2  47  ASP47      -0.2456
     36  N         -6.3070   52.1790   -7.9720 N.am   48  TYR48      -0.1974
     37  CA        -7.7080   51.7120   -7.9130 C.3    48  TYR48       0.1639
     38  C         -8.1780   51.7040   -6.4760 C.2    48  TYR48       0.2290
     39  O         -8.5010   50.6720   -5.9180 O.2    48  TYR48      -0.2864
     40  CB        -7.8120   50.3030   -8.5180 C.3    48  TYR48       0.0560
     41  CG        -9.1950   49.6590   -8.6580 C.ar   48  TYR48      -0.0198
     42  CD1      -10.3780   50.3840   -8.5810 C.ar   48  TYR48      -0.0009
     43  CD2       -9.3070   48.2920   -8.8640 C.ar   48  TYR48      -0.0009
     44  CE1      -11.6340   49.7660   -8.7290 C.ar   48  TYR48       0.0417
     45  CE2      -10.5360   47.6750   -9.0280 C.ar   48  TYR48       0.0417
     46  CZ       -11.6990   48.4160   -8.9530 C.ar   48  TYR48       0.1957
     47  OH       -12.9370   47.8010   -9.0820 O.3    48  TYR48      -0.2866
     48  N         -8.9800   48.5590   -3.9280 N.3    52  ILE52      -0.1245
     49  CA        -7.6910   48.0080   -3.5300 C.3    52  ILE52       0.1561
     50  C         -7.0520   48.9290   -2.5050 C.2    52  ILE52       0.2260
     51  O         -7.0430   50.1520   -2.6700 O.2    52  ILE52      -0.2867
     52  CB        -6.7410   47.8580   -4.7320 C.3    52  ILE52       0.0252
     53  CG1       -7.4020   46.9940   -5.7930 C.3    52  ILE52       0.0019
     54  CG2       -5.3770   47.3030   -4.3060 C.3    52  ILE52       0.0019
     55  CD1       -6.5450   46.7280   -7.0220 C.3    52  ILE52       0.0001
     56  N         -3.2890   49.5810   -0.9980 N.3    54  ASP54      -0.1239
     57  CA        -1.8570   49.3420   -1.2040 C.3    54  ASP54       0.1674
     58  C         -1.1050   49.4920    0.1040 C.2    54  ASP54       0.2266
     59  O         -1.4180   50.3640    0.9150 O.2    54  ASP54      -0.2867
     60  CB        -1.2970   50.3240   -2.2380 C.3    54  ASP54       0.1410
     61  CG        -1.7740   50.0260   -3.6500 C.2    54  ASP54       0.3668
     62  OD1       -1.9690   48.8400   -3.9500 O.co2  54  ASP54      -0.2456
     63  OD2       -1.9390   51.0040   -4.4110 O.co2  54  ASP54      -0.2456
     64  N         -5.8470   58.0570   -5.1650 N.3    98  ARG98      -0.1245
     65  CA        -5.1760   58.3560   -6.4260 C.3    98  ARG98       0.1563
     66  C         -4.3140   59.6020   -6.3310 C.2    98  ARG98       0.2260
     67  O         -3.4660   59.8160   -7.1850 O.2    98  ARG98      -0.2867
     68  CB        -6.1750   58.5620   -7.5710 C.3    98  ARG98       0.0307
     69  CG        -6.7600   57.3480   -8.1410 C.3    98  ARG98       0.0489
     70  CD        -7.3500   57.5570   -9.5350 C.3    98  ARG98       0.2205
     71  NE        -7.8250   56.2650  -10.0290 N.pl3  98  ARG98      -0.0865
     72  CZ        -8.9640   55.7050   -9.6470 C.cat  98  ARG98       0.5346
     73  NH1       -9.7630   56.3420   -8.8020 N.pl3  98  ARG98       0.1354
     74  NH2       -9.3060   54.5120  -10.1060 N.pl3  98  ARG98       0.1354
     75  N          6.0550   47.2470   -2.3590 N.3   133  GLN133     -0.1245
     76  CA         4.6170   47.4720   -2.4660 C.3   133  GLN133      0.1566
     77  C          3.8750   46.1510   -2.6640 C.2   133  GLN133      0.2260
     78  O          4.1960   45.3680   -3.5530 O.2   133  GLN133     -0.2867
     79  CB         4.3070   48.4160   -3.6150 C.3   133  GLN133      0.0367
     80  CG         2.8100   48.6220   -3.8420 C.3   133  GLN133      0.0905
     81  CD         2.3000   47.9770   -5.0940 C.2   133  GLN133      0.2608
     82  OE1        2.9780   47.9940   -6.1250 O.2   133  GLN133     -0.2717
     83  NE2        1.0830   47.4250   -5.0320 N.am  133  GLN133     -0.0878
     84  N         -0.5360   44.6130   -1.6940 N.3   135  ASN135     -0.1240
     85  CA        -1.8990   45.0930   -1.5880 C.3   135  ASN135      0.1653
     86  C         -2.7790   44.0500   -0.9200 C.2   135  ASN135      0.2266
     87  O         -2.2920   42.9840   -0.5200 O.2   135  ASN135     -0.2867
     88  CB        -2.4280   45.5040   -2.9680 C.3   135  ASN135      0.1155
     89  CG        -2.4710   44.3400   -3.9170 C.2   135  ASN135      0.2627
     90  OD1       -2.8920   43.2610   -3.5380 O.2   135  ASN135     -0.2716
     91  ND2       -2.0240   44.5360   -5.1470 N.am  135  ASN135     -0.0877
     92  N         -5.4750   42.7450   -2.5030 N.3   137  TYR137     -0.1227
     93  CA        -6.2940   42.3420   -3.6430 C.3   137  TYR137      0.1736
     94  C         -5.7580   41.1210   -4.3770 C.2   137  TYR137      0.2595
     95  O         -6.5340   40.2310   -4.7340 O.2   137  TYR137     -0.2718
     96  CB        -6.4170   43.5230   -4.5930 C.3   137  TYR137      0.0548
     97  CG        -7.2780   43.2730   -5.7820 C.ar  137  TYR137     -0.0200
     98  CD1       -8.6620   43.2230   -5.6620 C.ar  137  TYR137     -0.0009
     99  CD2       -6.7290   43.1450   -7.0480 C.ar  137  TYR137     -0.0009
    100  CE1       -9.4570   42.9940   -6.7450 C.ar  137  TYR137      0.0417
    101  CE2       -7.5360   42.9370   -8.1300 C.ar  137  TYR137      0.0417
    102  CZ        -8.8920   42.8620   -7.9850 C.ar  137  TYR137      0.1957
    103  OH        -9.7170   42.6410   -9.0720 O.3   137  TYR137     -0.2866
    104  N         -4.4490   41.0920   -4.6410 N.am  138  ASN138     -0.1974
    105  CA        -3.7970   40.0380   -5.3940 C.3   138  ASN138      0.1688
    106  C         -2.4390   39.7560   -4.7460 C.2   138  ASN138      0.2292
    107  O         -2.2040   40.1540   -3.6030 O.2   138  ASN138     -0.2864
    108  CB        -3.7220   40.3980   -6.8840 C.3   138  ASN138      0.1181
    109  CG        -2.8820   41.6300   -7.1290 C.2   138  ASN138      0.2629
    110  OD1       -1.9980   41.9390   -6.3390 O.2   138  ASN138     -0.2716
    111  ND2       -3.1380   42.3310   -8.2110 N.am  138  ASN138     -0.0877
    112  N          0.5800   40.7070   -5.8930 N.3   140  ASP140     -0.1239
    113  CA         1.6390   41.6110   -6.3400 C.3   140  ASP140      0.1674
    114  C          2.6080   41.9240   -5.2010 C.2   140  ASP140      0.2266
    115  O          2.2000   42.2180   -4.0810 O.2   140  ASP140     -0.2867
    116  CB         1.0550   42.9140   -6.8640 C.3   140  ASP140      0.1410
    117  CG         0.2740   42.7630   -8.1510 C.2   140  ASP140      0.3668
    118  OD1        0.3110   41.6880   -8.7780 O.co2 140  ASP140     -0.2456
    119  OD2       -0.3740   43.7820   -8.5340 O.co2 140  ASP140     -0.2456
    120  N          6.1490   44.1470   -5.3490 N.3   142  PHE142     -0.1241
    121  CA         7.0110   44.8600   -6.2730 C.3   142  PHE142      0.1605
    122  C          8.0320   45.7150   -5.5310 C.2   142  PHE142      0.2264
    123  O          7.7360   46.2890   -4.4960 O.2   142  PHE142     -0.2867
    124  CB         6.1670   45.7540   -7.1760 C.3   142  PHE142      0.0534
    125  CG         5.1930   45.0150   -8.0700 C.ar  142  PHE142     -0.0203
    126  CD1        5.5880   43.9200   -8.8150 C.ar  142  PHE142     -0.0042
    127  CD2        3.8840   45.4730   -8.2030 C.ar  142  PHE142     -0.0042
    128  CE1        4.6840   43.3150   -9.6800 C.ar  142  PHE142     -0.0003
    129  CE2        2.9910   44.8620   -9.0570 C.ar  142  PHE142     -0.0003
    130  CZ         3.3910   43.7850   -9.8000 C.ar  142  PHE142     -0.0000
@<TRIPOS>BOND
     1    15    14    2
     2    19    17    1
     3    16    18    1
     4    16    17    1
     5    16    13    1
     6    12    13    1
     7    14    13    1
     8    34    33   ar
     9    33    35   ar
    10    33    32    1
    11    32    29    1
    12    74    72    1
    13    31    30    2
    14    71    72    2
    15    71    70    1
    16   130   128   ar
    17   130   129   ar
    18   128   126   ar
    19    72    73    1
    20    70    69    1
    21     4     3    2
    22    47    46    1
    23   103   102    1
    24    30    29    1
    25    30    36   am
    26   129   127   ar
    27    29    28    1
    28    45    46   ar
    29    45    43   ar
    30    46    44   ar
    31    43    41   ar
    32   126   125   ar
    33   118   117   ar
    34    44    42   ar
    35    41    42   ar
    36    41    40    1
    37     1     2    1
    38   119   117   ar
    39    40    37    1
    40     3     2    1
    41   111   109   am
    42   127   125   ar
    43   117   116    1
    44    69    68    1
    45   101   102   ar
    46   101    99   ar
    47   125   124    1
    48   102   100   ar
    49    36    37    1
    50    37    38    1
    51    28    22   am
    52     2     5    1
    53    68    65    1
    54    67    66    2
    55   124   121    1
    56   109   108    1
    57   109   110    2
    58    99    97   ar
    59    55    53    1
    60    23    22    2
    61   108   105    1
    62    22    21    1
    63   116   113    1
    64   100    98   ar
    65     5     6    1
    66    38    39    2
    67    65    66    1
    68    65    64    1
    69   113   112    1
    70   113   114    1
    71   121   122    1
    72   121   120    1
    73    82    81    2
    74     7     6   ar
    75     7     9   ar
    76    53    52    1
    77    97    98   ar
    78    97    96    1
    79     6     8   ar
    80    21    20    1
    81    21    24    1
    82   122   123    2
    83    26    25    2
    84   105   106    1
    85   105   104    1
    86   114   115    2
    87    91    89   am
    88    81    83   am
    89    81    80    1
    90     9    11   ar
    91   106   107    2
    92    95    94    2
    93    52    54    1
    94    52    49    1
    95   104    94   am
    96    96    93    1
    97     8    10   ar
    98    63    61   ar
    99    25    24    1
   100    25    27   am
   101    94    93    1
   102    62    61   ar
   103    48    49    1
   104    89    90    2
   105    89    88    1
   106    11    10   ar
   107    80    79    1
   108    61    60    1
   109    93    92    1
   110    79    76    1
   111    78    77    2
   112    49    50    1
   113    88    85    1
   114    51    50    2
   115    77    76    1
   116    76    75    1
   117    60    57    1
   118    84    85    1
   119    85    86    1
   120    57    56    1
   121    57    58    1
   122    86    87    2
   123    58    59    2
