@<TRIPOS>MOLECULE
tmp/4x5qA00.pdb
 126 120 0 0 0
SMALL
GASTEIGER

@<TRIPOS>ATOM
      1  N        -24.6380   -5.0110   -8.7240 N.3     1  PHE1       -0.1241
      2  CA       -23.6800   -4.2930   -7.8470 C.3     1  PHE1        0.1605
      3  C        -22.4510   -3.9230   -8.6760 C.2     1  PHE1        0.2264
      4  O        -21.8550   -4.7770   -9.3110 O.2     1  PHE1       -0.2867
      5  CB       -23.2700   -5.1600   -6.6670 C.3     1  PHE1        0.0534
      6  CG       -22.3160   -4.4820   -5.7390 C.ar    1  PHE1       -0.0203
      7  CD1      -20.9470   -4.5850   -5.9440 C.ar    1  PHE1       -0.0042
      8  CD2      -22.7770   -3.7380   -4.6730 C.ar    1  PHE1       -0.0042
      9  CE1      -20.0610   -3.9760   -5.1010 C.ar    1  PHE1       -0.0003
     10  CE2      -21.8790   -3.1160   -3.8210 C.ar    1  PHE1       -0.0003
     11  CZ       -20.5160   -3.2430   -4.0250 C.ar    1  PHE1       -0.0000
     12  N        -20.2990   -5.0870  -12.6930 N.3    13  ILE13      -0.1245
     13  CA       -20.8240   -6.3470  -12.1680 C.3    13  ILE13       0.1561
     14  C        -19.7900   -7.4330  -12.3700 C.2    13  ILE13       0.2260
     15  O        -19.2030   -7.5560  -13.4570 O.2    13  ILE13      -0.2867
     16  CB       -22.1160   -6.7280  -12.9110 C.3    13  ILE13       0.0252
     17  CG1      -23.2680   -5.8550  -12.4170 C.3    13  ILE13       0.0019
     18  CG2      -22.4340   -8.2240  -12.7750 C.3    13  ILE13       0.0019
     19  CD1      -24.5960   -6.0960  -13.1490 C.3    13  ILE13       0.0001
     20  N        -26.2280   -0.8780   -5.4940 N.3    46  ASN46      -0.1225
     21  CA       -27.0040   -2.1060   -5.7360 C.3    46  ASN46       0.1785
     22  C        -27.8460   -1.8970   -7.0040 C.2    46  ASN46       0.2597
     23  O        -28.5000   -0.8530   -7.1670 O.2    46  ASN46      -0.2718
     24  CB       -27.8680   -2.3370   -4.4900 C.3    46  ASN46       0.1169
     25  CG       -28.7780   -3.5300   -4.5480 C.2    46  ASN46       0.2627
     26  OD1      -29.2760   -3.9420   -5.5950 O.2    46  ASN46      -0.2716
     27  ND2      -29.0580   -4.0800   -3.3700 N.am   46  ASN46      -0.0877
     28  N        -27.7600   -2.8480   -7.9410 N.am   47  ASP47      -0.1960
     29  CA       -28.4470   -2.7350   -9.2200 C.3    47  ASP47       0.1840
     30  C        -29.8920   -3.2240   -9.2340 C.2    47  ASP47       0.2622
     31  O        -30.5720   -3.0310  -10.2400 O.2    47  ASP47      -0.2715
     32  CB       -27.6390   -3.4740  -10.2860 C.3    47  ASP47       0.1450
     33  CG       -26.4170   -2.7000  -10.7150 C.2    47  ASP47       0.3671
     34  OD1      -26.5770   -1.5200  -11.0810 O.co2  47  ASP47      -0.2456
     35  OD2      -25.2920   -3.2530  -10.6790 O.co2  47  ASP47      -0.2456
     36  N        -30.3590   -3.8650   -8.1640 N.am   48  TYR48      -0.1974
     37  CA       -31.7530   -4.3050   -8.1400 C.3    48  TYR48       0.1639
     38  C        -32.2380   -4.3740   -6.7020 C.2    48  TYR48       0.2290
     39  O        -32.5880   -5.4310   -6.1860 O.2    48  TYR48      -0.2864
     40  CB       -31.9320   -5.6230   -8.8880 C.3    48  TYR48       0.0560
     41  CG       -33.3410   -5.7950   -9.3860 C.ar   48  TYR48      -0.0198
     42  CD1      -33.8200   -5.0470  -10.4430 C.ar   48  TYR48      -0.0009
     43  CD2      -34.2070   -6.6690   -8.7840 C.ar   48  TYR48      -0.0009
     44  CE1      -35.1300   -5.1720  -10.8880 C.ar   48  TYR48       0.0417
     45  CE2      -35.5120   -6.8080   -9.2130 C.ar   48  TYR48       0.0417
     46  CZ       -35.9620   -6.0630  -10.2750 C.ar   48  TYR48       0.1957
     47  OH       -37.2500   -6.1820  -10.7300 O.3    48  TYR48      -0.2866
     48  N        -35.4840   -6.2310   -4.8850 N.3    51  THR51      -0.1203
     49  CA       -35.5120   -7.6160   -4.4080 C.3    51  THR51       0.1994
     50  C        -34.2140   -8.1400   -3.8170 C.2    51  THR51       0.2617
     51  O        -34.2390   -9.1410   -3.1020 O.2    51  THR51      -0.2717
     52  CB       -36.0070   -8.5920   -5.4930 C.3    51  THR51       0.1784
     53  OG1      -35.0810   -8.6560   -6.5610 O.3    51  THR51      -0.2211
     54  CG2      -37.2960   -8.1370   -6.0530 C.3    51  THR51       0.0376
     55  N        -33.0950   -7.5010   -4.1150 N.am   52  ILE52      -0.1979
     56  CA       -31.8060   -8.0300   -3.7010 C.3    52  ILE52       0.1595
     57  C        -31.1670   -7.1230   -2.6760 C.2    52  ILE52       0.2287
     58  O        -31.1970   -5.8910   -2.8260 O.2    52  ILE52      -0.2864
     59  CB       -30.8700   -8.1740   -4.9200 C.3    52  ILE52       0.0276
     60  CG1      -31.5300   -9.0320   -5.9830 C.3    52  ILE52       0.0022
     61  CG2      -29.5230   -8.7280   -4.4970 C.3    52  ILE52       0.0022
     62  CD1      -30.6920   -9.2210   -7.2490 C.3    52  ILE52       0.0001
     63  N        -27.3930   -6.4570   -1.1390 N.3    54  ASP54      -0.1239
     64  CA       -25.9640   -6.6950   -1.3250 C.3    54  ASP54       0.1674
     65  C        -25.2200   -6.5340   -0.0080 C.2    54  ASP54       0.2266
     66  O        -25.5230   -5.6400    0.8070 O.2    54  ASP54      -0.2867
     67  CB       -25.4090   -5.7120   -2.3620 C.3    54  ASP54       0.1410
     68  CG       -25.8810   -6.0080   -3.7650 C.2    54  ASP54       0.3668
     69  OD1      -26.0540   -7.2040   -4.0750 O.co2  54  ASP54      -0.2456
     70  OD2      -26.0410   -5.0480   -4.5490 O.co2  54  ASP54      -0.2456
     71  N        -18.0910   -8.7560   -2.3830 N.3   133  GLN133     -0.1245
     72  CA       -19.5190   -8.5500   -2.5230 C.3   133  GLN133      0.1566
     73  C        -20.2510   -9.8690   -2.7290 C.2   133  GLN133      0.2260
     74  O        -19.9360  -10.6560   -3.6250 O.2   133  GLN133     -0.2867
     75  CB       -19.8160   -7.5800   -3.6700 C.3   133  GLN133      0.0367
     76  CG       -21.3220   -7.3890   -3.9230 C.3   133  GLN133      0.0905
     77  CD       -21.8000   -8.0380   -5.2010 C.2   133  GLN133      0.2608
     78  OE1      -21.1010   -8.0340   -6.2210 O.2   133  GLN133     -0.2717
     79  NE2      -23.0090   -8.5930   -5.1600 N.am  133  GLN133     -0.0878
     80  N        -24.6350  -11.4370   -1.8100 N.3   135  ASN135     -0.1240
     81  CA       -26.0080  -10.9600   -1.7300 C.3   135  ASN135      0.1653
     82  C        -26.8910  -12.0260   -1.0620 C.2   135  ASN135      0.2266
     83  O        -26.3840  -13.0760   -0.6310 O.2   135  ASN135     -0.2867
     84  CB       -26.5200  -10.5730   -3.1140 C.3   135  ASN135      0.1155
     85  CG       -26.5010  -11.7430   -4.0600 C.2   135  ASN135      0.2627
     86  OD1      -26.9360  -12.8350   -3.6730 O.2   135  ASN135     -0.2716
     87  ND2      -26.0200  -11.5540   -5.2710 N.am  135  ASN135     -0.0877
     88  N        -29.5320  -13.3530   -2.6930 N.3   137  TYR137     -0.1227
     89  CA       -30.3210  -13.7120   -3.8470 C.3   137  TYR137      0.1736
     90  C        -29.7920  -14.9410   -4.5940 C.2   137  TYR137      0.2595
     91  O        -30.5770  -15.8070   -4.9800 O.2   137  TYR137     -0.2718
     92  CB       -30.4160  -12.5020   -4.7660 C.3   137  TYR137      0.0548
     93  CG       -31.2930  -12.7310   -5.9270 C.ar  137  TYR137     -0.0200
     94  CD1      -32.6680  -12.8410   -5.7610 C.ar  137  TYR137     -0.0009
     95  CD2      -30.7600  -12.8330   -7.1970 C.ar  137  TYR137     -0.0009
     96  CE1      -33.4960  -13.0630   -6.8140 C.ar  137  TYR137      0.0417
     97  CE2      -31.5950  -13.0510   -8.2810 C.ar  137  TYR137      0.0417
     98  CZ       -32.9560  -13.1290   -8.0680 C.ar  137  TYR137      0.1957
     99  OH       -33.8070  -13.3670   -9.0980 O.3   137  TYR137     -0.2866
    100  N        -28.4770  -14.9700   -4.8390 N.am  138  ASN138     -0.1974
    101  CA       -27.8020  -16.0300   -5.5610 C.3   138  ASN138      0.1688
    102  C        -26.4580  -16.3150   -4.8970 C.2   138  ASN138      0.2292
    103  O        -26.2350  -15.8970   -3.7650 O.2   138  ASN138     -0.2864
    104  CB       -27.6900  -15.6890   -7.0510 C.3   138  ASN138      0.1181
    105  CG       -26.8490  -14.4500   -7.2950 C.2   138  ASN138      0.2629
    106  OD1      -25.9770  -14.1290   -6.5190 O.2   138  ASN138     -0.2716
    107  ND2      -27.0960  -13.7520   -8.3790 N.am  138  ASN138     -0.0877
    108  N        -23.4270  -15.3460   -6.0160 N.3   140  ASP140     -0.1239
    109  CA       -22.3530  -14.4490   -6.4270 C.3   140  ASP140      0.1674
    110  C        -21.4360  -14.1370   -5.2530 C.2   140  ASP140      0.2266
    111  O        -21.8710  -13.8310   -4.1470 O.2   140  ASP140     -0.2867
    112  CB       -22.9130  -13.1460   -6.9720 C.3   140  ASP140      0.1410
    113  CG       -23.6670  -13.2840   -8.2710 C.2   140  ASP140      0.3668
    114  OD1      -23.5980  -14.3440   -8.9180 O.co2 140  ASP140     -0.2456
    115  OD2      -24.2920  -12.2610   -8.6670 O.co2 140  ASP140     -0.2456
    116  N        -17.9480  -11.8710   -5.3930 N.3   142  PHE142     -0.1241
    117  CA       -17.0780  -11.1540   -6.2980 C.3   142  PHE142      0.1605
    118  C        -16.0800  -10.2780   -5.5470 C.2   142  PHE142      0.2264
    119  O        -16.3960   -9.7020   -4.5070 O.2   142  PHE142     -0.2867
    120  CB       -17.9000  -10.2620   -7.2270 C.3   142  PHE142      0.0534
    121  CG       -18.8520  -10.9960   -8.1340 C.ar  142  PHE142     -0.0203
    122  CD1      -18.4400  -12.1080   -8.8700 C.ar  142  PHE142     -0.0042
    123  CD2      -20.1500  -10.5420   -8.3040 C.ar  142  PHE142     -0.0042
    124  CE1      -19.3330  -12.7370   -9.7530 C.ar  142  PHE142     -0.0003
    125  CE2      -21.0150  -11.1650   -9.1810 C.ar  142  PHE142     -0.0003
    126  CZ       -20.6050  -12.2500   -9.9030 C.ar  142  PHE142     -0.0000
@<TRIPOS>BOND
     1    15    14    2
     2    19    17    1
     3    16    18    1
     4    16    17    1
     5    16    13    1
     6    12    13    1
     7    14    13    1
     8    34    33   ar
     9    44    42   ar
    10    44    46   ar
    11    47    46    1
    12    33    35   ar
    13    33    32    1
    14    42    41   ar
    15    32    29    1
    16    46    45   ar
    17    31    30    2
    18   126   124   ar
    19   126   125   ar
    20   124   122   ar
    21    41    40    1
    22    41    43   ar
    23     4     3    2
    24    30    29    1
    25    30    36   am
    26    29    28    1
    27    45    43   ar
    28   125   123   ar
    29    99    98    1
    30   114   113   ar
    31    40    37    1
    32   122   121   ar
    33     1     2    1
    34     3     2    1
    35   115   113   ar
    36   107   105   am
    37   123   121   ar
    38    97    98   ar
    39    97    95   ar
    40   113   112    1
    41    36    37    1
    42    37    38    1
    43   121   120    1
    44    98    96   ar
    45    28    22   am
    46     2     5    1
    47   105   104    1
    48   105   106    2
    49    62    60    1
    50   120   117    1
    51    95    93   ar
    52    23    22    2
    53   104   101    1
    54    22    21    1
    55   112   109    1
    56    96    94   ar
    57    38    39    2
    58     5     6    1
    59    53    52    1
    60   109   108    1
    61   109   110    1
    62   117   118    1
    63   117   116    1
    64    78    77    2
    65    54    52    1
    66    60    59    1
    67     7     6   ar
    68     7     9   ar
    69    93    94   ar
    70    93    92    1
    71     6     8   ar
    72    21    20    1
    73    21    24    1
    74    26    25    2
    75   101   102    1
    76   101   100    1
    77   118   119    2
    78    52    49    1
    79    87    85   am
    80   110   111    2
    81    77    79   am
    82    77    76    1
    83     9    11   ar
    84    91    90    2
    85    59    61    1
    86    59    56    1
    87   102   103    2
    88    48    49    1
    89   100    90   am
    90    92    89    1
    91     8    10   ar
    92    90    89    1
    93    70    68   ar
    94    25    24    1
    95    25    27   am
    96    49    50    1
    97    55    50   am
    98    55    56    1
    99    69    68   ar
   100    85    86    2
   101    85    84    1
   102    11    10   ar
   103    76    75    1
   104    89    88    1
   105    50    51    2
   106    68    67    1
   107    56    57    1
   108    75    72    1
   109    74    73    2
   110    84    81    1
   111    58    57    2
   112    73    72    1
   113    72    71    1
   114    67    64    1
   115    80    81    1
   116    81    82    1
   117    64    63    1
   118    64    65    1
   119    82    83    2
   120    65    66    2
