@<TRIPOS>MOLECULE
tmp/4x5rA00.pdb
 139 131 0 0 0
SMALL
GASTEIGER

@<TRIPOS>ATOM
      1  N         13.3010   11.5550  -15.0920 N.3     1  PHE1       -0.1241
      2  CA        14.0850   10.4360  -14.4870 C.3     1  PHE1        0.1605
      3  C         13.9210    9.1850  -15.3490 C.2     1  PHE1        0.2264
      4  O         12.8010    8.7490  -15.5950 O.2     1  PHE1       -0.2867
      5  CB        13.6200   10.1710  -13.0550 C.3     1  PHE1        0.0534
      6  CG        14.4030    9.0820  -12.3590 C.ar    1  PHE1       -0.0203
      7  CD1       15.5940    9.3680  -11.6910 C.ar    1  PHE1       -0.0042
      8  CD2       13.9840    7.7790  -12.4360 C.ar    1  PHE1       -0.0042
      9  CE1       16.3340    8.3410  -11.0680 C.ar    1  PHE1       -0.0003
     10  CE2       14.6870    6.7670  -11.8300 C.ar    1  PHE1       -0.0003
     11  CZ        15.8770    7.0410  -11.1440 C.ar    1  PHE1       -0.0000
     12  N         10.8950    7.3800  -18.5620 N.3    13  ILE13      -0.1245
     13  CA        10.0840    8.1530  -17.6420 C.3    13  ILE13       0.1561
     14  C          8.7630    7.4450  -17.3840 C.2    13  ILE13       0.2260
     15  O          8.0990    6.9950  -18.3280 O.2    13  ILE13      -0.2867
     16  CB         9.8230    9.5510  -18.2040 C.3    13  ILE13       0.0252
     17  CG1       11.1110   10.3650  -18.0950 C.3    13  ILE13       0.0019
     18  CG2        8.6910   10.2720  -17.4570 C.3    13  ILE13       0.0019
     19  CD1       11.0650   11.7120  -18.8170 C.3    13  ILE13       0.0001
     20  N         18.5810   12.2190  -13.6690 N.3    46  ASN46      -0.1225
     21  CA        17.5620   13.2250  -13.4930 C.3    46  ASN46       0.1785
     22  C         17.4140   14.0370  -14.7960 C.2    46  ASN46       0.2597
     23  O         18.4260   14.4840  -15.3530 O.2    46  ASN46      -0.2718
     24  CB        17.9870   14.0810  -12.2890 C.3    46  ASN46       0.1169
     25  CG        17.0190   15.2070  -11.9480 C.2    46  ASN46       0.2627
     26  OD1       16.3320   15.7550  -12.8110 O.2    46  ASN46      -0.2716
     27  ND2       17.0060   15.5940  -10.6690 N.am   46  ASN46      -0.0877
     28  N         16.1800   14.1650  -15.2980 N.am   47  ASP47      -0.1960
     29  CA        15.9180   14.8470  -16.5720 C.3    47  ASP47       0.1840
     30  C         15.6690   16.3690  -16.4390 C.2    47  ASP47       0.2622
     31  O         15.4380   17.0290  -17.4440 O.2    47  ASP47      -0.2715
     32  CB        14.7080   14.2130  -17.2940 C.3    47  ASP47       0.1450
     33  CG        15.0330   12.8620  -17.9400 C.2    47  ASP47       0.3671
     34  OD1       16.0220   12.7870  -18.7050 O.co2  47  ASP47      -0.2456
     35  OD2       14.2810   11.8770  -17.6730 O.co2  47  ASP47      -0.2456
     36  N         15.7200   16.9170  -15.2280 N.am   48  TYR48      -0.1974
     37  CA        15.4710   18.3570  -15.0170 C.3    48  TYR48       0.1639
     38  C         16.1570   18.8230  -13.7320 C.2    48  TYR48       0.2290
     39  O         15.5250   19.3860  -12.8590 O.2    48  TYR48      -0.2864
     40  CB        13.9550   18.6090  -14.9600 C.3    48  TYR48       0.0560
     41  CG        13.4460   20.0480  -15.0900 C.ar   48  TYR48      -0.0198
     42  CD1       14.2270   21.0660  -15.5960 C.ar   48  TYR48      -0.0009
     43  CD2       12.1540   20.3490  -14.6900 C.ar   48  TYR48      -0.0009
     44  CE1       13.7130   22.3760  -15.7090 C.ar   48  TYR48       0.0417
     45  CE2       11.6350   21.6280  -14.7960 C.ar   48  TYR48       0.0417
     46  CZ        12.4120   22.6280  -15.2950 C.ar   48  TYR48       0.1957
     47  OH        11.8590   23.8950  -15.3870 O.3    48  TYR48      -0.2866
     48  N         18.1740   21.1980  -12.7860 N.3    50  GLU50      -0.1245
     49  CA        18.2170   22.5990  -12.3810 C.3    50  GLU50       0.1567
     50  C         17.0340   23.0010  -11.5000 C.2    50  GLU50       0.2260
     51  O         17.1240   23.9760  -10.7680 O.2    50  GLU50      -0.2867
     52  CB        18.2590   23.5060  -13.6080 C.3    50  GLU50       0.0388
     53  CG        17.0810   23.3390  -14.5420 C.3    50  GLU50       0.1160
     54  CD        17.3930   22.4510  -15.7200 C.2    50  GLU50       0.3649
     55  OE1       17.9430   21.3480  -15.5030 O.co2  50  GLU50      -0.2457
     56  OE2       17.0950   22.8620  -16.8700 O.co2  50  GLU50      -0.2457
     57  N         14.4120   20.2290  -10.3360 N.3    52  ILE52      -0.1245
     58  CA        13.8450   19.0920   -9.6020 C.3    52  ILE52       0.1561
     59  C         14.9300   18.2270   -8.9550 C.2    52  ILE52       0.2260
     60  O         15.9560   17.9980   -9.5670 O.2    52  ILE52      -0.2867
     61  CB        13.0110   18.1880  -10.5490 C.3    52  ILE52       0.0252
     62  CG1       11.8880   19.0060  -11.1780 C.3    52  ILE52       0.0019
     63  CG2       12.4500   16.9490   -9.8030 C.3    52  ILE52       0.0019
     64  CD1       10.9360   18.2080  -12.1490 C.3    52  ILE52       0.0001
     65  N         15.3370   14.3470   -7.5540 N.3    54  ASP54      -0.1239
     66  CA        14.7220   13.0330   -7.6220 C.3    54  ASP54       0.1674
     67  C         15.1760   12.2230   -6.4250 C.2    54  ASP54       0.2266
     68  O         16.3130   12.3630   -5.9800 O.2    54  ASP54      -0.2867
     69  CB        15.0860   12.3170   -8.9170 C.3    54  ASP54       0.1410
     70  CG        14.3790   12.8970  -10.1400 C.2    54  ASP54       0.3668
     71  OD1       13.2020   13.3080  -10.0480 O.co2  54  ASP54      -0.2456
     72  OD2       15.0080   12.8620  -11.2140 O.co2  54  ASP54      -0.2456
     73  N         21.8180   15.2010  -14.8340 N.3    98  ARG98      -0.1245
     74  CA        21.5040   14.5690  -16.1110 C.3    98  ARG98       0.1563
     75  C         22.5420   13.5010  -16.4740 C.2    98  ARG98       0.2260
     76  O         22.2740   12.6500  -17.3070 O.2    98  ARG98      -0.2867
     77  CB        21.4370   15.6020  -17.2570 C.3    98  ARG98       0.0307
     78  CG        20.2090   16.4970  -17.2850 C.3    98  ARG98       0.0489
     79  CD        20.1020   17.3170  -18.6100 C.3    98  ARG98       0.2205
     80  NE        18.8830   18.1370  -18.6510 N.pl3  98  ARG98      -0.0865
     81  CZ        18.7640   19.3440  -18.0950 C.cat  98  ARG98       0.5346
     82  NH1       19.7870   19.8910  -17.4480 N.pl3  98  ARG98       0.1354
     83  NH2       17.6120   20.0170  -18.1800 N.pl3  98  ARG98       0.1354
     84  N         10.8760    5.6370   -7.6100 N.3   133  GLN133     -0.1245
     85  CA        11.3130    7.0050   -7.8200 C.3   133  GLN133      0.1566
     86  C         10.2190    8.0040   -7.5730 C.2   133  GLN133      0.2260
     87  O          9.1320    7.8860   -8.1270 O.2   133  GLN133     -0.2867
     88  CB        11.8500    7.1890   -9.2440 C.3   133  GLN133      0.0367
     89  CG        12.2530    8.6090   -9.5680 C.3   133  GLN133      0.0905
     90  CD        11.2800    9.2790  -10.5190 C.2   133  GLN133      0.2608
     91  OE1       10.7390    8.6420  -11.4250 O.2   133  GLN133     -0.2717
     92  NE2       11.0600   10.5710  -10.3230 N.am  133  GLN133     -0.0878
     93  N         10.0010   12.6050   -6.3190 N.3   135  ASN135     -0.1240
     94  CA        10.7060   13.8710   -6.4890 C.3   135  ASN135      0.1653
     95  C         10.1650   14.9160   -5.5360 C.2   135  ASN135      0.2266
     96  O          9.2770   14.6310   -4.7580 O.2   135  ASN135     -0.2867
     97  CB        10.6010   14.3870   -7.9410 C.3   135  ASN135      0.1155
     98  CG         9.1640   14.6260   -8.3810 C.2   135  ASN135      0.2627
     99  OD1        8.3480   15.1720   -7.6380 O.2   135  ASN135     -0.2716
    100  ND2        8.8470   14.2160   -9.6010 N.am  135  ASN135     -0.0877
    101  N          8.8050   17.8240   -6.6490 N.3   137  TYR137     -0.1227
    102  CA         8.1230   18.7560   -7.5630 C.3   137  TYR137      0.1736
    103  C          6.6380   18.4500   -7.7420 C.2   137  TYR137      0.2595
    104  O          5.8050   19.3550   -7.8080 O.2   137  TYR137     -0.2718
    105  CB         8.8200   18.7350   -8.9260 C.3   137  TYR137      0.0548
    106  CG         8.3220   19.7550   -9.9330 C.ar  137  TYR137     -0.0200
    107  CD1        8.6630   21.1040   -9.8170 C.ar  137  TYR137     -0.0009
    108  CD2        7.5370   19.3640  -11.0190 C.ar  137  TYR137     -0.0009
    109  CE1        8.2290   22.0340  -10.7540 C.ar  137  TYR137      0.0417
    110  CE2        7.0940   20.2820  -11.9500 C.ar  137  TYR137      0.0417
    111  CZ         7.4420   21.6180  -11.8160 C.ar  137  TYR137      0.1957
    112  OH         7.0010   22.5350  -12.7520 O.3   137  TYR137     -0.2866
    113  N          6.3090   17.1700   -7.8660 N.am  138  ASN138     -0.1974
    114  CA         4.9180   16.7610   -8.0410 C.3   138  ASN138      0.1688
    115  C          4.6440   15.4200   -7.3760 C.2   138  ASN138      0.2292
    116  O          5.4300   14.9600   -6.5240 O.2   138  ASN138     -0.2864
    117  CB         4.5610   16.7240   -9.5420 C.3   138  ASN138      0.1181
    118  CG         5.4080   15.7430  -10.3220 C.2   138  ASN138      0.2629
    119  OD1        5.9130   14.7830   -9.7700 O.2   138  ASN138     -0.2716
    120  ND2        5.5670   15.9860  -11.6210 N.am  138  ASN138     -0.0877
    121  N          4.5690   12.4100   -8.6570 N.3   140  ASP140     -0.1239
    122  CA         5.0700   11.2280   -9.3510 C.3   140  ASP140      0.1674
    123  C          5.5710   10.1440   -8.3960 C.2   140  ASP140      0.2266
    124  O          6.2990   10.4240   -7.4330 O.2   140  ASP140     -0.2867
    125  CB         6.2170   11.5740  -10.2940 C.3   140  ASP140      0.1410
    126  CG         5.7980   12.4260  -11.4980 C.2   140  ASP140      0.3668
    127  OD1        4.5840   12.5960  -11.7720 O.co2 140  ASP140     -0.2456
    128  OD2        6.7280   12.9150  -12.1770 O.co2 140  ASP140     -0.2456
    129  N          6.9000    6.2180   -9.2240 N.3   142  PHE142     -0.1241
    130  CA         7.0970    5.3440  -10.3640 C.3   142  PHE142      0.1605
    131  C          7.9680    4.1650   -9.9810 C.2   142  PHE142      0.2264
    132  O          8.9120    4.2970   -9.1860 O.2   142  PHE142     -0.2867
    133  CB         7.7590    6.0800  -11.5260 C.3   142  PHE142      0.0534
    134  CG         6.9330    7.1810  -12.1350 C.ar  142  PHE142     -0.0203
    135  CD1        5.5930    6.9960  -12.4180 C.ar  142  PHE142     -0.0042
    136  CD2        7.5210    8.3940  -12.4510 C.ar  142  PHE142     -0.0042
    137  CE1        4.8550    7.9910  -12.9970 C.ar  142  PHE142     -0.0003
    138  CE2        6.7870    9.4040  -13.0370 C.ar  142  PHE142     -0.0003
    139  CZ         5.4580    9.2100  -13.3050 C.ar  142  PHE142     -0.0000
@<TRIPOS>BOND
     1    19    17    1
     2    34    33   ar
     3    80    79    1
     4    80    81    2
     5    79    78    1
     6    12    13    1
     7    15    14    2
     8    16    17    1
     9    16    13    1
    10    16    18    1
    11    83    81    1
    12    81    82    1
    13    33    35   ar
    14    33    32    1
    15    13    14    1
    16    31    30    2
    17    76    75    2
    18    32    29    1
    19    78    77    1
    20    77    74    1
    21    56    54   ar
    22    29    30    1
    23    29    28    1
    24    75    74    1
    25    30    36   am
    26    74    73    1
    27    54    55   ar
    28    54    53    1
    29    44    42   ar
    30    44    46   ar
    31    42    41   ar
    32     4     3    2
    33    47    46    1
    34    23    22    2
    35     3     2    1
    36    28    22   am
    37    46    45   ar
    38    36    37    1
    39     1     2    1
    40    41    40    1
    41    41    43   ar
    42    37    40    1
    43    37    38    1
    44    22    21    1
    45    45    43   ar
    46    53    52    1
    47     2     5    1
    48    38    39    2
    49    20    21    1
    50    52    49    1
    51    21    24    1
    52   139   138   ar
    53   139   137   ar
    54     5     6    1
    55   138   136   ar
    56   137   135   ar
    57    26    25    2
    58    48    49    1
    59   112   111    1
    60   136   134   ar
    61     8     6   ar
    62     8    10   ar
    63   135   134   ar
    64    49    50    1
    65     6     7   ar
    66    24    25    1
    67   128   126   ar
    68    64    62    1
    69   134   133    1
    70   110   111   ar
    71   110   108   ar
    72    25    27   am
    73    10    11   ar
    74   111   109   ar
    75   127   126   ar
    76     7     9   ar
    77   120   118   am
    78   133   130    1
    79    50    51    2
    80   126   125    1
    81    91    90    2
    82    72    70   ar
    83    62    61    1
    84    11     9   ar
    85   108   106   ar
    86   109   107   ar
    87    61    63    1
    88    61    58    1
    89    90    92   am
    90    90    89    1
    91   130   131    1
    92   130   129    1
    93    57    58    1
    94   118   119    2
    95   118   117    1
    96   125   122    1
    97    70    71   ar
    98    70    69    1
    99   131   132    2
   100   106   107   ar
   101   106   105    1
   102    58    59    1
   103   100    98   am
   104    89    88    1
   105    60    59    2
   106   117   114    1
   107   122   121    1
   108   122   123    1
   109    88    85    1
   110   105   102    1
   111    69    66    1
   112   123   124    2
   113    98    97    1
   114    98    99    2
   115    87    86    2
   116   114   113    1
   117   114   115    1
   118    97    94    1
   119   113   103   am
   120    85    84    1
   121    85    86    1
   122   104   103    2
   123   103   102    1
   124    66    65    1
   125    66    67    1
   126   102   101    1
   127   115   116    2
   128    94    93    1
   129    94    95    1
   130    67    68    2
   131    95    96    2
