@<TRIPOS>MOLECULE
tmp/4x5sA01.pdb
 128 121 0 0 0
SMALL
GASTEIGER

@<TRIPOS>ATOM
      1  N          1.0760   76.6580   53.5800 N.3    69  VAL69      -0.1231
      2  CA         1.4830   75.6860   54.5850 C.3    69  VAL69       0.1692
      3  C          2.6660   76.1630   55.4280 C.2    69  VAL69       0.2592
      4  O          3.5410   76.8810   54.9400 O.2    69  VAL69      -0.2718
      5  CB         1.8510   74.3370   53.9250 C.3    69  VAL69       0.0266
      6  CG1        0.6850   73.8320   53.0910 C.3    69  VAL69       0.0020
      7  CG2        3.0900   74.4910   53.0770 C.3    69  VAL69       0.0020
      8  N          2.6840   75.7600   56.6960 N.am   70  LEU70      -0.1966
      9  CA         3.7620   76.1280   57.6080 C.3    70  LEU70       0.1728
     10  C          4.9060   75.1040   57.5750 C.2    70  LEU70       0.2616
     11  O          6.0670   75.4600   57.7480 O.2    70  LEU70      -0.2715
     12  CB         3.2170   76.2410   59.0310 C.3    70  LEU70       0.0311
     13  CG         2.0460   77.2260   59.1790 C.3    70  LEU70       0.0022
     14  CD1        1.4400   77.1360   60.5800 C.3    70  LEU70       0.0001
     15  CD2        2.5410   78.6370   58.8910 C.3    70  LEU70       0.0001
     16  N          4.5760   73.8320   57.3580 N.am   71  GLU71      -0.1963
     17  CA         5.5850   72.7770   57.3160 C.3    71  GLU71       0.1733
     18  C          6.5410   72.9450   56.1410 C.2    71  GLU71       0.2616
     19  O          6.3610   73.8290   55.3020 O.2    71  GLU71      -0.2715
     20  CB         4.9240   71.3930   57.2130 C.3    71  GLU71       0.0429
     21  CG         4.0810   70.9580   58.4110 C.3    71  GLU71       0.1163
     22  CD         2.7750   71.7190   58.5330 C.2    71  GLU71       0.3649
     23  OE1        2.3560   72.3570   57.5360 O.co2  71  GLU71      -0.2457
     24  OE2        2.1600   71.6650   59.6270 O.co2  71  GLU71      -0.2457
     25  N          7.5550   72.0850   56.0820 N.am   72  ASP72      -0.1971
     26  CA         8.5360   72.1400   55.0080 C.3    72  ASP72       0.1709
     27  C          8.5220   70.8080   54.2850 C.2    72  ASP72       0.2293
     28  O          9.2760   69.8990   54.6270 O.2    72  ASP72      -0.2864
     29  CB         9.9360   72.4240   55.5730 C.3    72  ASP72       0.1436
     30  CG        11.0080   72.4780   54.4950 C.2    72  ASP72       0.3671
     31  OD1       12.1880   72.6860   54.8360 O.co2  72  ASP72      -0.2456
     32  OD2       10.6750   72.3100   53.3090 O.co2  72  ASP72      -0.2456
     33  N         10.7020   73.2200   47.7470 N.3    83  HIS83      -0.1226
     34  CA         9.9400   73.1660   48.9910 C.3    83  HIS83       0.1752
     35  C          8.5260   73.6520   48.7150 C.2    83  HIS83       0.2596
     36  O          8.3350   74.6880   48.0820 O.2    83  HIS83      -0.2718
     37  CB        10.5920   74.0450   50.0510 C.3    83  HIS83       0.0759
     38  CG        11.9750   73.6090   50.4090 C.ar   83  HIS83       0.0818
     39  ND1       12.2630   72.9060   51.5600 N.ar   83  HIS83      -0.2268
     40  CD2       13.1490   73.7360   49.7430 C.ar   83  HIS83       0.1154
     41  CE1       13.5520   72.6210   51.5890 C.ar   83  HIS83       0.1986
     42  NE2       14.1140   73.1120   50.4990 N.ar   83  HIS83      -0.2212
     43  N          7.5410   72.8870   49.1730 N.am   84  LEU84      -0.1966
     44  CA         6.1470   73.2510   48.9790 C.3    84  LEU84       0.1728
     45  C          5.8680   74.5400   49.7270 C.2    84  LEU84       0.2616
     46  O          6.2670   74.6940   50.8800 O.2    84  LEU84      -0.2715
     47  CB         5.2110   72.1580   49.5040 C.3    84  LEU84       0.0311
     48  CG         3.7130   72.5170   49.4420 C.3    84  LEU84       0.0022
     49  CD1        3.3010   72.6530   47.9900 C.3    84  LEU84       0.0001
     50  CD2        2.8600   71.4520   50.1320 C.3    84  LEU84       0.0001
     51  N          5.1940   75.4690   49.0640 N.am   85  LYS85      -0.1963
     52  CA         4.8600   76.7340   49.6930 C.3    85  LYS85       0.1728
     53  C          3.3450   76.8780   49.8860 C.2    85  LYS85       0.2616
     54  O          2.8780   77.3530   50.9310 O.2    85  LYS85      -0.2715
     55  CB         5.3870   77.8990   48.8490 C.3    85  LYS85       0.0311
     56  CG         6.9070   77.9600   48.7670 C.3    85  LYS85       0.0038
     57  CD         7.5120   78.2660   50.1490 C.3    85  LYS85       0.0206
     58  CE         9.0200   78.4550   50.0880 C.3    85  LYS85       0.1093
     59  NZ         9.5540   78.8430   51.4280 N.3    85  LYS85      -0.1314
     60  N          2.5800   76.4610   48.8870 N.am   86  GLN86      -0.1977
     61  CA         1.1340   76.5870   48.9390 C.3    86  GLN86       0.1601
     62  C          0.4790   75.8510   47.7880 C.2    86  GLN86       0.2287
     63  O          1.1450   75.4760   46.8150 O.2    86  GLN86      -0.2864
     64  CB         0.7050   78.0750   48.8400 C.3    86  GLN86       0.0394
     65  CG         1.3630   78.8620   47.6730 C.3    86  GLN86       0.0908
     66  CD         0.4990   78.9930   46.3870 C.2    86  GLN86       0.2608
     67  OE1       -0.4290   78.2210   46.1470 O.2    86  GLN86      -0.2717
     68  NE2        0.8460   79.9680   45.5500 N.am   86  GLN86      -0.0878
     69  N          2.3990   74.6540   44.5720 N.3   109  VAL109     -0.1245
     70  CA         3.5070   75.5240   44.2050 C.3   109  VAL109      0.1561
     71  C          4.7290   75.3460   45.1070 C.2   109  VAL109      0.2260
     72  O          4.6450   75.5440   46.3110 O.2   109  VAL109     -0.2867
     73  CB         3.0360   77.0050   44.2270 C.3   109  VAL109      0.0252
     74  CG1        4.1490   77.9210   43.7720 C.3   109  VAL109      0.0019
     75  CG2        1.8090   77.1690   43.3010 C.3   109  VAL109      0.0019
     76  N          9.1550   75.9930   45.6220 N.3   111  LYS111     -0.1231
     77  CA        10.2550   76.8840   45.2700 C.3   111  LYS111      0.1693
     78  C         11.5340   76.3770   45.9320 C.2   111  LYS111      0.2592
     79  O         11.4970   75.9280   47.0780 O.2   111  LYS111     -0.2718
     80  CB         9.9520   78.3120   45.7310 C.3   111  LYS111      0.0285
     81  CG        10.9090   79.3250   45.1260 C.3   111  LYS111      0.0035
     82  CD        10.2110   80.6670   44.8160 C.3   111  LYS111      0.0206
     83  CE         9.8220   81.4010   46.0570 C.3   111  LYS111      0.1093
     84  NZ         9.1090   82.6800   45.7380 N.3   111  LYS111     -0.1314
     85  N         12.6540   76.4010   45.2170 N.am  112  ASP112     -0.1960
     86  CA        13.9030   75.9440   45.8370 C.3   112  ASP112      0.1840
     87  C         14.6550   77.1310   46.4240 C.2   112  ASP112      0.2621
     88  O         14.1710   78.2630   46.3740 O.2   112  ASP112     -0.2715
     89  CB        14.7760   75.1540   44.8500 C.3   112  ASP112      0.1450
     90  CG        15.4680   76.0290   43.8130 C.2   112  ASP112      0.3671
     91  OD1       15.3140   77.2640   43.8340 O.co2 112  ASP112     -0.2456
     92  OD2       16.1800   75.4600   42.9690 O.co2 112  ASP112     -0.2456
     93  N         15.8220   76.8670   47.0070 N.am  113  LYS113     -0.1977
     94  CA        16.6230   77.9200   47.6400 C.3   113  LYS113      0.1596
     95  C         17.0160   79.0590   46.7170 C.2   113  LYS113      0.2287
     96  O         17.3400   80.1570   47.1820 O.2   113  LYS113     -0.2864
     97  CB        17.8920   77.3180   48.2450 C.3   113  LYS113      0.0298
     98  CG        18.8070   76.7260   47.2010 C.3   113  LYS113      0.0038
     99  CD        20.0190   76.0520   47.8160 C.3   113  LYS113      0.0206
    100  CE        20.9510   75.5460   46.7220 C.3   113  LYS113      0.1093
    101  NZ        22.1210   74.8450   47.3160 N.3   113  LYS113     -0.1314
    102  N         14.9810   80.2520   44.2680 N.3   115  GLY115     -0.1225
    103  CA        13.8160   80.9030   43.6910 C.3   115  GLY115      0.1811
    104  C         13.2300   80.1510   42.4950 C.2   115  GLY115      0.2280
    105  O         12.2910   80.6210   41.8610 O.2   115  GLY115     -0.2866
    106  N         10.9810   77.6320   40.5070 N.3   117  ILE117     -0.1245
    107  CA         9.6430   77.1500   40.8060 C.3   117  ILE117      0.1561
    108  C          9.2450   75.8530   40.0970 C.2   117  ILE117      0.2260
    109  O          9.5640   75.6310   38.9260 O.2   117  ILE117     -0.2867
    110  CB         8.6130   78.2450   40.4380 C.3   117  ILE117      0.0252
    111  CG1        8.9230   79.5170   41.2360 C.3   117  ILE117      0.0019
    112  CG2        7.1770   77.7560   40.7080 C.3   117  ILE117      0.0019
    113  CD1        8.0840   80.6970   40.8490 C.3   117  ILE117      0.0001
    114  N          4.3670   80.7320   35.1180 N.3   172  LEU172     -0.1245
    115  CA         3.3230   80.9270   36.1190 C.3   172  LEU172      0.1561
    116  C          2.1180   81.2800   35.2370 C.2   172  LEU172      0.2260
    117  O          2.2980   81.8420   34.1580 O.2   172  LEU172     -0.2867
    118  CB         3.6590   82.1100   37.0360 C.3   172  LEU172      0.0270
    119  CG         4.9100   81.9220   37.8970 C.3   172  LEU172      0.0019
    120  CD1        5.1660   83.2090   38.7050 C.3   172  LEU172      0.0001
    121  CD2        4.7080   80.7490   38.8450 C.3   172  LEU172      0.0001
    122  N          6.1520   84.5330   34.8930 N.3   178  THR178     -0.1218
    123  CA         7.5530   84.1770   34.8170 C.3   178  THR178      0.1862
    124  C          7.7530   82.7850   34.2240 C.2   178  THR178      0.2287
    125  O          7.0250   81.8530   34.5760 O.2   178  THR178     -0.2866
    126  CB         8.1650   84.1780   36.2250 C.3   178  THR178      0.1770
    127  OG1        7.7160   85.3410   36.9350 O.3   178  THR178     -0.2211
    128  CG2        9.6830   84.1770   36.1430 C.3   178  THR178      0.0375
@<TRIPOS>BOND
     1   117   116    2
     2   124   125    2
     3   124   123    1
     4   123   122    1
     5   123   126    1
     6   114   115    1
     7   116   115    1
     8   115   118    1
     9   128   126    1
    10   126   127    1
    11   118   119    1
    12   119   120    1
    13   119   121    1
    14   109   108    2
    15   108   107    1
    16   110   112    1
    17   110   107    1
    18   110   111    1
    19   106   107    1
    20   113   111    1
    21   105   104    2
    22   104   103    1
    23    92    90   ar
    24    75    73    1
    25   103   102    1
    26    74    73    1
    27    90    91   ar
    28    90    89    1
    29    70    73    1
    30    70    69    1
    31    70    71    1
    32    82    81    1
    33    82    83    1
    34    89    86    1
    35    71    72    2
    36    81    80    1
    37    85    86    1
    38    85    78   am
    39    77    76    1
    40    77    80    1
    41    77    78    1
    42    68    66   am
    43    84    83    1
    44    86    87    1
    45    78    79    2
    46    67    66    2
    47    88    87    2
    48    66    65    1
    49    87    93   am
    50    95    96    2
    51    95    94    1
    52   100   101    1
    53   100    99    1
    54    63    62    2
    55    93    94    1
    56    98    99    1
    57    98    97    1
    58    94    97    1
    59    65    64    1
    60    33    34    1
    61    62    61    1
    62    49    48    1
    63    36    35    2
    64    35    34    1
    65    35    43   am
    66    56    55    1
    67    56    57    1
    68    64    61    1
    69    55    52    1
    70    60    61    1
    71    60    53   am
    72    44    43    1
    73    44    47    1
    74    44    45    1
    75    34    37    1
    76    51    52    1
    77    51    45   am
    78    48    47    1
    79    48    50    1
    80    52    53    1
    81    45    46    2
    82    40    38   ar
    83    40    42   ar
    84    53    54    2
    85    37    38    1
    86    58    57    1
    87    58    59    1
    88    38    39   ar
    89    42    41   ar
    90    39    41   ar
    91     7     5    1
    92     6     5    1
    93    32    30   ar
    94     1     2    1
    95     5     2    1
    96    27    28    2
    97    27    26    1
    98    30    31   ar
    99    30    29    1
   100     2     3    1
   101     4     3    2
   102    26    29    1
   103    26    25    1
   104    19    18    2
   105     3     8   am
   106    25    18   am
   107    18    17    1
   108     8     9    1
   109    20    17    1
   110    20    21    1
   111    17    16    1
   112    16    10   am
   113    23    22   ar
   114    10     9    1
   115    10    11    2
   116     9    12    1
   117    21    22    1
   118    22    24   ar
   119    15    13    1
   120    12    13    1
   121    13    14    1
