@<TRIPOS>MOLECULE
tmp/4x5sA00.pdb
 120 117 0 0 0
SMALL
GASTEIGER

@<TRIPOS>ATOM
      1  N         -6.2920   80.0070   48.1690 N.3    66  GLN66      -0.1245
      2  CA        -4.9560   79.4660   48.3400 C.3    66  GLN66       0.1566
      3  C         -4.7110   79.0540   49.7750 C.2    66  GLN66       0.2260
      4  O         -5.1900   79.7080   50.7070 O.2    66  GLN66      -0.2867
      5  CB        -3.9540   80.5430   47.9140 C.3    66  GLN66       0.0367
      6  CG        -2.4900   80.1780   48.0350 C.3    66  GLN66       0.0905
      7  CD        -1.6140   81.3250   47.6020 C.2    66  GLN66       0.2608
      8  OE1       -1.9120   81.9780   46.6000 O.2    66  GLN66      -0.2717
      9  NE2       -0.5320   81.5850   48.3450 N.am   66  GLN66      -0.0878
     10  N          2.5800   76.4610   48.8870 N.3    86  GLN86      -0.1245
     11  CA         1.1340   76.5870   48.9390 C.3    86  GLN86       0.1566
     12  C          0.4790   75.8510   47.7880 C.2    86  GLN86       0.2260
     13  O          1.1450   75.4760   46.8150 O.2    86  GLN86      -0.2867
     14  CB         0.7050   78.0750   48.8400 C.3    86  GLN86       0.0367
     15  CG         1.3630   78.8620   47.6730 C.3    86  GLN86       0.0905
     16  CD         0.4990   78.9930   46.3870 C.2    86  GLN86       0.2608
     17  OE1       -0.4290   78.2210   46.1470 O.2    86  GLN86      -0.2717
     18  NE2        0.8460   79.9680   45.5500 N.am   86  GLN86      -0.0878
     19  N         -3.3480   75.9950   45.4600 N.3    88  HIS88      -0.1241
     20  CA        -4.5260   76.8030   45.1910 C.3    88  HIS88       0.1621
     21  C         -5.3300   76.1370   44.0900 C.2    88  HIS88       0.2264
     22  O         -4.9180   75.0950   43.5670 O.2    88  HIS88      -0.2867
     23  CB        -4.1260   78.2170   44.7710 C.3    88  HIS88       0.0745
     24  CG        -3.2700   78.2590   43.5550 C.ar   88  HIS88       0.0817
     25  ND1       -1.8960   78.2310   43.6210 N.ar   88  HIS88      -0.2268
     26  CD2       -3.5860   78.2740   42.2380 C.ar   88  HIS88       0.1154
     27  CE1       -1.3990   78.2280   42.3940 C.ar   88  HIS88       0.1986
     28  NE2       -2.4040   78.2500   41.5360 N.ar   88  HIS88      -0.2212
     29  N         -8.1150   76.2600   40.4630 N.3    90  HIS90      -0.1241
     30  CA        -8.6490   76.9280   39.2810 C.3    90  HIS90       0.1621
     31  C         -9.8520   76.1270   38.7920 C.2    90  HIS90       0.2264
     32  O         -9.8040   74.8960   38.7480 O.2    90  HIS90      -0.2867
     33  CB        -7.6200   77.0010   38.1460 C.3    90  HIS90       0.0745
     34  CG        -6.3870   77.7830   38.4800 C.ar   90  HIS90       0.0817
     35  ND1       -6.2310   79.1080   38.1310 N.ar   90  HIS90      -0.2268
     36  CD2       -5.2140   77.4030   39.0420 C.ar   90  HIS90       0.1154
     37  CE1       -5.0120   79.5070   38.4510 C.ar   90  HIS90       0.1986
     38  NE2       -4.3730   78.4900   39.0040 N.ar   90  HIS90      -0.2212
     39  N         -3.0980   73.3480   42.0840 N.3   107  HIS107     -0.1241
     40  CA        -1.6940   73.6300   41.8470 C.3   107  HIS107      0.1621
     41  C         -0.9450   73.6720   43.1670 C.2   107  HIS107      0.2264
     42  O         -1.2990   74.4260   44.0780 O.2   107  HIS107     -0.2867
     43  CB        -1.5250   74.9770   41.1010 C.3   107  HIS107      0.0745
     44  CG        -1.9650   74.9240   39.6690 C.ar  107  HIS107      0.0817
     45  ND1       -2.3030   76.0470   38.9510 N.ar  107  HIS107     -0.2268
     46  CD2       -2.1250   73.8760   38.8210 C.ar  107  HIS107      0.1154
     47  CE1       -2.6540   75.7020   37.7260 C.ar  107  HIS107      0.1986
     48  NE2       -2.5540   74.3880   37.6200 N.ar  107  HIS107     -0.2212
     49  N          2.3990   74.6540   44.5720 N.3   109  VAL109     -0.1245
     50  CA         3.5070   75.5240   44.2050 C.3   109  VAL109      0.1561
     51  C          4.7290   75.3460   45.1070 C.2   109  VAL109      0.2260
     52  O          4.6450   75.5440   46.3110 O.2   109  VAL109     -0.2867
     53  CB         3.0360   77.0050   44.2270 C.3   109  VAL109      0.0252
     54  CG1        4.1490   77.9210   43.7720 C.3   109  VAL109      0.0019
     55  CG2        1.8090   77.1690   43.3010 C.3   109  VAL109      0.0019
     56  N         10.9810   77.6320   40.5070 N.3   117  ILE117     -0.1245
     57  CA         9.6430   77.1500   40.8060 C.3   117  ILE117      0.1561
     58  C          9.2450   75.8530   40.0970 C.2   117  ILE117      0.2260
     59  O          9.5640   75.6310   38.9260 O.2   117  ILE117     -0.2867
     60  CB         8.6130   78.2450   40.4380 C.3   117  ILE117      0.0252
     61  CG1        8.9230   79.5170   41.2360 C.3   117  ILE117      0.0019
     62  CG2        7.1770   77.7560   40.7080 C.3   117  ILE117      0.0019
     63  CD1        8.0840   80.6970   40.8490 C.3   117  ILE117      0.0001
     64  N          5.6380   73.4220   39.7870 N.3   119  VAL119     -0.1245
     65  CA         4.2230   73.3480   40.1320 C.3   119  VAL119      0.1561
     66  C          3.6930   71.9740   39.7430 C.2   119  VAL119      0.2260
     67  O          3.9290   71.5030   38.6260 O.2   119  VAL119     -0.2867
     68  CB         3.3780   74.4180   39.3880 C.3   119  VAL119      0.0252
     69  CG1        1.9140   74.3260   39.8380 C.3   119  VAL119      0.0019
     70  CG2        3.9340   75.8340   39.6570 C.3   119  VAL119      0.0019
     71  N          4.3670   80.7320   35.1180 N.3   172  LEU172     -0.1231
     72  CA         3.3230   80.9270   36.1190 C.3   172  LEU172      0.1693
     73  C          2.1180   81.2800   35.2370 C.2   172  LEU172      0.2593
     74  O          2.2980   81.8420   34.1580 O.2   172  LEU172     -0.2718
     75  CB         3.6590   82.1100   37.0360 C.3   172  LEU172      0.0284
     76  CG         4.9100   81.9220   37.8970 C.3   172  LEU172      0.0019
     77  CD1        5.1660   83.2090   38.7050 C.3   172  LEU172      0.0001
     78  CD2        4.7080   80.7490   38.8450 C.3   172  LEU172      0.0001
     79  N          0.9070   80.9270   35.6610 N.am  173  THR173     -0.1939
     80  CA        -0.2650   81.2440   34.8450 C.3   173  THR173      0.2028
     81  C         -0.9820   82.5410   35.2100 C.2   173  THR173      0.2643
     82  O         -2.0620   82.8030   34.6960 O.2   173  THR173     -0.2714
     83  CB        -1.2700   80.1030   34.8550 C.3   173  THR173      0.1808
     84  OG1       -1.8730   79.9980   36.1490 O.3   173  THR173     -0.2208
     85  CG2       -0.5600   78.7890   34.5400 C.3   173  THR173      0.0379
     86  N         -0.3880   83.3460   36.0890 N.am  174  THR174     -0.1937
     87  CA        -0.9540   84.6550   36.4520 C.3   174  THR174      0.2013
     88  C          0.2510   85.6000   36.4320 C.2   174  THR174      0.2484
     89  O          1.3850   85.1640   36.6520 O.2   174  THR174     -0.2729
     90  CB        -1.5810   84.6870   37.8810 C.3   174  THR174      0.1807
     91  OG1       -0.5570   84.5070   38.8540 O.3   174  THR174     -0.2208
     92  CG2       -2.5930   83.5790   38.0550 C.3   174  THR174      0.0379
     93  N          0.0220   86.9020   36.1760 N.am  175  PRO175     -0.2715
     94  CA         1.1140   87.8800   36.1280 C.3   175  PRO175      0.1521
     95  C          2.0170   87.7200   37.3400 C.2   175  PRO175      0.2440
     96  O          1.5280   87.4710   38.4340 O.2   175  PRO175     -0.2731
     97  CB         0.3770   89.2220   36.1240 C.3   175  PRO175      0.0310
     98  CG        -0.9050   88.9000   35.3950 C.3   175  PRO175      0.0237
     99  CD        -1.2880   87.5490   35.9860 C.3   175  PRO175      0.0939
    100  N          3.3370   87.9030   37.1760 N.am  176  PRO176     -0.2727
    101  CA         4.0510   88.2620   35.9450 C.3   176  PRO176      0.1402
    102  C          4.2970   87.1690   34.8870 C.2   176  PRO176      0.2269
    103  O          4.9970   87.4080   33.9000 O.2   176  PRO176     -0.2865
    104  CB         5.3440   88.8590   36.4780 C.3   176  PRO176      0.0296
    105  CG         5.6200   88.0010   37.6450 C.3   176  PRO176      0.0237
    106  CD         4.2700   87.8580   38.3180 C.3   176  PRO176      0.0939
    107  N          6.7860   72.3240   35.2110 N.3   183  TRP183     -0.1241
    108  CA         5.4430   71.8260   35.3770 C.3   183  TRP183      0.1605
    109  C          5.4160   70.2910   35.4170 C.2   183  TRP183      0.2264
    110  O          6.0860   69.6170   34.6310 O.2   183  TRP183     -0.2867
    111  CB         4.5220   72.3050   34.2530 C.3   183  TRP183      0.0550
    112  CG         3.9190   73.6590   34.5160 C.ar  183  TRP183      0.0003
    113  CD1        4.4030   74.8730   34.1020 C.ar  183  TRP183      0.0946
    114  CD2        2.7880   73.9370   35.3410 C.ar  183  TRP183      0.0152
    115  NE1        3.6360   75.8990   34.6320 N.ar  183  TRP183     -0.2442
    116  CE2        2.6400   75.3490   35.3950 C.ar  183  TRP183      0.0810
    117  CE3        1.8790   73.1310   36.0480 C.ar  183  TRP183      0.0012
    118  CZ2        1.6260   75.9660   36.1270 C.ar  183  TRP183      0.0191
    119  CZ3        0.8740   73.7440   36.7730 C.ar  183  TRP183      0.0001
    120  CH2        0.7540   75.1500   36.8070 C.ar  183  TRP183      0.0015
@<TRIPOS>BOND
     1   103   102    2
     2   113   112   ar
     3   113   115   ar
     4    74    73    2
     5   111   112    1
     6   111   108    1
     7   112   114   ar
     8    85    83    1
     9   110   109    2
    10   115   116   ar
    11    82    81    2
    12    80    83    1
    13    80    81    1
    14    80    79    1
    15    83    84    1
    16   102   101    1
    17    71    72    1
    18    81    86   am
    19   107   108    1
    20    73    79   am
    21    73    72    1
    22   114   116   ar
    23   114   117   ar
    24   108   109    1
    25   116   118   ar
    26    98    99    1
    27    98    97    1
    28   101   104    1
    29   101   100    1
    30    99    93    1
    31   117   119   ar
    32    86    87    1
    33    72    75    1
    34    97    94    1
    35   118   120   ar
    36    94    93    1
    37    94    95    1
    38    93    88   am
    39    88    87    1
    40    88    89    2
    41    87    90    1
    42   104   105    1
    43   119   120   ar
    44    75    76    1
    45   100    95   am
    46   100   106    1
    47    95    96    2
    48    48    47   ar
    49    48    46   ar
    50   105   106    1
    51    47    45   ar
    52    90    92    1
    53    90    91    1
    54    76    77    1
    55    76    78    1
    56    35    37   ar
    57    35    34   ar
    58    33    34    1
    59    33    30    1
    60    37    38   ar
    61    34    36   ar
    62    67    66    2
    63    32    31    2
    64    31    30    1
    65    46    44   ar
    66    59    58    2
    67    45    44   ar
    68    38    36   ar
    69    30    29    1
    70    68    70    1
    71    68    69    1
    72    68    65    1
    73    44    43    1
    74    66    65    1
    75    64    65    1
    76    58    57    1
    77    60    62    1
    78    60    57    1
    79    60    61    1
    80    56    57    1
    81    63    61    1
    82    43    40    1
    83    28    26   ar
    84    28    27   ar
    85    40    39    1
    86    40    41    1
    87    26    24   ar
    88    27    25   ar
    89    41    42    2
    90    55    53    1
    91    24    25   ar
    92    24    23    1
    93    22    21    2
    94    54    53    1
    95    21    20    1
    96    50    53    1
    97    50    49    1
    98    50    51    1
    99    23    20    1
   100    51    52    2
   101    20    19    1
   102    18    16   am
   103    17    16    2
   104    16    15    1
   105     8     7    2
   106    13    12    2
   107     7     6    1
   108     7     9   am
   109    15    14    1
   110    12    11    1
   111     5     6    1
   112     5     2    1
   113     1     2    1
   114     2     3    1
   115    14    11    1
   116    10    11    1
   117     3     4    2
