@<TRIPOS>MOLECULE
tmp/4x5vA01.pdb
 85 78 0 0 0
SMALL
GASTEIGER

@<TRIPOS>ATOM
      1  N         -1.9310    9.9610   -8.2390 N.3   128  ARG128     -0.1245
      2  CA        -2.0860    8.9070   -9.2240 C.3   128  ARG128      0.1563
      3  C         -1.1350    7.7730   -8.8650 C.2   128  ARG128      0.2260
      4  O         -0.0580    8.0050   -8.3080 O.2   128  ARG128     -0.2867
      5  CB        -1.8090    9.4360  -10.6290 C.3   128  ARG128      0.0307
      6  CG        -2.6430   10.6530  -10.9790 C.3   128  ARG128      0.0489
      7  CD        -2.4040   11.1370  -12.3970 C.3   128  ARG128      0.2205
      8  NE        -2.7530   10.1500  -13.4150 N.pl3 128  ARG128     -0.0865
      9  CZ        -3.9750    9.9810  -13.9170 C.cat 128  ARG128      0.5346
     10  NH1       -4.9890   10.7250  -13.4910 N.pl3 128  ARG128      0.1354
     11  NH2       -4.1870    9.0550  -14.8430 N.pl3 128  ARG128      0.1354
     12  N        -10.5710    2.6300  -18.1150 N.3   158  GLY158     -0.1210
     13  CA       -10.0700    3.9660  -17.8320 C.3   158  GLY158      0.1956
     14  C         -8.6800    4.2510  -18.3750 C.2   158  GLY158      0.2612
     15  O         -8.2760    3.7060  -19.4020 O.2   158  GLY158     -0.2717
     16  N         -7.9470    5.1060  -17.6670 N.am  159  SER159     -0.1952
     17  CA        -6.6170    5.5380  -18.0880 C.3   159  SER159      0.1924
     18  C         -5.6550    4.3620  -18.2380 C.2   159  SER159      0.2314
     19  O         -4.7520    4.3890  -19.0760 O.2   159  SER159     -0.2863
     20  CB        -6.0500    6.5430  -17.0840 C.3   159  SER159      0.2116
     21  OG        -6.0260    5.9970  -15.7750 O.3   159  SER159     -0.2180
     22  N         -6.1020    2.8760  -21.6320 N.3   162  ARG162     -0.1245
     23  CA        -5.6230    3.8310  -22.6280 C.3   162  ARG162      0.1563
     24  C         -4.0900    3.9230  -22.6410 C.2   162  ARG162      0.2260
     25  O         -3.5070    4.6420  -23.4520 O.2   162  ARG162     -0.2867
     26  CB        -6.2340    5.2120  -22.3780 C.3   162  ARG162      0.0307
     27  CG        -7.7570    5.2270  -22.4390 C.3   162  ARG162      0.0489
     28  CD        -8.3060    6.5690  -22.9000 C.3   162  ARG162      0.2205
     29  NE        -7.8810    7.6840  -22.0580 N.pl3 162  ARG162     -0.0865
     30  CZ        -8.3120    7.8940  -20.8180 C.cat 162  ARG162      0.5346
     31  NH1       -9.1790    7.0590  -20.2590 N.pl3 162  ARG162      0.1354
     32  NH2       -7.8750    8.9430  -20.1360 N.pl3 162  ARG162      0.1354
     33  N         -5.4450    7.5930  -11.9400 N.3   168  GLY168     -0.1210
     34  CA        -6.0800    8.2200  -10.7940 C.3   168  GLY168      0.1956
     35  C         -6.8770    7.2030   -9.9960 C.2   168  GLY168      0.2611
     36  O         -7.0970    7.3610   -8.7950 O.2   168  GLY168     -0.2717
     37  N         -7.3100    6.1420  -10.6690 N.am  169  ASP169     -0.1973
     38  CA        -7.9990    5.0440   -9.9960 C.3   169  ASP169      0.1709
     39  C         -7.9850    3.7810  -10.8490 C.2   169  ASP169      0.2293
     40  O         -7.3830    3.7550  -11.9270 O.2   169  ASP169     -0.2864
     41  CB        -9.4420    5.4360   -9.6330 C.3   169  ASP169      0.1436
     42  CG       -10.3280    5.6780  -10.8440 C.2   169  ASP169      0.3671
     43  OD1      -10.0760    5.1060  -11.9210 O.co2 169  ASP169     -0.2456
     44  OD2      -11.3160    6.4300  -10.6970 O.co2 169  ASP169     -0.2456
     45  N        -10.5350    1.0490  -12.7350 N.3   171  ASP171     -0.1239
     46  CA       -11.8670    0.7130  -13.2130 C.3   171  ASP171      0.1674
     47  C        -11.9070   -0.7330  -13.6850 C.2   171  ASP171      0.2266
     48  O        -11.3360   -1.0570  -14.7250 O.2   171  ASP171     -0.2867
     49  CB       -12.2800    1.6330  -14.3620 C.3   171  ASP171      0.1410
     50  CG       -12.1090    3.0940  -14.0300 C.2   171  ASP171      0.3668
     51  OD1      -12.8290    3.5840  -13.1400 O.co2 171  ASP171     -0.2456
     52  OD2      -11.2660    3.7530  -14.6730 O.co2 171  ASP171     -0.2456
     53  N         -8.6970    4.5850   -5.1280 N.3   230  ARG230     -0.1245
     54  CA       -10.0840    4.4520   -5.5330 C.3   230  ARG230      0.1563
     55  C        -10.2600    3.2860   -6.4840 C.2   230  ARG230      0.2260
     56  O         -9.4130    3.0150   -7.3390 O.2   230  ARG230     -0.2867
     57  CB       -10.5870    5.7330   -6.1730 C.3   230  ARG230      0.0307
     58  CG       -10.8550    6.8120   -5.1550 C.3   230  ARG230      0.0489
     59  CD       -11.3540    8.0520   -5.8340 C.3   230  ARG230      0.2205
     60  NE       -10.3030    8.6260   -6.6640 N.pl3 230  ARG230     -0.0865
     61  CZ       -10.4880    9.1690   -7.8630 C.cat 230  ARG230      0.5346
     62  NH1      -11.7000    9.2380   -8.4010 N.pl3 230  ARG230      0.1354
     63  NH2       -9.4450    9.6540   -8.5210 N.pl3 230  ARG230      0.1354
     64  N        -13.6670    2.9300  -20.6640 N.3   249  THR249     -0.1203
     65  CA       -12.3090    3.1960  -21.1400 C.3   249  THR249      0.1994
     66  C        -12.0840    4.6900  -21.3880 C.2   249  THR249      0.2618
     67  O        -10.9760    5.1920  -21.2010 O.2   249  THR249     -0.2717
     68  CB       -12.0000    2.4050  -22.4400 C.3   249  THR249      0.1784
     69  OG1      -12.0200    1.0000  -22.1640 O.3   249  THR249     -0.2211
     70  CG2      -10.6290    2.7700  -23.0070 C.3   249  THR249      0.0376
     71  N        -13.1310    5.3960  -21.8070 N.am  250  GLY250     -0.1942
     72  CA       -13.0510    6.8350  -22.0170 C.3   250  GLY250      0.2014
     73  C        -12.1190    7.1960  -23.1630 C.2   250  GLY250      0.2640
     74  O        -11.8990    6.3670  -24.0410 O.2   250  GLY250     -0.2714
     75  N        -11.5560    8.4070  -23.1770 N.am  251  SER251     -0.1935
     76  CA       -11.7250    9.4140  -22.1290 C.3   251  SER251      0.2055
     77  C        -13.1590    9.9160  -21.9950 C.2   251  SER251      0.2642
     78  O        -14.0230    9.6020  -22.8150 O.2   251  SER251     -0.2714
     79  CB       -10.8110   10.6120  -22.4040 C.3   251  SER251      0.2130
     80  OG       -11.2430   11.3130  -23.5550 O.3   251  SER251     -0.2179
     81  N        -13.4010   10.7050  -20.9520 N.am  252  ALA252     -0.1977
     82  CA       -14.6990   11.3480  -20.7650 C.3   252  ALA252      0.1597
     83  C        -15.0270   12.2300  -21.9640 C.2   252  ALA252      0.2287
     84  O        -16.1580   12.2150  -22.4600 O.2   252  ALA252     -0.2864
     85  CB       -14.7180   12.1710  -19.4770 C.3   252  ALA252      0.0319
@<TRIPOS>BOND
     1    74    73    2
     2    80    79    1
     3    25    24    2
     4    75    73   am
     5    75    76    1
     6    73    72    1
     7    70    68    1
     8    28    27    1
     9    28    29    1
    10    78    77    2
    11    24    23    1
    12    23    26    1
    13    23    22    1
    14    84    83    2
    15    68    69    1
    16    68    65    1
    17    27    26    1
    18    79    76    1
    19    76    77    1
    20    29    30    2
    21    72    71    1
    22    77    81   am
    23    83    82    1
    24    71    66   am
    25    66    67    2
    26    66    65    1
    27    65    64    1
    28    81    82    1
    29    30    31    1
    30    30    32    1
    31    82    85    1
    32    15    14    2
    33    19    18    2
    34    14    13    1
    35    14    16   am
    36    18    17    1
    37    12    13    1
    38    17    16    1
    39    17    20    1
    40    20    21    1
    41    11     9    1
    42    48    47    2
    43    52    50   ar
    44    49    50    1
    45    49    46    1
    46    50    51   ar
    47     9    10    1
    48     9     8    2
    49    47    46    1
    50     8     7    1
    51    46    45    1
    52     7     6    1
    53    33    34    1
    54    40    39    2
    55    43    42   ar
    56     6     5    1
    57    39    38    1
    58    42    44   ar
    59    42    41    1
    60    34    35    1
    61    37    38    1
    62    37    35   am
    63     5     2    1
    64    38    41    1
    65    35    36    2
    66     2     3    1
    67     2     1    1
    68     3     4    2
    69    63    61    1
    70    62    61    1
    71    61    60    2
    72    56    55    2
    73    60    59    1
    74    55    54    1
    75    57    54    1
    76    57    58    1
    77    59    58    1
    78    54    53    1
