@<TRIPOS>MOLECULE
tmp/4x5yA02.pdb
 74 71 0 0 0
SMALL
GASTEIGER

@<TRIPOS>ATOM
      1  N         -1.8280   25.2180   11.0960 N.3   310  ASN310     -0.1225
      2  CA        -3.2480   25.5100   11.1890 C.3   310  ASN310      0.1785
      3  C         -3.4660   26.7950   11.9440 C.2   310  ASN310      0.2597
      4  O         -4.5920   27.0910   12.3370 O.2   310  ASN310     -0.2718
      5  CB        -4.0100   24.3430   11.7960 C.3   310  ASN310      0.1169
      6  CG        -4.0820   23.1650   10.8440 C.2   310  ASN310      0.2627
      7  OD1       -4.8740   23.1790    9.9020 O.2   310  ASN310     -0.2716
      8  ND2       -3.1930   22.1670   11.0220 N.am  310  ASN310     -0.0877
      9  N         -2.3800   27.5430   12.1180 N.am  311  ARG311     -0.1966
     10  CA        -2.3660   28.8520   12.8060 C.3   311  ARG311      0.1729
     11  C         -3.0620   28.8550   14.1480 C.2   311  ARG311      0.2616
     12  O         -3.6220   29.8670   14.5920 O.2   311  ARG311     -0.2715
     13  CB        -2.8860   29.9510   11.8790 C.3   311  ARG311      0.0348
     14  CG        -1.9530   30.1890   10.7150 C.3   311  ARG311      0.0492
     15  CD        -0.6590   30.7970   11.2240 C.3   311  ARG311      0.2205
     16  NE         0.2080   31.1170   10.1030 N.pl3 311  ARG311     -0.0865
     17  CZ         1.0520   30.2670    9.5300 C.cat 311  ARG311      0.5346
     18  NH1        1.1870   29.0250    9.9790 N.pl3 311  ARG311      0.1354
     19  NH2        1.7840   30.6670    8.5010 N.pl3 311  ARG311      0.1354
     20  N         -2.9510   27.7330   14.8380 N.am  312  ASN312     -0.1958
     21  CA        -3.4280   27.6270   16.1720 C.3   312  ASN312      0.1819
     22  C         -2.3340   27.9650   17.1890 C.2   312  ASN312      0.2621
     23  O         -1.7050   27.0520   17.7670 O.2   312  ASN312     -0.2715
     24  CB        -3.9130   26.2580   16.4210 C.3   312  ASN312      0.1195
     25  CG        -4.7020   26.1660   17.6630 C.2   312  ASN312      0.2630
     26  OD1       -4.5580   26.9920   18.6070 O.2   312  ASN312     -0.2716
     27  ND2       -5.5740   25.1710   17.7010 N.am  312  ASN312     -0.0877
     28  N         -2.1780   29.2440   17.4490 N.am  313  VAL313     -0.1963
     29  CA        -1.0270   29.7410   18.1770 C.3   313  VAL313      0.1727
     30  C         -0.9770   29.1870   19.5930 C.2   313  VAL313      0.2616
     31  O          0.1080   28.8130   20.0920 O.2   313  VAL313     -0.2715
     32  CB        -0.9990   31.2920   18.2290 C.3   313  VAL313      0.0290
     33  CG1        0.2160   31.8020   18.9710 C.3   313  VAL313      0.0023
     34  CG2       -1.0840   31.9120   16.8210 C.3   313  VAL313      0.0023
     35  N         -2.1210   29.1560   20.2940 N.am  314  ARG314     -0.1977
     36  CA        -2.1200   28.6770   21.6460 C.3   314  ARG314      0.1597
     37  C         -1.6050   27.2380   21.7640 C.2   314  ARG314      0.2287
     38  O         -0.7820   26.9200   22.6250 O.2   314  ARG314     -0.2864
     39  CB        -3.5280   28.7660   22.3180 C.3   314  ARG314      0.0334
     40  CG        -3.5330   28.1500   23.6990 C.3   314  ARG314      0.0492
     41  CD        -4.8420   28.3840   24.4600 C.3   314  ARG314      0.2205
     42  NE        -5.8650   27.3740   24.2180 N.pl3 314  ARG314     -0.0865
     43  CZ        -5.8530   26.0930   24.6260 C.cat 314  ARG314      0.5346
     44  NH1       -4.8300   25.5510   25.2940 N.pl3 314  ARG314      0.1354
     45  NH2       -6.8980   25.3220   24.3270 N.pl3 314  ARG314      0.1354
     46  N         -0.0430   37.1600   14.4570 N.3   358  ALA358     -0.1245
     47  CA        -1.0560   37.3690   15.5300 C.3   358  ALA358      0.1562
     48  C         -1.1780   38.8380   15.8800 C.2   358  ALA358      0.2260
     49  O         -2.2900   39.3590   16.1360 O.2   358  ALA358     -0.2867
     50  CB        -0.6770   36.5680   16.7410 C.3   358  ALA358      0.0290
     51  N        -10.5310   38.2870   18.3530 N.3   367  GLN367     -0.1231
     52  CA       -10.9640   37.9110   19.6740 C.3   367  GLN367      0.1698
     53  C        -10.3500   36.5750   19.9810 C.2   367  GLN367      0.2593
     54  O        -10.0430   35.7520   19.0740 O.2   367  GLN367     -0.2718
     55  CB       -12.5060   37.7780   19.7460 C.3   367  GLN367      0.0381
     56  CG       -13.2470   39.0350   19.3420 C.3   367  GLN367      0.0905
     57  CD       -12.7270   40.2760   20.0360 C.2   367  GLN367      0.2608
     58  OE1      -12.4690   40.2630   21.2430 O.2   367  GLN367     -0.2717
     59  NE2      -12.5650   41.3610   19.2800 N.am  367  GLN367     -0.0878
     60  N        -10.1240   36.3810   21.2690 N.am  368  GLY368     -0.1942
     61  CA        -9.5590   35.1420   21.7800 C.3   368  GLY368      0.2014
     62  C         -8.0900   34.9760   21.4020 C.2   368  GLY368      0.2640
     63  O         -7.5510   33.8680   21.4920 O.2   368  GLY368     -0.2714
     64  N         -7.4500   36.0780   20.9910 N.am  369  SER369     -0.1935
     65  CA        -6.0580   36.0360   20.4970 C.3   369  SER369      0.2055
     66  C         -5.1160   35.4130   21.5230 C.2   369  SER369      0.2642
     67  O         -5.1940   35.7210   22.7110 O.2   369  SER369     -0.2714
     68  CB        -5.5610   37.4560   20.1690 C.3   369  SER369      0.2130
     69  OG        -4.1690   37.4390   19.7820 O.3   369  SER369     -0.2179
     70  N         -4.1630   34.5850   21.0570 N.am  370  ALA370     -0.1977
     71  CA        -3.0910   34.1270   21.9540 C.3   370  ALA370      0.1597
     72  C         -2.4420   35.2940   22.6580 C.2   370  ALA370      0.2287
     73  O         -1.9760   35.1280   23.8060 O.2   370  ALA370     -0.2864
     74  CB        -2.0130   33.3300   21.1940 C.3   370  ALA370      0.0319
@<TRIPOS>BOND
     1    19    17    1
     2    17    18    1
     3    17    16    2
     4     7     6    2
     5    16    15    1
     6    14    15    1
     7    14    13    1
     8     6     8   am
     9     6     5    1
    10     1     2    1
    11     2     5    1
    12     2     3    1
    13    13    10    1
    14     3     9   am
    15     3     4    2
    16     9    10    1
    17    10    11    1
    18    11    12    2
    19    11    20   am
    20    46    47    1
    21    20    21    1
    22    47    48    1
    23    47    50    1
    24    48    49    2
    25    21    24    1
    26    21    22    1
    27    24    25    1
    28    34    32    1
    29    22    28   am
    30    22    23    2
    31    28    29    1
    32    25    27   am
    33    25    26    2
    34    29    32    1
    35    29    30    1
    36    32    33    1
    37    51    52    1
    38    54    53    2
    39    59    57   am
    40    56    55    1
    41    56    57    1
    42    30    31    2
    43    30    35   am
    44    52    55    1
    45    52    53    1
    46    69    68    1
    47    53    60   am
    48    57    58    2
    49    68    65    1
    50    35    36    1
    51    65    64    1
    52    65    66    1
    53    64    62   am
    54    70    66   am
    55    70    71    1
    56    74    71    1
    57    60    61    1
    58    62    63    2
    59    62    61    1
    60    66    67    2
    61    36    37    1
    62    36    39    1
    63    37    38    2
    64    71    72    1
    65    39    40    1
    66    72    73    2
    67    40    41    1
    68    42    41    1
    69    42    43    2
    70    45    43    1
    71    43    44    1
