@<TRIPOS>MOLECULE
tmp/4x5yA00.pdb
 204 195 0 0 0
SMALL
GASTEIGER

@<TRIPOS>ATOM
      1  N         23.2280    7.4160    6.0690 N.3   133  SER133     -0.1202
      2  CA        23.7240    6.9320    7.3600 C.3   133  SER133      0.2020
      3  C         22.9230    5.7790    7.9690 C.2   133  SER133      0.2619
      4  O         23.4350    4.6980    8.2790 O.2   133  SER133     -0.2717
      5  CB        23.8180    8.0620    8.3620 C.3   133  SER133      0.2103
      6  OG        24.0550    7.5230    9.6610 O.3   133  SER133     -0.2182
      7  N         21.6380    6.0340    8.1550 N.am  134  SER134     -0.1951
      8  CA        20.8160    5.0510    8.7680 C.3   134  SER134      0.1924
      9  C         20.5520    3.9150    7.8100 C.2   134  SER134      0.2314
     10  O         20.2640    2.8060    8.2420 O.2   134  SER134     -0.2863
     11  CB        19.4980    5.6530    9.3150 C.3   134  SER134      0.2116
     12  OG        18.7090    6.2170    8.3350 O.3   134  SER134     -0.2180
     13  N         17.3620    2.7970   17.2520 N.3   156  LEU156     -0.1231
     14  CA        17.1090    4.0990   16.6960 C.3   156  LEU156      0.1693
     15  C         16.9280    5.1250   17.7980 C.2   156  LEU156      0.2593
     16  O         16.1040    4.9510   18.6910 O.2   156  LEU156     -0.2718
     17  CB        15.7950    4.0840   15.9110 C.3   156  LEU156      0.0284
     18  CG        15.7670    3.1540   14.6740 C.3   156  LEU156      0.0019
     19  CD1       14.3430    3.0800   14.1570 C.3   156  LEU156      0.0001
     20  CD2       16.7500    3.6320   13.6470 C.3   156  LEU156      0.0001
     21  N         17.6280    6.2310   17.6810 N.am  157  SER157     -0.1938
     22  CA        17.2730    7.4520   18.4150 C.3   157  SER157      0.2055
     23  C         16.5460    8.4090   17.5090 C.2   157  SER157      0.2643
     24  O         16.0950    8.0160   16.4240 O.2   157  SER157     -0.2714
     25  CB        18.4940    8.1060   19.0530 C.3   157  SER157      0.2130
     26  OG        19.3590    8.6500   18.0760 O.3   157  SER157     -0.2179
     27  N         16.4230    9.6770   17.8930 N.am  158  GLU158     -0.1963
     28  CA        15.7640   10.6330   17.0500 C.3   158  GLU158      0.1733
     29  C         16.6860   11.1990   15.9790 C.2   158  GLU158      0.2616
     30  O         16.2080   11.8620   15.0750 O.2   158  GLU158     -0.2715
     31  CB        15.1200   11.7270   17.8870 C.3   158  GLU158      0.0429
     32  CG        13.9600   11.2070   18.6600 C.3   158  GLU158      0.1163
     33  CD        13.1970   12.2420   19.4040 C.2   158  GLU158      0.3649
     34  OE1       13.7780   13.0980   20.1150 O.co2 158  GLU158     -0.2457
     35  OE2       11.9160   12.2170   19.2830 O.co2 158  GLU158     -0.2457
     36  N         18.0080   10.9110   16.0250 N.am  159  ASP159     -0.1957
     37  CA        18.9300   11.3830   15.0000 C.3   159  ASP159      0.1840
     38  C         20.0680   10.4040   14.6530 C.2   159  ASP159      0.2622
     39  O         21.0250   10.8260   14.0420 O.2   159  ASP159     -0.2715
     40  CB        19.5430   12.7390   15.4350 C.3   159  ASP159      0.1450
     41  CG        20.2780   13.4610   14.3340 C.2   159  ASP159      0.3671
     42  OD1       19.7180   13.5470   13.2520 O.co2 159  ASP159     -0.2456
     43  OD2       21.4400   13.9000   14.6380 O.co2 159  ASP159     -0.2456
     44  N         19.9430    9.1710   15.0590 N.am  160  HIS160     -0.1959
     45  CA        21.0070    8.2100   14.7990 C.3   160  HIS160      0.1787
     46  C         20.4610    6.7800   14.8230 C.2   160  HIS160      0.2620
     47  O         19.3800    6.5120   15.3480 O.2   160  HIS160     -0.2715
     48  CB        22.1350    8.4540   15.7630 C.3   160  HIS160      0.0785
     49  CG        23.4060    7.6680   15.5200 C.ar  160  HIS160      0.0821
     50  ND1       23.9470    7.4670   14.2580 N.ar  160  HIS160     -0.2267
     51  CD2       24.2410    7.0530   16.3870 C.ar  160  HIS160      0.1154
     52  CE1       25.0700    6.7700   14.3790 C.ar  160  HIS160      0.1986
     53  NE2       25.2430    6.4620   15.6440 N.ar  160  HIS160     -0.2212
     54  N         21.2580    5.8590   14.3250 N.am  161  ALA161     -0.1977
     55  CA        20.9080    4.4660   14.2990 C.3   161  ALA161      0.1597
     56  C         22.1270    3.6110   14.5370 C.2   161  ALA161      0.2287
     57  O         23.1820    3.9620   14.1260 O.2   161  ALA161     -0.2864
     58  CB        20.3570    4.0930   12.9410 C.3   161  ALA161      0.0319
     59  N         10.2940    0.8470   10.0550 N.3   217  PHE217     -0.1241
     60  CA        11.3800    1.7980    9.7780 C.3   217  PHE217      0.1605
     61  C         11.5090    1.9590    8.2460 C.2   217  PHE217      0.2264
     62  O         11.6360    3.0450    7.8030 O.2   217  PHE217     -0.2867
     63  CB        12.7190    1.4090   10.4360 C.3   217  PHE217      0.0534
     64  CG        13.9020    2.2150    9.9530 C.ar  217  PHE217     -0.0203
     65  CD1       14.1780    3.4600   10.5290 C.ar  217  PHE217     -0.0042
     66  CD2       14.6800    1.7800    8.9270 C.ar  217  PHE217     -0.0042
     67  CE1       15.2470    4.2280   10.1210 C.ar  217  PHE217     -0.0003
     68  CE2       15.7050    2.5680    8.4610 C.ar  217  PHE217     -0.0003
     69  CZ        16.0090    3.7620    9.0630 C.ar  217  PHE217     -0.0000
     70  N          8.6640    4.1130    6.9610 N.3   220  CYS220     -0.1235
     71  CA         8.9360    5.5380    7.2830 C.3   220  CYS220      0.1677
     72  C         10.0200    6.0920    6.3790 C.2   220  CYS220      0.2270
     73  O         10.0120    7.2690    6.0470 O.2   220  CYS220     -0.2867
     74  CB         9.3600    5.7520    8.7280 C.3   220  CYS220      0.0956
     75  SG         7.9670    5.4520    9.8940 S.3   220  CYS220     -0.0801
     76  N          6.4760    3.1600   18.3260 N.3   255  TYR255     -0.1241
     77  CA         7.2010    3.9050   17.2910 C.3   255  TYR255      0.1605
     78  C          6.5790    5.3240   17.1600 C.2   255  TYR255      0.2264
     79  O          5.8480    5.6310   16.2160 O.2   255  TYR255     -0.2867
     80  CB         7.1710    3.1070   15.9560 C.3   255  TYR255      0.0534
     81  CG         8.2460    3.4680   14.9600 C.ar  255  TYR255     -0.0201
     82  CD1        8.8880    4.7050   14.9700 C.ar  255  TYR255     -0.0009
     83  CD2        8.5670    2.5600   13.9860 C.ar  255  TYR255     -0.0009
     84  CE1        9.8580    5.0010   14.0370 C.ar  255  TYR255      0.0417
     85  CE2        9.5400    2.8560   13.0410 C.ar  255  TYR255      0.0417
     86  CZ        10.2000    4.0730   13.1120 C.ar  255  TYR255      0.1957
     87  OH        11.1310    4.4130   12.1260 O.3   255  TYR255     -0.2866
     88  N          7.6650    8.2660   16.1560 N.3   257  MET257     -0.1245
     89  CA         7.8520    9.0310   14.9370 C.3   257  MET257      0.1570
     90  C          7.0400    8.5360   13.7340 C.2   257  MET257      0.2261
     91  O          6.6340    9.3500   12.8910 O.2   257  MET257     -0.2867
     92  CB         9.3310    9.1540   14.6040 C.3   257  MET257      0.0387
     93  CG        10.0540   10.1150   15.5530 C.3   257  MET257      0.0595
     94  SD        11.8090   10.2530   15.2320 S.3   257  MET257     -0.1393
     95  CE        12.4190    8.6810   15.8570 C.3   257  MET257      0.0692
     96  N          4.5120   10.6080   11.3880 N.3   261  ASN261     -0.1240
     97  CA         4.5460   10.5170    9.9030 C.3   261  ASN261      0.1653
     98  C          3.1820   10.2060    9.3430 C.2   261  ASN261      0.2266
     99  O          2.7080   10.8660    8.4080 O.2   261  ASN261     -0.2867
    100  CB         5.5590    9.4290    9.5150 C.3   261  ASN261      0.1155
    101  CG         5.9790    9.4640    8.0550 C.2   261  ASN261      0.2627
    102  OD1        5.2970   10.0020    7.1550 O.2   261  ASN261     -0.2716
    103  ND2        7.1310    8.8950    7.8000 N.am  261  ASN261     -0.0877
    104  N          0.9700   13.2380    9.6240 N.3   264  ASP264     -0.1239
    105  CA         1.2800   14.1950    8.6270 C.3   264  ASP264      0.1674
    106  C          0.6730   13.7710    7.2700 C.2   264  ASP264      0.2266
    107  O          0.1840   14.6360    6.5000 O.2   264  ASP264     -0.2867
    108  CB         2.7890   14.3250    8.4700 C.3   264  ASP264      0.1410
    109  CG         3.4370   15.2100    9.5230 C.2   264  ASP264      0.3668
    110  OD1        2.7520   15.8020   10.4380 O.co2 264  ASP264     -0.2456
    111  OD2        4.6790   15.2710    9.4120 O.co2 264  ASP264     -0.2456
    112  N         10.5550   14.7290   19.3100 N.3   298  TYR298     -0.1241
    113  CA         9.8250   14.9110   18.0540 C.3   298  TYR298      0.1605
    114  C          8.3240   14.6670   18.1810 C.2   298  TYR298      0.2264
    115  O          7.6200   15.2580   17.4090 O.2   298  TYR298     -0.2867
    116  CB        10.3930   14.0610   16.8990 C.3   298  TYR298      0.0534
    117  CG        11.6220   14.6730   16.2520 C.ar  298  TYR298     -0.0201
    118  CD1       11.5950   15.9100   15.6380 C.ar  298  TYR298     -0.0009
    119  CD2       12.8090   13.9880   16.2540 C.ar  298  TYR298     -0.0009
    120  CE1       12.7560   16.4850   15.0830 C.ar  298  TYR298      0.0417
    121  CE2       13.9490   14.5170   15.6530 C.ar  298  TYR298      0.0417
    122  CZ        13.9470   15.7770   15.1450 C.ar  298  TYR298      0.1957
    123  OH        15.1420   16.2470   14.6040 O.3   298  TYR298     -0.2866
    124  N          7.1500   18.1070   18.7160 N.3   301  MET301     -0.1230
    125  CA         7.4310   18.8990   17.5370 C.3   301  MET301      0.1702
    126  C          6.4620   18.6030   16.4070 C.2   301  MET301      0.2592
    127  O          6.0350   19.5620   15.7800 O.2   301  MET301     -0.2718
    128  CB         8.8470   18.6870   17.0020 C.3   301  MET301      0.0401
    129  CG         9.8530   19.2410   17.9260 C.3   301  MET301      0.0596
    130  SD        10.0090   20.9840   17.7470 S.3   301  MET301     -0.1393
    131  CE        11.5120   21.2740   18.6980 C.3   301  MET301      0.0692
    132  N          6.1130   17.3330   16.1750 N.am  302  TYR302     -0.1976
    133  CA         5.1360   16.9460   15.1370 C.3   302  TYR302      0.1639
    134  C          3.8030   17.6620   15.4950 C.2   302  TYR302      0.2290
    135  O          3.1690   18.2630   14.5840 O.2   302  TYR302     -0.2864
    136  CB         4.8940   15.4250   15.0830 C.3   302  TYR302      0.0560
    137  CG         5.8070   14.6040   14.1600 C.ar  302  TYR302     -0.0198
    138  CD1        5.5750   14.5680   12.7920 C.ar  302  TYR302     -0.0009
    139  CD2        6.7600   13.7460   14.6780 C.ar  302  TYR302     -0.0009
    140  CE1        6.3580   13.7670   11.9260 C.ar  302  TYR302      0.0417
    141  CE2        7.5520   12.9840   13.8250 C.ar  302  TYR302      0.0417
    142  CZ         7.3050   12.9890   12.4650 C.ar  302  TYR302      0.1957
    143  OH         8.0920   12.2060   11.6240 O.3   302  TYR302     -0.2866
    144  N          3.9970   21.4990   15.0030 N.3   305  GLY305     -0.1225
    145  CA         4.0220   21.8490   13.5790 C.3   305  GLY305      0.1811
    146  C          2.6280   21.8300   12.9580 C.2   305  GLY305      0.2280
    147  O          2.3030   22.7030   12.2040 O.2   305  GLY305     -0.2866
    148  N          0.8890   25.0670   11.3760 N.3   309  ARG309     -0.1245
    149  CA         0.3470   25.1250   10.0020 C.3   309  ARG309      0.1563
    150  C         -1.1280   25.5250   10.0240 C.2   309  ARG309      0.2260
    151  O         -1.6390   26.0820    9.0520 O.2   309  ARG309     -0.2867
    152  CB         0.5440   23.7900    9.2680 C.3   309  ARG309      0.0307
    153  CG         1.9720   23.4330    8.9110 C.3   309  ARG309      0.0489
    154  CD         1.9740   22.1680    8.0380 C.3   309  ARG309      0.2205
    155  NE         1.5190   20.9740    8.7350 N.pl3 309  ARG309     -0.0865
    156  CZ         2.2890   20.2820    9.5870 C.cat 309  ARG309      0.5346
    157  NH1        3.5010   20.7170    9.8770 N.pl3 309  ARG309      0.1354
    158  NH2        1.8090   19.1840   10.1680 N.pl3 309  ARG309      0.1354
    159  N          5.2450   23.3640   21.9370 N.3   320  TRP320     -0.1241
    160  CA         6.6730   23.7460   22.0290 C.3   320  TRP320      0.1605
    161  C          7.1260   23.8680   23.4770 C.2   320  TRP320      0.2264
    162  O          8.2770   23.4840   23.7900 O.2   320  TRP320     -0.2867
    163  CB         6.9320   25.0400   21.2780 C.3   320  TRP320      0.0550
    164  CG         6.9250   24.9040   19.7810 C.ar  320  TRP320      0.0003
    165  CD1        7.5080   23.9230   19.0450 C.ar  320  TRP320      0.0946
    166  CD2        6.2850   25.7660   18.8460 C.ar  320  TRP320      0.0152
    167  NE1        7.3350   24.1640   17.7310 N.ar  320  TRP320     -0.2442
    168  CE2        6.5660   25.2720   17.5670 C.ar  320  TRP320      0.0810
    169  CE3        5.5760   26.9550   18.9660 C.ar  320  TRP320      0.0012
    170  CZ2        6.1000   25.8930   16.3880 C.ar  320  TRP320      0.0191
    171  CZ3        5.0940   27.5470   17.8170 C.ar  320  TRP320      0.0001
    172  CH2        5.3590   27.0190   16.5500 C.ar  320  TRP320      0.0015
    173  N         16.7750   22.7150   15.5810 N.3   342  GLU342     -0.1245
    174  CA        15.3000   22.7140   15.6620 C.3   342  GLU342      0.1567
    175  C         14.8300   23.7490   16.7020 C.2   342  GLU342      0.2260
    176  O         13.9510   24.5720   16.4130 O.2   342  GLU342     -0.2867
    177  CB        14.6960   21.3790   16.0510 C.3   342  GLU342      0.0388
    178  CG        15.1070   20.1050   15.3260 C.3   342  GLU342      0.1160
    179  CD        14.6220   19.9710   13.9070 C.2   342  GLU342      0.3649
    180  OE1       14.1840   20.9850   13.2870 O.co2 342  GLU342     -0.2457
    181  OE2       14.6480   18.7900   13.4430 O.co2 342  GLU342     -0.2457
    182  N         15.4460   27.4030   15.3410 N.3   345  GLU345     -0.1231
    183  CA        14.4970   27.7650   14.2760 C.3   345  GLU345      0.1699
    184  C         13.1330   28.0480   14.9030 C.2   345  GLU345      0.2592
    185  O         12.4800   29.0120   14.4940 O.2   345  GLU345     -0.2718
    186  CB        14.4300   26.6880   13.2210 C.3   345  GLU345      0.0402
    187  CG        15.7530   26.6040   12.4240 C.3   345  GLU345      0.1161
    188  CD        15.7880   25.5330   11.3250 C.2   345  GLU345      0.3649
    189  OE1       14.7150   24.9900   10.9700 O.co2 345  GLU345     -0.2457
    190  OE2       16.9010   25.2350   10.7980 O.co2 345  GLU345     -0.2457
    191  N         12.7130   27.2590   15.8850 N.am  346  VAL346     -0.1980
    192  CA        11.4000   27.5470   16.5270 C.3   346  VAL346      0.1595
    193  C         11.4240   28.8800   17.2620 C.2   346  VAL346      0.2287
    194  O         10.5480   29.7450   17.1000 O.2   346  VAL346     -0.2864
    195  CB        10.9500   26.4040   17.4300 C.3   346  VAL346      0.0276
    196  CG1        9.7150   26.7690   18.2790 C.3   346  VAL346      0.0022
    197  CG2       10.6750   25.1530   16.5810 C.3   346  VAL346      0.0022
    198  N         10.1790   30.6380   13.7210 N.3   350  VAL350     -0.1245
    199  CA         8.8000   30.1840   13.6140 C.3   350  VAL350      0.1561
    200  C          7.9360   30.9400   14.5830 C.2   350  VAL350      0.2260
    201  O          6.8790   31.4920   14.2050 O.2   350  VAL350     -0.2867
    202  CB         8.6760   28.6960   13.8200 C.3   350  VAL350      0.0252
    203  CG1        7.1920   28.2680   13.7480 C.3   350  VAL350      0.0019
    204  CG2        9.4910   27.9510   12.7830 C.3   350  VAL350      0.0019
@<TRIPOS>BOND
     1    73    72    2
     2     1     2    1
     3    72    71    1
     4   107   106    2
     5    70    71    1
     6   102   101    2
     7   106   105    1
     8    71    74    1
     9     2     3    1
    10     2     5    1
    11   103   101   am
    12    62    61    2
    13     9    10    2
    14     9     8    1
    15     3     7   am
    16     3     4    2
    17   154   155    1
    18   154   153    1
    19   101   100    1
    20     7     8    1
    21    61    60    1
    22    12    11    1
    23     5     6    1
    24    99    98    2
    25    68    66   ar
    26    68    69   ar
    27   108   105    1
    28   108   109    1
    29   105   104    1
    30    74    75    1
    31   155   156    2
    32     8    11    1
    33   153   152    1
    34    66    64   ar
    35   151   150    2
    36    69    67   ar
    37   152   149    1
    38    98    97    1
    39   111   109   ar
    40   100    97    1
    41   109   110   ar
    42   156   157    1
    43   156   158    1
    44    60    59    1
    45    60    63    1
    46    97    96    1
    47    64    63    1
    48    64    65   ar
    49   149   150    1
    50   149   148    1
    51    67    65   ar
    52   190   188   ar
    53   189   188   ar
    54   188   187    1
    55   143   142    1
    56   140   142   ar
    57   140   138   ar
    58    87    86    1
    59   147   146    2
    60   187   186    1
    61   142   141   ar
    62   204   202    1
    63   138   137   ar
    64    91    90    2
    65    58    55    1
    66   146   145    1
    67    85    86   ar
    68    85    83   ar
    69    86    84   ar
    70   186   183    1
    71    42    41   ar
    72   180   179   ar
    73   181   179   ar
    74   145   144    1
    75   199   198    1
    76   199   202    1
    77   199   200    1
    78    20    18    1
    79    90    89    1
    80   203   202    1
    81   141   139   ar
    82   179   178    1
    83    83    81   ar
    84    84    82   ar
    85    39    38    2
    86    57    56    2
    87    19    18    1
    88   137   139   ar
    89   137   136    1
    90   201   200    2
    91    50    52   ar
    92    50    49   ar
    93   183   184    1
    94   183   182    1
    95    55    54    1
    96    55    56    1
    97    54    46   am
    98    41    43   ar
    99    41    40    1
   100    52    53   ar
   101   185   184    2
   102   135   134    2
   103   123   122    1
   104    92    89    1
   105    92    93    1
   106    38    37    1
   107    38    44   am
   108    18    17    1
   109    45    46    1
   110    45    44    1
   111    45    48    1
   112    46    47    2
   113   184   191   am
   114    89    88    1
   115    81    82   ar
   116    81    80    1
   117    37    40    1
   118    37    36    1
   119    30    29    2
   120   136   133    1
   121   120   122   ar
   122   120   118   ar
   123   133   134    1
   124   133   132    1
   125   122   121   ar
   126    94    93    1
   127    94    95    1
   128   178   177    1
   129    49    48    1
   130    49    51   ar
   131   173   174    1
   132   118   117   ar
   133    53    51   ar
   134   121   119   ar
   135   174   177    1
   136   174   175    1
   137   127   126    2
   138   191   192    1
   139    17    14    1
   140    80    77    1
   141    29    36   am
   142    29    28    1
   143   132   126   am
   144    79    78    2
   145   117   119   ar
   146   117   116    1
   147   170   172   ar
   148   170   168   ar
   149   126   125    1
   150   176   175    2
   151    24    23    2
   152   192   193    1
   153   192   195    1
   154   172   171   ar
   155   197   195    1
   156    14    13    1
   157    14    15    1
   158   116   113    1
   159   128   125    1
   160   128   129    1
   161    28    31    1
   162    28    27    1
   163   194   193    2
   164    78    77    1
   165    77    76    1
   166   115   114    2
   167   195   196    1
   168    23    27   am
   169    23    22    1
   170   125   124    1
   171   168   167   ar
   172   168   166   ar
   173    21    15   am
   174    21    22    1
   175   167   165   ar
   176   130   129    1
   177   130   131    1
   178    15    16    2
   179   171   169   ar
   180    31    32    1
   181   113   114    1
   182   113   112    1
   183    26    25    1
   184    22    25    1
   185    32    33    1
   186   166   169   ar
   187   166   164   ar
   188   165   164   ar
   189    35    33   ar
   190    33    34   ar
   191   164   163    1
   192   163   160    1
   193   159   160    1
   194   160   161    1
   195   161   162    2
