@<TRIPOS>MOLECULE
tmp/4x5zA00.pdb
 195 186 0 0 0
SMALL
GASTEIGER

@<TRIPOS>ATOM
      1  N         23.5820    7.4120    6.2030 N.3   133  SER133     -0.1202
      2  CA        24.0650    6.8930    7.5010 C.3   133  SER133      0.2020
      3  C         23.2050    5.8060    8.0890 C.2   133  SER133      0.2619
      4  O         23.7030    4.7400    8.4480 O.2   133  SER133     -0.2717
      5  CB        24.1830    8.0390    8.5510 C.3   133  SER133      0.2103
      6  OG        24.3980    7.5080    9.8650 O.3   133  SER133     -0.2182
      7  N         21.9130    6.0810    8.2550 N.am  134  SER134     -0.1951
      8  CA        21.0500    5.0930    8.8850 C.3   134  SER134      0.1924
      9  C         20.8280    3.9340    7.9390 C.2   134  SER134      0.2314
     10  O         20.5510    2.8270    8.3710 O.2   134  SER134     -0.2863
     11  CB        19.7330    5.7100    9.4180 C.3   134  SER134      0.2116
     12  OG        18.9660    6.3890    8.4470 O.3   134  SER134     -0.2180
     13  N         17.5310    2.7470   17.3600 N.3   156  LEU156     -0.1231
     14  CA        17.2600    4.0490   16.8120 C.3   156  LEU156      0.1693
     15  C         17.1230    5.0850   17.9160 C.2   156  LEU156      0.2593
     16  O         16.3180    4.9020   18.8240 O.2   156  LEU156     -0.2718
     17  CB        15.9500    4.0080   16.0100 C.3   156  LEU156      0.0284
     18  CG        15.9360    3.0530   14.8160 C.3   156  LEU156      0.0019
     19  CD1       14.4900    2.9210   14.2740 C.3   156  LEU156      0.0001
     20  CD2       16.8880    3.4950   13.7180 C.3   156  LEU156      0.0001
     21  N         17.8690    6.1790   17.8110 N.am  157  SER157     -0.1938
     22  CA        17.5120    7.4070   18.5340 C.3   157  SER157      0.2055
     23  C         16.7520    8.3280   17.5880 C.2   157  SER157      0.2643
     24  O         16.3500    7.9400   16.5090 O.2   157  SER157     -0.2714
     25  CB        18.7350    8.0810   19.1330 C.3   157  SER157      0.2130
     26  OG        19.5880    8.6900   18.1820 O.3   157  SER157     -0.2179
     27  N         16.6440    9.5920   17.9660 N.am  158  GLU158     -0.1963
     28  CA        15.9400   10.5590   17.1410 C.3   158  GLU158      0.1733
     29  C         16.8450   11.1270   16.0830 C.2   158  GLU158      0.2616
     30  O         16.3650   11.7200   15.1430 O.2   158  GLU158     -0.2715
     31  CB        15.3380   11.6230   18.0370 C.3   158  GLU158      0.0429
     32  CG        14.1050   11.1330   18.7280 C.3   158  GLU158      0.1163
     33  CD        13.3400   12.1880   19.4670 C.2   158  GLU158      0.3649
     34  OE1       13.9610   12.9700   20.2390 O.co2 158  GLU158     -0.2457
     35  OE2       12.0880   12.1260   19.3670 O.co2 158  GLU158     -0.2457
     36  N         18.1570   10.8620   16.1530 N.am  159  ASP159     -0.1957
     37  CA        19.0680   11.3290   15.1010 C.3   159  ASP159      0.1840
     38  C         20.2120   10.3810   14.7770 C.2   159  ASP159      0.2622
     39  O         21.1220   10.8170   14.1360 O.2   159  ASP159     -0.2715
     40  CB        19.7140   12.6800   15.4910 C.3   159  ASP159      0.1450
     41  CG        20.3920   13.4130   14.3040 C.2   159  ASP159      0.3671
     42  OD1       19.7580   13.5230   13.2450 O.co2 159  ASP159     -0.2456
     43  OD2       21.5980   13.8750   14.4310 O.co2 159  ASP159     -0.2456
     44  N         20.1460    9.1110   15.1920 N.am  160  HIS160     -0.1959
     45  CA        21.2060    8.1310   14.9100 C.3   160  HIS160      0.1787
     46  C         20.6820    6.7240   14.9550 C.2   160  HIS160      0.2620
     47  O         19.5790    6.4540   15.4810 O.2   160  HIS160     -0.2715
     48  CB        22.3370    8.3110   15.9310 C.3   160  HIS160      0.0785
     49  CG        23.5710    7.5080   15.6840 C.ar  160  HIS160      0.0821
     50  ND1       24.1240    7.3380   14.4360 N.ar  160  HIS160     -0.2267
     51  CD2       24.4150    6.9100   16.5650 C.ar  160  HIS160      0.1154
     52  CE1       25.2420    6.6290   14.5640 C.ar  160  HIS160      0.1986
     53  NE2       25.4210    6.3510   15.8420 N.ar  160  HIS160     -0.2212
     54  N         21.4960    5.7890   14.4310 N.am  161  ALA161     -0.1977
     55  CA        21.1150    4.3980   14.4300 C.3   161  ALA161      0.1597
     56  C         22.3480    3.5400   14.6450 C.2   161  ALA161      0.2287
     57  O         23.4430    3.9160   14.2290 O.2   161  ALA161     -0.2864
     58  CB        20.4960    4.0500   13.0660 C.3   161  ALA161      0.0319
     59  N         10.5000    1.0180   10.2210 N.3   217  PHE217     -0.1241
     60  CA        11.5560    1.9620    9.9290 C.3   217  PHE217      0.1605
     61  C         11.7530    2.1430    8.4090 C.2   217  PHE217      0.2264
     62  O         11.9120    3.2500    7.9490 O.2   217  PHE217     -0.2867
     63  CB        12.8630    1.5300   10.5740 C.3   217  PHE217      0.0534
     64  CG        14.0750    2.2890   10.0820 C.ar  217  PHE217     -0.0203
     65  CD1       14.4570    3.4770   10.6800 C.ar  217  PHE217     -0.0042
     66  CD2       14.8470    1.7870    9.0380 C.ar  217  PHE217     -0.0042
     67  CE1       15.5440    4.1780   10.2210 C.ar  217  PHE217     -0.0003
     68  CE2       15.9880    2.4580    8.5850 C.ar  217  PHE217     -0.0003
     69  CZ        16.2990    3.6890    9.1590 C.ar  217  PHE217     -0.0000
     70  N          8.9360    4.2750    7.0820 N.3   220  CYS220     -0.1235
     71  CA         9.1620    5.7050    7.4330 C.3   220  CYS220      0.1677
     72  C         10.2380    6.2870    6.5240 C.2   220  CYS220      0.2270
     73  O         10.1980    7.4790    6.1940 O.2   220  CYS220     -0.2867
     74  CB         9.5970    5.9000    8.9010 C.3   220  CYS220      0.0956
     75  SG         8.2500    5.5600   10.0710 S.3   220  CYS220     -0.0801
     76  N          6.6490    3.0940   18.4470 N.3   255  TYR255     -0.1241
     77  CA         7.3850    3.8970   17.4380 C.3   255  TYR255      0.1605
     78  C          6.7530    5.3000   17.3040 C.2   255  TYR255      0.2264
     79  O          6.0250    5.5890   16.3730 O.2   255  TYR255     -0.2867
     80  CB         7.3490    3.1560   16.1240 C.3   255  TYR255      0.0534
     81  CG         8.4280    3.5240   15.1030 C.ar  255  TYR255     -0.0201
     82  CD1        9.0610    4.7600   15.1090 C.ar  255  TYR255     -0.0009
     83  CD2        8.8460    2.5920   14.1800 C.ar  255  TYR255     -0.0009
     84  CE1       10.0320    5.0820   14.1940 C.ar  255  TYR255      0.0417
     85  CE2        9.8250    2.8970   13.2450 C.ar  255  TYR255      0.0417
     86  CZ        10.4420    4.1410   13.2800 C.ar  255  TYR255      0.1957
     87  OH        11.3860    4.4450   12.3480 O.3   255  TYR255     -0.2866
     88  N          7.7630    8.2660   16.3720 N.3   257  MET257     -0.1245
     89  CA         7.9470    9.0730   15.1480 C.3   257  MET257      0.1570
     90  C          7.1590    8.5230   13.9380 C.2   257  MET257      0.2261
     91  O          6.7810    9.2890   13.0340 O.2   257  MET257     -0.2867
     92  CB         9.4150    9.2390   14.7840 C.3   257  MET257      0.0387
     93  CG        10.1830   10.1710   15.6930 C.3   257  MET257      0.0595
     94  SD        11.9560   10.3180   15.3420 S.3   257  MET257     -0.1393
     95  CE        12.6100    8.7580   15.8610 C.3   257  MET257      0.0692
     96  N          4.6730   10.6730   11.5420 N.3   261  ASN261     -0.1240
     97  CA         4.7220   10.5300   10.0540 C.3   261  ASN261      0.1653
     98  C          3.3190   10.2190    9.5040 C.2   261  ASN261      0.2266
     99  O          2.8230   10.8400    8.5510 O.2   261  ASN261     -0.2867
    100  CB         5.7440    9.4430    9.6500 C.3   261  ASN261      0.1155
    101  CG         6.1620    9.4940    8.1870 C.2   261  ASN261      0.2627
    102  OD1        5.4420    9.9950    7.3100 O.2   261  ASN261     -0.2716
    103  ND2        7.3400    8.9310    7.9020 N.am  261  ASN261     -0.0877
    104  N          1.0540   13.2800    9.8010 N.3   264  ASP264     -0.1239
    105  CA         1.3860   14.2410    8.7280 C.3   264  ASP264      0.1674
    106  C          0.7510   13.8510    7.3590 C.2   264  ASP264      0.2266
    107  O          0.2880   14.7160    6.6100 O.2   264  ASP264     -0.2867
    108  CB         2.8820   14.3290    8.5150 C.3   264  ASP264      0.1410
    109  CG         3.5870   15.1820    9.5120 C.2   264  ASP264      0.3668
    110  OD1        2.9660   15.6790   10.4730 O.co2 264  ASP264     -0.2456
    111  OD2        4.8380   15.3130    9.3380 O.co2 264  ASP264     -0.2456
    112  N         10.7610   14.6740   19.3240 N.3   298  TYR298     -0.1241
    113  CA         9.9970   14.8420   18.0970 C.3   298  TYR298      0.1605
    114  C          8.4940   14.6440   18.2580 C.2   298  TYR298      0.2264
    115  O          7.7320   15.2610   17.5340 O.2   298  TYR298     -0.2867
    116  CB        10.5050   14.0010   16.9100 C.3   298  TYR298      0.0534
    117  CG        11.7420   14.5690   16.3040 C.ar  298  TYR298     -0.0201
    118  CD1       11.7330   15.8170   15.6710 C.ar  298  TYR298     -0.0009
    119  CD2       12.9220   13.8480   16.2780 C.ar  298  TYR298     -0.0009
    120  CE1       12.9040   16.3570   15.1090 C.ar  298  TYR298      0.0417
    121  CE2       14.0760   14.3670   15.6930 C.ar  298  TYR298      0.0417
    122  CZ        14.0830   15.6040   15.1450 C.ar  298  TYR298      0.1957
    123  OH        15.2420   16.0600   14.5840 O.3   298  TYR298     -0.2866
    124  N          7.3790   18.0090   18.8140 N.3   301  MET301     -0.1230
    125  CA         7.6370   18.8540   17.6490 C.3   301  MET301      0.1702
    126  C          6.6490   18.5640   16.5380 C.2   301  MET301      0.2592
    127  O          6.2250   19.5010   15.8420 O.2   301  MET301     -0.2718
    128  CB         9.0500   18.6700   17.0950 C.3   301  MET301      0.0401
    129  CG        10.1330   19.2110   18.0100 C.3   301  MET301      0.0596
    130  SD        10.2940   20.9930   17.8240 S.3   301  MET301     -0.1393
    131  CE        11.8540   21.2300   18.7070 C.3   301  MET301      0.0692
    132  N          6.3250   17.2920   16.3170 N.am  302  TYR302     -0.1976
    133  CA         5.3260   16.9360   15.2790 C.3   302  TYR302      0.1639
    134  C          4.0140   17.6740   15.6030 C.2   302  TYR302      0.2290
    135  O          3.3570   18.2840   14.7080 O.2   302  TYR302     -0.2864
    136  CB         5.0500   15.4330   15.2480 C.3   302  TYR302      0.0560
    137  CG         5.8730   14.5900   14.2930 C.ar  302  TYR302     -0.0198
    138  CD1        5.6920   14.7250   12.9440 C.ar  302  TYR302     -0.0009
    139  CD2        6.8270   13.6490   14.7430 C.ar  302  TYR302     -0.0009
    140  CE1        6.4210   13.9800   12.0280 C.ar  302  TYR302      0.0417
    141  CE2        7.5340   12.8710   13.8220 C.ar  302  TYR302      0.0417
    142  CZ         7.3210   13.0410   12.4730 C.ar  302  TYR302      0.1957
    143  OH         7.9740   12.3180   11.4620 O.3   302  TYR302     -0.2866
    144  N          4.2310   21.4390   15.0820 N.3   305  GLY305     -0.1225
    145  CA         4.1820   21.7820   13.6610 C.3   305  GLY305      0.1811
    146  C          2.7840   21.8040   13.0680 C.2   305  GLY305      0.2280
    147  O          2.4370   22.6630   12.2940 O.2   305  GLY305     -0.2866
    148  N          1.0880   25.0450   11.4730 N.3   309  ARG309     -0.1245
    149  CA         0.5070   25.1140   10.0950 C.3   309  ARG309      0.1563
    150  C         -0.9600   25.5310   10.0950 C.2   309  ARG309      0.2260
    151  O         -1.4280   26.1110    9.1270 O.2   309  ARG309     -0.2867
    152  CB         0.6180   23.7660    9.3820 C.3   309  ARG309      0.0307
    153  CG         2.0500   23.3980    9.0360 C.3   309  ARG309      0.0489
    154  CD         2.0790   22.1680    8.1160 C.3   309  ARG309      0.2205
    155  NE         1.6950   20.9830    8.8550 N.pl3 309  ARG309     -0.0865
    156  CZ         2.5440   20.3090    9.6450 C.cat 309  ARG309      0.5346
    157  NH1        3.8210   20.6950    9.7570 N.pl3 309  ARG309      0.1354
    158  NH2        2.1380   19.2230   10.2780 N.pl3 309  ARG309      0.1354
    159  N          5.4370   23.4250   21.9950 N.3   320  TRP320     -0.1241
    160  CA         6.8730   23.8350   22.0930 C.3   320  TRP320      0.1605
    161  C          7.3720   23.9460   23.5230 C.2   320  TRP320      0.2264
    162  O          8.4710   23.5530   23.7940 O.2   320  TRP320     -0.2867
    163  CB         7.1760   25.1250   21.3170 C.3   320  TRP320      0.0550
    164  CG         7.1760   24.9680   19.8230 C.ar  320  TRP320      0.0003
    165  CD1        7.8080   24.0060   19.1060 C.ar  320  TRP320      0.0946
    166  CD2        6.5360   25.8160   18.8650 C.ar  320  TRP320      0.0152
    167  NE1        7.6040   24.1990   17.7680 N.ar  320  TRP320     -0.2442
    168  CE2        6.8290   25.2970   17.5830 C.ar  320  TRP320      0.0810
    169  CE3        5.7630   26.9770   18.9570 C.ar  320  TRP320      0.0012
    170  CZ2        6.3490   25.8940   16.4000 C.ar  320  TRP320      0.0191
    171  CZ3        5.2860   27.5610   17.8090 C.ar  320  TRP320      0.0001
    172  CH2        5.5940   27.0330   16.5310 C.ar  320  TRP320      0.0015
    173  N         16.9830   22.8510   15.5270 N.3   342  GLU342     -0.1245
    174  CA        15.5410   22.8960   15.6080 C.3   342  GLU342      0.1567
    175  C         15.0220   23.9030   16.6630 C.2   342  GLU342      0.2260
    176  O         14.0940   24.6750   16.3690 O.2   342  GLU342     -0.2867
    177  CB        14.9890   21.5170   15.8450 C.3   342  GLU342      0.0388
    178  CG        13.5000   21.4350   15.5300 C.3   342  GLU342      0.1160
    179  CD        13.1140   21.8270   14.0960 C.2   342  GLU342      0.3649
    180  OE1       13.8250   21.4340   13.1500 O.co2 342  GLU342     -0.2457
    181  OE2       12.0720   22.5330   13.9280 O.co2 342  GLU342     -0.2457
    182  N         12.9070   27.4030   15.8940 N.3   346  VAL346     -0.1245
    183  CA        11.6210   27.6350   16.5370 C.3   346  VAL346      0.1561
    184  C         11.6470   28.9400   17.2590 C.2   346  VAL346      0.2260
    185  O         10.7690   29.7670   17.0910 O.2   346  VAL346     -0.2867
    186  CB        11.2190   26.5040   17.4820 C.3   346  VAL346      0.0252
    187  CG1        9.9820   26.8990   18.2980 C.3   346  VAL346      0.0019
    188  CG2       10.9540   25.2300   16.6830 C.3   346  VAL346      0.0019
    189  N         10.3840   30.7160   13.7370 N.3   350  VAL350     -0.1245
    190  CA         8.9810   30.2960   13.6380 C.3   350  VAL350      0.1561
    191  C          8.0940   31.0820   14.5810 C.2   350  VAL350      0.2260
    192  O          7.0600   31.5940   14.1820 O.2   350  VAL350     -0.2867
    193  CB         8.8600   28.7790   13.8610 C.3   350  VAL350      0.0252
    194  CG1        7.4170   28.2970   13.7150 C.3   350  VAL350      0.0019
    195  CG2        9.7240   28.0370   12.8500 C.3   350  VAL350      0.0019
@<TRIPOS>BOND
     1    73    72    2
     2     1     2    1
     3    72    71    1
     4   107   106    2
     5    70    71    1
     6   102   101    2
     7   106   105    1
     8    71    74    1
     9     2     3    1
    10     2     5    1
    11   103   101   am
    12     9    10    2
    13     9     8    1
    14    62    61    2
    15     3     7   am
    16     3     4    2
    17   154   155    1
    18   154   153    1
    19   101   100    1
    20     7     8    1
    21    61    60    1
    22    12    11    1
    23   108   105    1
    24   108   109    1
    25    99    98    2
    26     5     6    1
    27    68    66   ar
    28    68    69   ar
    29   105   104    1
    30   155   156    2
    31     8    11    1
    32    74    75    1
    33   153   152    1
    34    66    64   ar
    35   151   150    2
    36    69    67   ar
    37   111   109   ar
    38   152   149    1
    39    98    97    1
    40   109   110   ar
    41   156   157    1
    42   156   158    1
    43   100    97    1
    44    60    59    1
    45    60    63    1
    46    97    96    1
    47    64    63    1
    48    64    65   ar
    49   149   150    1
    50   149   148    1
    51    67    65   ar
    52   143   142    1
    53   140   142   ar
    54   140   138   ar
    55   147   146    2
    56    87    86    1
    57   142   141   ar
    58   195   193    1
    59   138   137   ar
    60    91    90    2
    61    58    55    1
    62   146   145    1
    63   180   179   ar
    64    85    86   ar
    65    85    83   ar
    66    42    41   ar
    67    86    84   ar
    68   190   189    1
    69   190   193    1
    70   190   191    1
    71   145   144    1
    72   194   193    1
    73    20    18    1
    74   141   139   ar
    75   181   179   ar
    76    90    89    1
    77   179   178    1
    78    39    38    2
    79    83    81   ar
    80   192   191    2
    81    84    82   ar
    82    57    56    2
    83    19    18    1
    84   137   139   ar
    85   137   136    1
    86    41    43   ar
    87    41    40    1
    88    55    54    1
    89    55    56    1
    90    54    46   am
    91    50    52   ar
    92    50    49   ar
    93    52    53   ar
    94   123   122    1
    95   135   134    2
    96    38    37    1
    97    38    44   am
    98    92    89    1
    99    92    93    1
   100    18    17    1
   101    45    46    1
   102    45    44    1
   103    45    48    1
   104    46    47    2
   105    37    40    1
   106    37    36    1
   107    81    82   ar
   108    81    80    1
   109   120   122   ar
   110   120   118   ar
   111    30    29    2
   112   122   121   ar
   113    89    88    1
   114   136   133    1
   115   133   134    1
   116   133   132    1
   117    94    93    1
   118    94    95    1
   119   173   174    1
   120   178   177    1
   121   174   177    1
   122   174   175    1
   123   118   117   ar
   124    49    48    1
   125    49    51   ar
   126   121   119   ar
   127   127   126    2
   128    53    51   ar
   129   182   183    1
   130    17    14    1
   131    29    36   am
   132    29    28    1
   133    80    77    1
   134   119   117   ar
   135   117   116    1
   136   132   126   am
   137   176   175    2
   138    79    78    2
   139   170   172   ar
   140   170   168   ar
   141    24    23    2
   142   172   171   ar
   143   183   184    1
   144   183   186    1
   145   126   125    1
   146   188   186    1
   147    14    13    1
   148    14    15    1
   149   116   113    1
   150   185   184    2
   151   128   125    1
   152   128   129    1
   153    28    27    1
   154    28    31    1
   155    78    77    1
   156    77    76    1
   157   186   187    1
   158   115   114    2
   159   168   167   ar
   160   168   166   ar
   161    23    27   am
   162    23    22    1
   163   125   124    1
   164   167   165   ar
   165   171   169   ar
   166    21    15   am
   167    21    22    1
   168   130   129    1
   169   130   131    1
   170    15    16    2
   171    31    32    1
   172   113   114    1
   173   113   112    1
   174    26    25    1
   175    22    25    1
   176    32    33    1
   177   166   169   ar
   178   166   164   ar
   179   165   164   ar
   180    35    33   ar
   181    33    34   ar
   182   164   163    1
   183   163   160    1
   184   159   160    1
   185   160   161    1
   186   161   162    2
