@<TRIPOS>MOLECULE
tmp/4x60A01.pdb
 208 204 0 0 0
SMALL
GASTEIGER

@<TRIPOS>ATOM
      1  N         33.2990  -53.2680  -14.1750 N.3   288  PHE288     -0.1241
      2  CA        32.3010  -53.0100  -13.1220 C.3   288  PHE288      0.1605
      3  C         31.0570  -53.9060  -13.2100 C.2   288  PHE288      0.2264
      4  O         30.5130  -54.3120  -12.1890 O.2   288  PHE288     -0.2867
      5  CB        31.9010  -51.5280  -13.0980 C.3   288  PHE288      0.0534
      6  CG        32.8130  -50.6640  -12.2630 C.ar  288  PHE288     -0.0203
      7  CD1       33.9960  -50.1460  -12.7980 C.ar  288  PHE288     -0.0042
      8  CD2       32.4900  -50.3610  -10.9370 C.ar  288  PHE288     -0.0042
      9  CE1       34.8370  -49.3500  -12.0260 C.ar  288  PHE288     -0.0003
     10  CE2       33.3280  -49.5640  -10.1620 C.ar  288  PHE288     -0.0003
     11  CZ        34.5020  -49.0570  -10.7060 C.ar  288  PHE288     -0.0000
     12  N         27.3800  -59.1570  -12.4520 N.3   292  TYR292     -0.1241
     13  CA        25.9530  -58.8360  -12.4300 C.3   292  TYR292      0.1605
     14  C         25.0880  -59.4810  -13.5210 C.2   292  TYR292      0.2264
     15  O         23.8880  -59.1810  -13.6060 O.2   292  TYR292     -0.2867
     16  CB        25.7750  -57.3190  -12.5160 C.3   292  TYR292      0.0534
     17  CG        26.1040  -56.5590  -11.2530 C.ar  292  TYR292     -0.0201
     18  CD1       25.1420  -56.3850  -10.2540 C.ar  292  TYR292     -0.0009
     19  CD2       27.3690  -55.9880  -11.0650 C.ar  292  TYR292     -0.0009
     20  CE1       25.4330  -55.6790   -9.0960 C.ar  292  TYR292      0.0417
     21  CE2       27.6710  -55.2800   -9.9100 C.ar  292  TYR292      0.0417
     22  CZ        26.6980  -55.1270   -8.9290 C.ar  292  TYR292      0.1957
     23  OH        26.9830  -54.4280   -7.7800 O.3   292  TYR292     -0.2866
     24  N         17.3020  -57.2530  -10.0980 N.3   297  GLN297     -0.1245
     25  CA        17.1520  -56.3900   -8.9260 C.3   297  GLN297      0.1566
     26  C         15.7550  -55.8070   -8.8530 C.2   297  GLN297      0.2260
     27  O         15.2700  -55.1920   -9.8060 O.2   297  GLN297     -0.2867
     28  CB        18.2230  -55.2990   -8.9060 C.3   297  GLN297      0.0367
     29  CG        19.4790  -55.7650   -8.1930 C.3   297  GLN297      0.0905
     30  CD        20.7680  -55.3580   -8.8790 C.2   297  GLN297      0.2608
     31  OE1       20.9430  -55.5380  -10.0940 O.2   297  GLN297     -0.2717
     32  NE2       21.6950  -54.8190   -8.0910 N.am  297  GLN297     -0.0878
     33  N         13.3530  -50.1140   -6.7880 N.3   300  LEU300     -0.1245
     34  CA        13.7790  -49.1990   -5.7110 C.3   300  LEU300      0.1561
     35  C         12.7050  -48.1730   -5.3580 C.2   300  LEU300      0.2260
     36  O         11.9640  -47.7280   -6.2370 O.2   300  LEU300     -0.2867
     37  CB        15.0580  -48.4790   -6.1290 C.3   300  LEU300      0.0270
     38  CG        16.2160  -49.4530   -6.3430 C.3   300  LEU300      0.0019
     39  CD1       17.3450  -48.8430   -7.1700 C.3   300  LEU300      0.0001
     40  CD2       16.7160  -49.9410   -4.9900 C.3   300  LEU300      0.0001
     41  N         18.9510  -44.1390    0.4610 N.3   307  LEU307     -0.1245
     42  CA        20.1050  -44.8600   -0.0520 C.3   307  LEU307      0.1561
     43  C         21.1860  -45.0730    1.0270 C.2   307  LEU307      0.2260
     44  O         21.4100  -44.2090    1.8820 O.2   307  LEU307     -0.2867
     45  CB        20.6740  -44.1000   -1.2540 C.3   307  LEU307      0.0270
     46  CG        20.2450  -44.4310   -2.6970 C.3   307  LEU307      0.0019
     47  CD1       18.8580  -45.0320   -2.8620 C.3   307  LEU307      0.0001
     48  CD2       20.3320  -43.1370   -3.4690 C.3   307  LEU307      0.0001
     49  N         26.0710  -47.3800   -1.3120 N.3   311  THR311     -0.1203
     50  CA        25.4450  -47.2070   -2.6010 C.3   311  THR311      0.1994
     51  C         25.9850  -45.9290   -3.2500 C.2   311  THR311      0.2617
     52  O         26.4220  -45.9620   -4.3910 O.2   311  THR311     -0.2717
     53  CB        23.9080  -47.1980   -2.4990 C.3   311  THR311      0.1784
     54  OG1       23.4760  -48.4240   -1.9140 O.3   311  THR311     -0.2211
     55  CG2       23.2730  -47.0900   -3.8690 C.3   311  THR311      0.0376
     56  N         25.9750  -44.8200   -2.5160 N.am  312  TYR312     -0.1975
     57  CA        26.5700  -43.5740   -2.9900 C.3   312  TYR312      0.1639
     58  C         28.0390  -43.7870   -3.3700 C.2   312  TYR312      0.2290
     59  O         28.4990  -43.3160   -4.4170 O.2   312  TYR312     -0.2864
     60  CB        26.4830  -42.4900   -1.9150 C.3   312  TYR312      0.0560
     61  CG        25.0960  -41.9280   -1.6340 C.ar  312  TYR312     -0.0198
     62  CD1       24.4460  -41.1050   -2.5630 C.ar  312  TYR312     -0.0009
     63  CD2       24.4440  -42.1930   -0.4250 C.ar  312  TYR312     -0.0009
     64  CE1       23.1830  -40.5860   -2.3050 C.ar  312  TYR312      0.0417
     65  CE2       23.1790  -41.6630   -0.1530 C.ar  312  TYR312      0.0417
     66  CZ        22.5540  -40.8660   -1.0920 C.ar  312  TYR312      0.1957
     67  OH        21.2930  -40.3530   -0.8290 O.3   312  TYR312     -0.2866
     68  N         29.7100  -46.4800   -4.4290 N.3   314  VAL314     -0.1231
     69  CA        30.0120  -47.2080   -5.6710 C.3   314  VAL314      0.1692
     70  C         29.7320  -46.3440   -6.9160 C.2   314  VAL314      0.2592
     71  O         30.5680  -46.2610   -7.8130 O.2   314  VAL314     -0.2718
     72  CB        29.3800  -48.6360   -5.7220 C.3   314  VAL314      0.0266
     73  CG1       27.8620  -48.5970   -5.6230 C.3   314  VAL314      0.0020
     74  CG2       29.8280  -49.3800   -6.9730 C.3   314  VAL314      0.0020
     75  N         28.5900  -45.6630   -6.9330 N.am  315  PHE315     -0.1962
     76  CA        28.2100  -44.8560   -8.0800 C.3   315  PHE315      0.1771
     77  C         29.0410  -43.5960   -8.2300 C.2   315  PHE315      0.2619
     78  O         29.2250  -43.1170   -9.3410 O.2   315  PHE315     -0.2715
     79  CB        26.7280  -44.5220   -8.0300 C.3   315  PHE315      0.0574
     80  CG        25.8480  -45.7110   -8.2480 C.ar  315  PHE315     -0.0200
     81  CD1       25.9460  -46.4530   -9.4190 C.ar  315  PHE315     -0.0042
     82  CD2       24.9320  -46.1010   -7.2810 C.ar  315  PHE315     -0.0042
     83  CE1       25.1390  -47.5500   -9.6210 C.ar  315  PHE315     -0.0003
     84  CE2       24.1240  -47.2090   -7.4740 C.ar  315  PHE315     -0.0003
     85  CZ        24.2210  -47.9260   -8.6460 C.ar  315  PHE315     -0.0000
     86  N         29.5610  -43.0690   -7.1240 N.am  316  GLU316     -0.1977
     87  CA        30.4280  -41.8780   -7.1730 C.3   316  GLU316      0.1602
     88  C         31.6720  -42.1380   -8.0370 C.2   316  GLU316      0.2287
     89  O         32.3610  -41.2120   -8.4800 O.2   316  GLU316     -0.2864
     90  CB        30.7810  -41.3990   -5.7550 C.3   316  GLU316      0.0415
     91  CG        29.6420  -40.6230   -5.0900 C.3   316  GLU316      0.1163
     92  CD        29.7510  -40.5440   -3.5660 C.2   316  GLU316      0.3649
     93  OE1       30.7410  -41.0580   -2.9940 O.co2 316  GLU316     -0.2457
     94  OE2       28.8340  -39.9720   -2.9230 O.co2 316  GLU316     -0.2457
     95  N         29.7110  -39.9500  -15.8470 N.3   321  LYS321     -0.1231
     96  CA        28.5080  -39.2080  -15.4620 C.3   321  LYS321      0.1693
     97  C         28.8330  -37.8310  -14.8880 C.2   321  LYS321      0.2592
     98  O         28.1950  -36.8370  -15.2490 O.2   321  LYS321     -0.2718
     99  CB        27.6390  -39.9950  -14.4840 C.3   321  LYS321      0.0285
    100  CG        26.2400  -39.4130  -14.3220 C.3   321  LYS321      0.0035
    101  CD        25.5130  -40.0720  -13.1720 C.3   321  LYS321      0.0206
    102  CE        26.0380  -39.5890  -11.8300 C.3   321  LYS321      0.1093
    103  NZ        25.1410  -39.9750  -10.7050 N.3   321  LYS321     -0.1314
    104  N         29.8330  -37.7640  -14.0160 N.am  322  TYR322     -0.1976
    105  CA        30.1120  -36.5040  -13.3450 C.3   322  TYR322      0.1639
    106  C         30.7980  -35.5040  -14.2630 C.2   322  TYR322      0.2290
    107  O         30.3900  -34.3390  -14.3150 O.2   322  TYR322     -0.2864
    108  CB        30.8510  -36.7320  -12.0290 C.3   322  TYR322      0.0560
    109  CG        30.0290  -37.5870  -11.0850 C.ar  322  TYR322     -0.0198
    110  CD1       28.8990  -37.0640  -10.4390 C.ar  322  TYR322     -0.0009
    111  CD2       30.3410  -38.9330  -10.8840 C.ar  322  TYR322     -0.0009
    112  CE1       28.1220  -37.8520   -9.5990 C.ar  322  TYR322      0.0417
    113  CE2       29.5740  -39.7240  -10.0410 C.ar  322  TYR322      0.0417
    114  CZ        28.4690  -39.1830   -9.4030 C.ar  322  TYR322      0.1957
    115  OH        27.7190  -39.9720   -8.5680 O.3   322  TYR322     -0.2866
    116  N         20.1500  -35.2280  -10.6110 N.3   423  GLU423     -0.1245
    117  CA        20.3240  -36.5430  -11.2180 C.3   423  GLU423      0.1567
    118  C         19.3700  -37.5180  -10.5050 C.2   423  GLU423      0.2260
    119  O         19.7610  -38.2300   -9.5570 O.2   423  GLU423     -0.2867
    120  CB        21.7810  -36.9780  -11.1260 C.3   423  GLU423      0.0388
    121  CG        22.1410  -38.1950  -11.9540 C.3   423  GLU423      0.1160
    122  CD        21.6250  -39.5000  -11.3610 C.2   423  GLU423      0.3649
    123  OE1       22.4090  -40.1940  -10.6900 O.co2 423  GLU423     -0.2457
    124  OE2       20.4380  -39.8460  -11.5650 O.co2 423  GLU423     -0.2457
    125  N         17.3370  -39.9460  -12.1010 N.3   425  LEU425     -0.1231
    126  CA        16.8830  -40.7740  -13.2050 C.3   425  LEU425      0.1693
    127  C         17.0360  -42.2420  -12.9140 C.2   425  LEU425      0.2593
    128  O         18.0330  -42.6680  -12.3240 O.2   425  LEU425     -0.2718
    129  CB        17.6890  -40.4570  -14.4520 C.3   425  LEU425      0.0284
    130  CG        17.7790  -38.9990  -14.8900 C.3   425  LEU425      0.0019
    131  CD1       18.6890  -38.9160  -16.1100 C.3   425  LEU425      0.0001
    132  CD2       16.3880  -38.4580  -15.1840 C.3   425  LEU425      0.0001
    133  N         16.0460  -43.0120  -13.3470 N.am  426  GLY426     -0.1942
    134  CA        16.1260  -44.4760  -13.2980 C.3   426  GLY426      0.2014
    135  C         16.5000  -45.0380  -14.6580 C.2   426  GLY426      0.2639
    136  O         16.6350  -44.2840  -15.6260 O.2   426  GLY426     -0.2714
    137  N         16.6420  -46.3650  -14.7320 N.am  427  SER427     -0.1949
    138  CA        17.0490  -47.0430  -15.9460 C.3   427  SER427      0.1924
    139  C         16.0430  -46.8120  -17.0590 C.2   427  SER427      0.2314
    140  O         16.3590  -46.9570  -18.2510 O.2   427  SER427     -0.2863
    141  CB        17.1940  -48.5460  -15.6930 C.3   427  SER427      0.2116
    142  OG        18.0570  -48.8220  -14.5910 O.3   427  SER427     -0.2180
    143  N         11.4680  -43.4910  -13.9630 N.3   431  ASN431     -0.1225
    144  CA        10.9460  -44.4510  -13.0080 C.3   431  ASN431      0.1785
    145  C         11.4650  -44.2520  -11.5790 C.2   431  ASN431      0.2597
    146  O         11.1270  -45.0220  -10.6730 O.2   431  ASN431     -0.2718
    147  CB        11.1840  -45.8820  -13.4930 C.3   431  ASN431      0.1169
    148  CG        12.6470  -46.1880  -13.6800 C.2   431  ASN431      0.2627
    149  OD1       13.3300  -45.5360  -14.4760 O.2   431  ASN431     -0.2716
    150  ND2       13.1470  -47.1780  -12.9450 N.am  431  ASN431     -0.0877
    151  N         12.2820  -43.2210  -11.3790 N.am  432  GLU432     -0.1979
    152  CA        12.5690  -42.7330  -10.0390 C.3   432  GLU432      0.1602
    153  C         11.8480  -41.4100   -9.8200 C.2   432  GLU432      0.2287
    154  O         12.1400  -40.6880   -8.8810 O.2   432  GLU432     -0.2864
    155  CB        14.0800  -42.6490   -9.7530 C.3   432  GLU432      0.0415
    156  CG        14.7160  -44.0200   -9.4730 C.3   432  GLU432      0.1163
    157  CD        16.1830  -43.9590   -9.0630 C.2   432  GLU432      0.3649
    158  OE1       16.6910  -42.8740   -8.6870 O.co2 432  GLU432     -0.2457
    159  OE2       16.8540  -45.0110   -9.1050 O.co2 432  GLU432     -0.2457
    160  N         15.6840  -54.0090  -12.7070 N.3   491  VAL491     -0.1245
    161  CA        16.9680  -53.5270  -13.1980 C.3   491  VAL491      0.1561
    162  C         17.8390  -54.7770  -13.2960 C.2   491  VAL491      0.2260
    163  O         17.8970  -55.5720  -12.3570 O.2   491  VAL491     -0.2867
    164  CB        17.5980  -52.5120  -12.2040 C.3   491  VAL491      0.0252
    165  CG1       19.0370  -52.1880  -12.5770 C.3   491  VAL491      0.0019
    166  CG2       16.7620  -51.2490  -12.1120 C.3   491  VAL491      0.0019
    167  N         28.7900  -47.3050  -16.0090 N.3   565  PHE565     -0.1227
    168  CA        28.1670  -48.4210  -15.2940 C.3   565  PHE565      0.1736
    169  C         26.9850  -48.0440  -14.3740 C.2   565  PHE565      0.2596
    170  O         26.3380  -48.9300  -13.8170 O.2   565  PHE565     -0.2718
    171  CB        29.2210  -49.2070  -14.5020 C.3   565  PHE565      0.0547
    172  CG        29.9380  -48.3900  -13.4520 C.ar  565  PHE565     -0.0202
    173  CD1       29.3500  -48.1480  -12.2110 C.ar  565  PHE565     -0.0042
    174  CD2       31.2140  -47.8650  -13.7030 C.ar  565  PHE565     -0.0042
    175  CE1       30.0100  -47.3870  -11.2460 C.ar  565  PHE565     -0.0003
    176  CE2       31.8830  -47.1190  -12.7370 C.ar  565  PHE565     -0.0003
    177  CZ        31.2790  -46.8770  -11.5070 C.ar  565  PHE565     -0.0000
    178  N         26.6990  -46.7500  -14.2210 N.am  566  SER566     -0.1938
    179  CA        25.7040  -46.2730  -13.2520 C.3   566  SER566      0.2055
    180  C         24.2770  -46.7900  -13.4320 C.2   566  SER566      0.2643
    181  O         23.5400  -46.9220  -12.4500 O.2   566  SER566     -0.2714
    182  CB        25.6920  -44.7470  -13.1910 C.3   566  SER566      0.2130
    183  OG        26.7810  -44.2660  -12.4200 O.3   566  SER566     -0.2179
    184  N         23.8830  -47.0780  -14.6700 N.am  567  TRP567     -0.1959
    185  CA        22.5670  -47.6430  -14.9270 C.3   567  TRP567      0.1771
    186  C         22.6140  -48.8870  -15.8110 C.2   567  TRP567      0.2619
    187  O         23.1360  -48.8620  -16.9230 O.2   567  TRP567     -0.2715
    188  CB        21.6580  -46.6370  -15.6140 C.3   567  TRP567      0.0590
    189  CG        21.3000  -45.3980  -14.8550 C.ar  567  TRP567      0.0006
    190  CD1       20.2620  -45.2370  -13.9850 C.ar  567  TRP567      0.0946
    191  CD2       21.9310  -44.1170  -14.9640 C.ar  567  TRP567      0.0152
    192  NE1       20.2240  -43.9400  -13.5250 N.ar  567  TRP567     -0.2442
    193  CE2       21.2350  -43.2320  -14.1170 C.ar  567  TRP567      0.0810
    194  CE3       23.0280  -43.6370  -15.6790 C.ar  567  TRP567      0.0012
    195  CZ2       21.6040  -41.8900  -13.9710 C.ar  567  TRP567      0.0191
    196  CZ3       23.3840  -42.3020  -15.5420 C.ar  567  TRP567      0.0001
    197  CH2       22.6800  -41.4480  -14.6960 C.ar  567  TRP567      0.0015
    198  N         22.0390  -49.9730  -15.3150 N.am  568  PHE568     -0.1974
    199  CA        21.7810  -51.1270  -16.1350 C.3   568  PHE568      0.1639
    200  C         20.4250  -50.9520  -16.7950 C.2   568  PHE568      0.2290
    201  O         19.6090  -50.1450  -16.3300 O.2   568  PHE568     -0.2864
    202  CB        21.7210  -52.3800  -15.2710 C.3   568  PHE568      0.0560
    203  CG        23.0480  -52.8400  -14.7510 C.ar  568  PHE568     -0.0200
    204  CD1       24.2090  -52.6690  -15.4970 C.ar  568  PHE568     -0.0042
    205  CD2       23.1230  -53.4970  -13.5190 C.ar  568  PHE568     -0.0042
    206  CE1       25.4270  -53.1270  -15.0140 C.ar  568  PHE568     -0.0003
    207  CE2       24.3360  -53.9410  -13.0220 C.ar  568  PHE568     -0.0003
    208  CZ        25.4950  -53.7590  -13.7720 C.ar  568  PHE568     -0.0000
@<TRIPOS>BOND
     1   140   139    2
     2   139   138    1
     3   187   186    2
     4   200   201    2
     5   200   199    1
     6   199   198    1
     7   199   202    1
     8   131   130    1
     9   167   168    1
    10   138   141    1
    11   138   137    1
    12    95    96    1
    13   186   198   am
    14   186   185    1
    15   141   142    1
    16   194   196   ar
    17   194   191   ar
    18   136   135    2
    19   188   185    1
    20   188   189    1
    21   196   197   ar
    22   204   206   ar
    23   204   203   ar
    24    96    97    1
    25    96    99    1
    26   168   171    1
    27   168   169    1
    28   202   203    1
    29    98    97    2
    30   132   130    1
    31   206   208   ar
    32   191   189   ar
    33   191   193   ar
    34   185   184    1
    35   130   129    1
    36    97   104   am
    37   189   190   ar
    38   203   205   ar
    39   137   135   am
    40   197   195   ar
    41   184   180   am
    42   135   134    1
    43   171   172    1
    44    99   100    1
    45   149   148    2
    46   129   126    1
    47   169   178   am
    48   169   170    2
    49   100   101    1
    50   107   106    2
    51   106   105    1
    52   178   179    1
    53     1     2    1
    54   193   195   ar
    55   193   192   ar
    56   104   105    1
    57   190   192   ar
    58   143   144    1
    59   208   207   ar
    60   174   172   ar
    61   174   176   ar
    62   148   147    1
    63   148   150   am
    64    15    14    2
    65    14    13    1
    66   205   207   ar
    67   147   144    1
    68   172   173   ar
    69   180   179    1
    70   180   181    2
    71   133   134    1
    72   133   127   am
    73   105   108    1
    74   162   161    1
    75   162   163    2
    76   179   182    1
    77     3     2    1
    78     3     4    2
    79   126   127    1
    80   126   125    1
    81   161   160    1
    82   161   164    1
    83   182   183    1
    84   101   102    1
    85     2     5    1
    86     5     6    1
    87   144   145    1
    88   127   128    2
    89     7     6   ar
    90     7     9   ar
    91   176   177   ar
    92   165   164    1
    93    16    13    1
    94    16    17    1
    95    12    13    1
    96     6     8   ar
    97   173   175   ar
    98   164   166    1
    99   108   109    1
   100     9    11   ar
   101   121   122    1
   102   121   120    1
   103   102   103    1
   104   145   151   am
   105   145   146    2
   106   124   122   ar
   107   177   175   ar
   108   151   152    1
   109   122   123   ar
   110    17    19   ar
   111    17    18   ar
   112   117   120    1
   113   117   116    1
   114   117   118    1
   115   109   111   ar
   116   109   110   ar
   117    19    21   ar
   118     8    10   ar
   119   111   113   ar
   120    11    10   ar
   121   118   119    2
   122   110   112   ar
   123    18    20   ar
   124    24    25    1
   125    31    30    2
   126   113   114   ar
   127   152   153    1
   128   152   155    1
   129    21    22   ar
   130   153   154    2
   131    27    26    2
   132   155   156    1
   133    83    81   ar
   134    83    85   ar
   135   112   114   ar
   136   156   157    1
   137    81    80   ar
   138   114   115    1
   139    78    77    2
   140   159   157   ar
   141    20    22   ar
   142   157   158   ar
   143    22    23    1
   144    25    28    1
   145    25    26    1
   146    28    29    1
   147    30    29    1
   148    30    32   am
   149    85    84   ar
   150    89    88    2
   151    80    79    1
   152    80    82   ar
   153    77    76    1
   154    77    86   am
   155    76    79    1
   156    76    75    1
   157    88    87    1
   158    71    70    2
   159    84    82   ar
   160    87    86    1
   161    87    90    1
   162    39    38    1
   163    74    72    1
   164    75    70   am
   165    70    69    1
   166    33    34    1
   167    38    37    1
   168    38    40    1
   169    36    35    2
   170    37    34    1
   171    90    91    1
   172    72    69    1
   173    72    73    1
   174    34    35    1
   175    69    68    1
   176    91    92    1
   177    59    58    2
   178    52    51    2
   179    55    53    1
   180    92    93   ar
   181    92    94   ar
   182    48    46    1
   183    58    57    1
   184    51    50    1
   185    51    56   am
   186    57    56    1
   187    57    60    1
   188    47    46    1
   189    46    45    1
   190    50    53    1
   191    50    49    1
   192    62    64   ar
   193    62    61   ar
   194    53    54    1
   195    64    66   ar
   196    60    61    1
   197    61    63   ar
   198    45    42    1
   199    66    67    1
   200    66    65   ar
   201    63    65   ar
   202    42    41    1
   203    42    43    1
   204    43    44    2
