@<TRIPOS>MOLECULE
tmp/4x68A00.pdb
 142 133 0 0 0
SMALL
GASTEIGER

@<TRIPOS>ATOM
      1  N        -10.0980    0.6620   15.5040 N.3    60  SER60      -0.1217
      2  CA        -9.9350    1.1250   16.8940 C.3    60  SER60       0.1889
      3  C         -8.6660    0.5790   17.5560 C.2    60  SER60       0.2288
      4  O         -8.3510    1.0060   18.6770 O.2    60  SER60      -0.2866
      5  CB       -11.1330    0.6260   17.7080 C.3    60  SER60       0.2089
      6  OG       -12.3010    1.4590   17.4430 O.3    60  SER60      -0.2183
      7  N         -6.0820    3.2050   18.6030 N.3    63  LYS63      -0.1245
      8  CA        -6.0670    3.7840   19.9640 C.3    63  LYS63       0.1561
      9  C         -4.8430    3.3940   20.8050 C.2    63  LYS63       0.2260
     10  O         -4.4140    4.1620   21.6670 O.2    63  LYS63      -0.2867
     11  CB        -7.3630    3.4680   20.7090 C.3    63  LYS63       0.0271
     12  CG        -8.5890    4.1640   20.1370 C.3    63  LYS63       0.0035
     13  CD        -9.8450    3.8110   20.9260 C.3    63  LYS63       0.0206
     14  CE       -11.0890    4.4590   20.3580 C.3    63  LYS63       0.1093
     15  NZ       -11.5290    3.8500   19.0660 N.3    63  LYS63      -0.1314
     16  N        -20.2790    7.4810   21.0010 N.3   115  LEU115     -0.1231
     17  CA       -19.4290    6.5250   20.2970 C.3   115  LEU115      0.1693
     18  C        -18.7050    7.2200   19.1530 C.2   115  LEU115      0.2591
     19  O        -17.4890    7.0620   18.9990 O.2   115  LEU115     -0.2718
     20  CB       -20.2660    5.3530   19.7770 C.3   115  LEU115      0.0284
     21  CG       -19.5550    4.2180   19.0320 C.3   115  LEU115      0.0019
     22  CD1      -18.7600    3.3380   19.9860 C.3   115  LEU115      0.0001
     23  CD2      -20.5580    3.3860   18.2350 C.3   115  LEU115      0.0001
     24  N        -19.4510    8.0200   18.3860 N.am  116  GLN116     -0.1979
     25  CA       -18.9120    8.7710   17.2480 C.3   116  GLN116      0.1601
     26  C        -19.2730   10.2450   17.3270 C.2   116  GLN116      0.2287
     27  O        -20.2920   10.6220   17.9130 O.2   116  GLN116     -0.2864
     28  CB       -19.4820    8.2580   15.9090 C.3   116  GLN116      0.0394
     29  CG       -19.4770    6.7470   15.6940 C.3   116  GLN116      0.0908
     30  CD       -18.0930    6.1790   15.4210 C.2   116  GLN116      0.2608
     31  OE1      -17.1080    6.9150   15.2870 O.2   116  GLN116     -0.2717
     32  NE2      -18.0160    4.8580   15.3270 N.am  116  GLN116     -0.0878
     33  N        -17.7300    3.8870   25.8210 N.3   147  TYR147     -0.1241
     34  CA       -16.7140    3.8390   24.7560 C.3   147  TYR147      0.1605
     35  C        -16.9570    4.9370   23.7150 C.2   147  TYR147      0.2264
     36  O        -18.0860    5.1260   23.2610 O.2   147  TYR147     -0.2867
     37  CB       -16.6790    2.4440   24.1200 C.3   147  TYR147      0.0534
     38  CG       -15.5090    2.1950   23.1980 C.ar  147  TYR147     -0.0201
     39  CD1      -14.3490    1.5730   23.6530 C.ar  147  TYR147     -0.0009
     40  CD2      -15.5680    2.5710   21.8570 C.ar  147  TYR147     -0.0009
     41  CE1      -13.2670    1.3440   22.7880 C.ar  147  TYR147      0.0417
     42  CE2      -14.5080    2.3520   21.0040 C.ar  147  TYR147      0.0417
     43  CZ       -13.3640    1.7310   21.4650 C.ar  147  TYR147      0.1957
     44  OH       -12.3430    1.5080   20.5800 O.3   147  TYR147     -0.2866
     45  N        -15.0760    7.4610   20.4510 N.3   149  ASN149     -0.1240
     46  CA       -14.0620    8.0500   19.5800 C.3   149  ASN149      0.1653
     47  C        -13.7680    9.5390   19.8510 C.2   149  ASN149      0.2266
     48  O        -12.5940    9.9000   19.9720 O.2   149  ASN149     -0.2867
     49  CB       -14.3730    7.7970   18.0950 C.3   149  ASN149      0.1155
     50  CG       -14.1910    6.3460   17.6990 C.2   149  ASN149      0.2627
     51  OD1      -13.4290    5.6020   18.3290 O.2   149  ASN149     -0.2716
     52  ND2      -14.8730    5.9350   16.6360 N.am  149  ASN149     -0.0877
     53  N        -11.8300    2.9660    4.3510 N.3   209  VAL209     -0.1245
     54  CA       -12.2460    3.9970    5.2870 C.3   209  VAL209      0.1561
     55  C        -12.0180    5.4000    4.7170 C.2   209  VAL209      0.2260
     56  O        -10.9870    5.6890    4.1070 O.2   209  VAL209     -0.2867
     57  CB       -11.5760    3.8180    6.6760 C.3   209  VAL209      0.0252
     58  CG1      -10.0720    4.0940    6.6040 C.3   209  VAL209      0.0019
     59  CG2      -12.2690    4.6920    7.7300 C.3   209  VAL209      0.0019
     60  N         -9.1260    5.7410   14.8290 N.3   219  TYR219     -0.1241
     61  CA        -9.3140    4.5360   14.0110 C.3   219  TYR219      0.1605
     62  C         -8.5660    4.5400   12.6750 C.2   219  TYR219      0.2264
     63  O         -8.8450    3.7010   11.8190 O.2   219  TYR219     -0.2867
     64  CB       -10.8120    4.3000   13.7620 C.3   219  TYR219      0.0534
     65  CG       -11.5370    5.4680   13.1060 C.ar  219  TYR219     -0.0201
     66  CD1      -11.5690    5.6060   11.7140 C.ar  219  TYR219     -0.0009
     67  CD2      -12.2040    6.4200   13.8790 C.ar  219  TYR219     -0.0009
     68  CE1      -12.2380    6.6820   11.1080 C.ar  219  TYR219      0.0417
     69  CE2      -12.8680    7.4860   13.2880 C.ar  219  TYR219      0.0417
     70  CZ       -12.8840    7.6090   11.9120 C.ar  219  TYR219      0.1957
     71  OH       -13.5540    8.6670   11.3490 O.3   219  TYR219     -0.2866
     72  N         -6.8570   -2.9080   26.9320 N.3   269  GLU269     -0.1245
     73  CA        -7.8170   -3.4600   27.8910 C.3   269  GLU269      0.1567
     74  C         -7.3100   -4.8290   28.3470 C.2   269  GLU269      0.2260
     75  O         -6.9130   -5.6530   27.5130 O.2   269  GLU269     -0.2867
     76  CB        -9.2120   -3.5610   27.2610 C.3   269  GLU269      0.0388
     77  CG        -9.7770   -2.2110   26.7680 C.3   269  GLU269      0.1160
     78  CD       -11.1250   -2.3170   26.0700 C.2   269  GLU269      0.3649
     79  OE1      -11.7690   -3.3970   26.1110 O.co2 269  GLU269     -0.2457
     80  OE2      -11.5430   -1.3020   25.4720 O.co2 269  GLU269     -0.2457
     81  N        -19.2720   -1.9640   24.3300 N.3   289  ALA289     -0.1231
     82  CA       -19.0650   -0.7880   23.4990 C.3   289  ALA289      0.1694
     83  C        -20.2370    0.2110   23.5330 C.2   289  ALA289      0.2591
     84  O        -20.0320    1.4040   23.3170 O.2   289  ALA289     -0.2718
     85  CB       -18.7370   -1.1960   22.0650 C.3   289  ALA289      0.0304
     86  N        -21.4520   -0.2550   23.8220 N.am  290  LEU290     -0.1980
     87  CA       -22.6350    0.6100   23.6800 C.3   290  LEU290      0.1596
     88  C        -23.3800    1.0140   24.9570 C.2   290  LEU290      0.2287
     89  O        -24.1410    1.9910   24.9370 O.2   290  LEU290     -0.2864
     90  CB       -23.6260    0.0110   22.6680 C.3   290  LEU290      0.0297
     91  CG       -23.1190   -0.3330   21.2620 C.3   290  LEU290      0.0022
     92  CD1      -24.2690   -0.7530   20.3630 C.3   290  LEU290      0.0001
     93  CD2      -22.3280    0.8110   20.6210 C.3   290  LEU290      0.0001
     94  N         -6.8460   -5.4240   22.1800 N.3   312  LYS312     -0.1231
     95  CA        -7.6930   -4.3980   21.5800 C.3   312  LYS312      0.1693
     96  C         -8.3080   -4.9140   20.2880 C.2   312  LYS312      0.2593
     97  O         -7.6160   -5.5190   19.4510 O.2   312  LYS312     -0.2718
     98  CB        -6.9160   -3.0920   21.3230 C.3   312  LYS312      0.0285
     99  CG        -7.7880   -1.8950   20.9160 C.3   312  LYS312      0.0035
    100  CD        -8.7460   -1.4600   22.0350 C.3   312  LYS312      0.0206
    101  CE        -9.7280   -0.3770   21.5730 C.3   312  LYS312      0.1093
    102  NZ       -10.9880   -0.9430   21.0140 N.3   312  LYS312     -0.1314
    103  N         -9.6190   -4.6920   20.1610 N.am  313  THR313     -0.1939
    104  CA       -10.3570   -4.9410   18.9190 C.3   313  THR313      0.2028
    105  C        -10.4890   -3.6610   18.1190 C.2   313  THR313      0.2643
    106  O        -10.4660   -2.5600   18.6760 O.2   313  THR313     -0.2714
    107  CB       -11.7870   -5.4550   19.1740 C.3   313  THR313      0.1808
    108  OG1      -12.5100   -4.5180   19.9910 O.3   313  THR313     -0.2208
    109  CG2      -11.7610   -6.7720   19.8360 C.3   313  THR313      0.0379
    110  N        -10.6310   -3.8150   16.8050 N.am  314  GLY314     -0.1939
    111  CA       -10.8280   -2.6610   15.9340 C.3   314  GLY314      0.2014
    112  C        -11.5100   -3.0460   14.6440 C.2   314  GLY314      0.2640
    113  O        -11.2430   -4.1170   14.1120 O.2   314  GLY314     -0.2714
    114  N        -12.3920   -2.1780   14.1460 N.am  315  SER315     -0.1935
    115  CA       -13.1090   -2.4330   12.8840 C.3   315  SER315      0.2055
    116  C        -13.2670   -1.1740   12.0640 C.2   315  SER315      0.2644
    117  O        -13.2060   -0.0720   12.5940 O.2   315  SER315     -0.2714
    118  CB       -14.5000   -2.9950   13.1800 C.3   315  SER315      0.2130
    119  OG       -14.3870   -4.1070   14.0510 O.3   315  SER315     -0.2179
    120  N        -13.4500   -1.3570   10.7570 N.am  316  THR316     -0.1936
    121  CA       -13.9790   -0.3110    9.8840 C.3   316  THR316      0.2028
    122  C        -15.0990   -0.9720    9.0670 C.2   316  THR316      0.2642
    123  O        -15.3770   -2.1530    9.2590 O.2   316  THR316     -0.2714
    124  CB       -12.8940    0.3010    8.9780 C.3   316  THR316      0.1808
    125  OG1      -12.3450   -0.7140    8.1260 O.3   316  THR316     -0.2208
    126  CG2      -11.7680    0.9380    9.8140 C.3   316  THR316      0.0379
    127  N        -15.7560   -0.2410    8.1670 N.am  317  ASN317     -0.1971
    128  CA       -16.8470   -0.8540    7.4030 C.3   317  ASN317      0.1688
    129  C        -16.4090   -2.1230    6.6530 C.2   317  ASN317      0.2292
    130  O        -17.2130   -3.0320    6.4360 O.2   317  ASN317     -0.2864
    131  CB       -17.4660    0.1510    6.4240 C.3   317  ASN317      0.1181
    132  CG       -18.2480    1.2540    7.1280 C.2   317  ASN317      0.2629
    133  OD1      -18.5160    2.3040    6.5380 O.2   317  ASN317     -0.2716
    134  ND2      -18.6380    1.0150    8.3800 N.am  317  ASN317     -0.0877
    135  N        -16.7770   -9.3130   16.6530 N.3   343  ASN343     -0.1240
    136  CA       -15.8030   -9.3830   17.7450 C.3   343  ASN343      0.1653
    137  C        -15.6720  -10.7870   18.3550 C.2   343  ASN343      0.2266
    138  O        -14.5630  -11.2730   18.5620 O.2   343  ASN343     -0.2867
    139  CB       -16.1560   -8.3710   18.8360 C.3   343  ASN343      0.1155
    140  CG       -15.5930   -6.9760   18.5590 C.2   343  ASN343      0.2627
    141  OD1      -14.8420   -6.7600   17.5940 O.2   343  ASN343     -0.2716
    142  ND2      -15.9400   -6.0240   19.4210 N.am  343  ASN343     -0.0877
@<TRIPOS>BOND
     1    56    55    2
     2    53    54    1
     3    55    54    1
     4    54    57    1
     5   131   132    1
     6   131   128    1
     7   130   129    2
     8   133   132    2
     9    58    57    1
    10   129   128    1
    11    57    59    1
    12   132   134   am
    13   128   127    1
    14   125   124    1
    15   127   122   am
    16   124   126    1
    17   124   121    1
    18   122   123    2
    19   122   121    1
    20   121   120    1
    21   120   116   am
    22    68    66   ar
    23    68    70   ar
    24    71    70    1
    25    66    65   ar
    26    63    62    2
    27    70    69   ar
    28   116   117    2
    29   116   115    1
    30    62    61    1
    31   115   118    1
    32   115   114    1
    33    65    64    1
    34    65    67   ar
    35   118   119    1
    36    69    67   ar
    37    64    61    1
    38    61    60    1
    39   113   112    2
    40   114   112   am
    41   112   111    1
    42    31    30    2
    43    32    30   am
    44    30    29    1
    45     1     2    1
    46    29    28    1
    47    28    25    1
    48   111   110    1
    49    52    50   am
    50   135   136    1
    51   110   105   am
    52     2     3    1
    53     2     5    1
    54    25    26    1
    55    25    24    1
    56    26    27    2
    57     6     5    1
    58     3     4    2
    59   141   140    2
    60    50    49    1
    61    50    51    2
    62   136   137    1
    63   136   139    1
    64    49    46    1
    65   105   106    2
    66   105   104    1
    67    23    21    1
    68   137   138    2
    69    24    18   am
    70   140   139    1
    71   140   142   am
    72     7     8    1
    73   104   107    1
    74   104   103    1
    75    19    18    2
    76    21    20    1
    77    21    22    1
    78    15    14    1
    79    18    17    1
    80   107   109    1
    81   107   108    1
    82    97    96    2
    83    46    47    1
    84    46    45    1
    85    20    17    1
    86    47    48    2
    87     8    11    1
    88     8     9    1
    89    12    11    1
    90    12    13    1
    91   103    96   am
    92    96    95    1
    93    17    16    1
    94    14    13    1
    95    92    91    1
    96    44    43    1
    97    93    91    1
    98     9    10    2
    99    99    98    1
   100    99   100    1
   101    42    43   ar
   102    42    40   ar
   103   102   101    1
   104    91    90    1
   105    98    95    1
   106    43    41   ar
   107   101   100    1
   108    95    94    1
   109    40    38   ar
   110    85    82    1
   111    90    87    1
   112    41    39   ar
   113    38    39   ar
   114    38    37    1
   115    36    35    2
   116    84    83    2
   117    82    83    1
   118    82    81    1
   119    83    86   am
   120    87    86    1
   121    87    88    1
   122    35    34    1
   123    37    34    1
   124    34    33    1
   125    89    88    2
   126    80    78   ar
   127    78    79   ar
   128    78    77    1
   129    77    76    1
   130    72    73    1
   131    76    73    1
   132    75    74    2
   133    73    74    1
