@<TRIPOS>MOLECULE
tmp/4x69B00.pdb
 128 120 0 0 0
SMALL
GASTEIGER

@<TRIPOS>ATOM
      1  N         24.1380    0.7510   30.6110 N.3    42  CYS42      -0.1221
      2  CA        25.3840    0.6290   31.3390 C.3    42  CYS42       0.1808
      3  C         25.9230   -0.7900   31.1700 C.2    42  CYS42       0.2601
      4  O         25.8740   -1.3270   30.0680 O.2    42  CYS42      -0.2717
      5  CB        25.1940    1.0370   32.8030 C.3    42  CYS42       0.0970
      6  SG        24.6270    2.7720   32.9590 S.3    42  CYS42      -0.0800
      7  N         26.3880   -1.4250   32.2390 N.am   43  SER43      -0.1952
      8  CA        27.0900   -2.7050   32.1020 C.3    43  SER43       0.1924
      9  C         26.1450   -3.8520   31.6900 C.2    43  SER43       0.2314
     10  O         26.6320   -4.9330   31.3340 O.2    43  SER43      -0.2863
     11  CB        27.7570   -3.0840   33.4270 C.3    43  SER43       0.2116
     12  OG        28.9530   -2.2960   33.6930 O.3    43  SER43      -0.2180
     13  N         38.3100    2.2450   33.6920 N.3    77  ASN77      -0.1225
     14  CA        37.9630    2.6630   35.0500 C.3    77  ASN77       0.1785
     15  C         37.6940    1.5280   36.0470 C.2    77  ASN77       0.2597
     16  O         37.6750    1.7470   37.2670 O.2    77  ASN77      -0.2718
     17  CB        36.7320    3.5590   34.9900 C.3    77  ASN77       0.1169
     18  CG        35.4960    2.8030   34.5200 C.2    77  ASN77       0.2627
     19  OD1       35.5370    2.0860   33.5190 O.2    77  ASN77      -0.2716
     20  ND2       34.4040    2.9450   35.2580 N.am   77  ASN77      -0.0877
     21  N         37.4520    0.3250   35.5280 N.am   78  TYR78      -0.1976
     22  CA        37.0800   -0.7990   36.3800 C.3    78  TYR78       0.1639
     23  C         37.4470   -2.0910   35.6830 C.2    78  TYR78       0.2290
     24  O         36.7660   -2.5170   34.7410 O.2    78  TYR78      -0.2864
     25  CB        35.5870   -0.7750   36.7530 C.3    78  TYR78       0.0560
     26  CG        35.2730   -1.7970   37.8110 C.ar   78  TYR78      -0.0198
     27  CD1       34.5560   -2.9620   37.5110 C.ar   78  TYR78      -0.0009
     28  CD2       35.7590   -1.6310   39.1150 C.ar   78  TYR78      -0.0009
     29  CE1       34.3000   -3.9260   38.5000 C.ar   78  TYR78       0.0417
     30  CE2       35.5190   -2.5780   40.0990 C.ar   78  TYR78       0.0417
     31  CZ        34.7970   -3.7230   39.7830 C.ar   78  TYR78       0.1957
     32  OH        34.5720   -4.6530   40.7590 O.3    78  TYR78      -0.2866
     33  N         31.9610   -7.8730   35.7530 N.3   103  SER103     -0.1217
     34  CA        31.6940   -6.6070   35.0640 C.3   103  SER103      0.1889
     35  C         32.9660   -5.8170   34.7600 C.2   103  SER103      0.2288
     36  O         33.0890   -4.6240   35.0620 O.2   103  SER103     -0.2866
     37  CB        30.6730   -5.7610   35.8310 C.3   103  SER103      0.2089
     38  OG        29.9470   -4.9330   34.9320 O.3   103  SER103     -0.2183
     39  N         35.2310   -3.7670   32.6650 N.3   105  ASN105     -0.1240
     40  CA        35.0430   -2.8520   31.5300 C.3   105  ASN105      0.1653
     41  C         36.1310   -2.9530   30.4690 C.2   105  ASN105      0.2266
     42  O         35.8880   -2.6390   29.2990 O.2   105  ASN105     -0.2867
     43  CB        34.9510   -1.3910   31.9940 C.3   105  ASN105      0.1155
     44  CG        33.5740   -1.0050   32.4840 C.2   105  ASN105      0.2627
     45  OD1       32.5850   -1.7220   32.2740 O.2   105  ASN105     -0.2716
     46  ND2       33.4920    0.1720   33.1170 N.am  105  ASN105     -0.0877
     47  N         34.8600    3.8260   29.1520 N.3   140  PRO140     -0.2116
     48  CA        33.7920    3.8880   30.1460 C.3   140  PRO140      0.1372
     49  C         32.6390    4.8460   29.8200 C.2   140  PRO140      0.2244
     50  O         31.6770    4.9360   30.6020 O.2   140  PRO140     -0.2868
     51  CB        34.5200    4.4040   31.3810 C.3   140  PRO140      0.0268
     52  CG        35.5580    5.3480   30.8060 C.3   140  PRO140      0.0207
     53  CD        35.9520    4.7810   29.4540 C.3   140  PRO140      0.0892
     54  N         28.5290    4.5500   30.0290 N.3   143  ASN143     -0.1240
     55  CA        27.8210    4.6130   31.3160 C.3   143  ASN143      0.1653
     56  C         27.4030    6.0010   31.8110 C.2   143  ASN143      0.2266
     57  O         26.9960    6.1310   32.9800 O.2   143  ASN143     -0.2867
     58  CB        28.6410    3.9430   32.4320 C.3   143  ASN143      0.1155
     59  CG        29.1350    2.5790   32.0440 C.2   143  ASN143      0.2627
     60  OD1       28.3850    1.6060   32.0630 O.2   143  ASN143     -0.2716
     61  ND2       30.4110    2.4960   31.6850 N.am  143  ASN143     -0.0877
     62  N         28.2550  -10.0290   41.0660 N.3   189  THR189     -0.1218
     63  CA        27.9470   -8.6490   41.4350 C.3   189  THR189      0.1862
     64  C         26.4580   -8.3950   41.7090 C.2   189  THR189      0.2287
     65  O         26.0610   -7.2390   41.8930 O.2   189  THR189     -0.2866
     66  CB        28.3510   -7.6870   40.3060 C.3   189  THR189      0.1770
     67  OG1       27.5310   -7.9720   39.1690 O.3   189  THR189     -0.2211
     68  CG2       29.8240   -7.8560   39.9300 C.3   189  THR189      0.0375
     69  N         22.8250  -10.0390   35.0760 N.3   207  LYS207     -0.1231
     70  CA        23.8840   -9.0670   34.7790 C.3   207  LYS207      0.1693
     71  C         23.4380   -7.6880   35.2540 C.2   207  LYS207      0.2593
     72  O         22.4080   -7.1630   34.8050 O.2   207  LYS207     -0.2718
     73  CB        24.2060   -8.9970   33.2780 C.3   207  LYS207      0.0285
     74  CG        25.2840   -7.9670   32.9300 C.3   207  LYS207      0.0035
     75  CD        26.6720   -8.4570   33.3530 C.3   207  LYS207      0.0206
     76  CE        27.7130   -7.3300   33.3720 C.3   207  LYS207      0.1093
     77  NZ        27.6850   -6.5490   34.6720 N.3   207  LYS207     -0.1314
     78  N         24.2010   -7.1240   36.1870 N.am  208  THR208     -0.1939
     79  CA        23.9380   -5.8010   36.7410 C.3   208  THR208      0.2028
     80  C         24.5710   -4.6910   35.8870 C.2   208  THR208      0.2643
     81  O         25.3490   -4.9400   34.9690 O.2   208  THR208     -0.2714
     82  CB        24.5310   -5.7100   38.1530 C.3   208  THR208      0.1808
     83  OG1       25.8920   -6.1400   38.0920 O.3   208  THR208     -0.2208
     84  CG2       23.7620   -6.6020   39.1570 C.3   208  THR208      0.0379
     85  N         24.2360   -3.4570   36.2350 N.am  209  GLY209     -0.1939
     86  CA        24.9410   -2.3060   35.7180 C.3   209  GLY209      0.2014
     87  C         24.6360   -1.0950   36.5660 C.2   209  GLY209      0.2640
     88  O         23.6430   -1.0630   37.2730 O.2   209  GLY209     -0.2714
     89  N         25.5040   -0.1010   36.5070 N.am  210  SER210     -0.1935
     90  CA        25.2120    1.1690   37.1440 C.3   210  SER210      0.2055
     91  C         25.9170    2.2750   36.3890 C.2   210  SER210      0.2644
     92  O         26.8060    2.0230   35.5740 O.2   210  SER210     -0.2714
     93  CB        25.5930    1.1580   38.6260 C.3   210  SER210      0.2130
     94  OG        26.9900    1.1330   38.8020 O.3   210  SER210     -0.2179
     95  N         25.5090    3.5040   36.6630 N.am  211  GLY211     -0.1939
     96  CA        26.0140    4.6440   35.9380 C.3   211  GLY211      0.2014
     97  C         25.8330    5.8950   36.7430 C.2   211  GLY211      0.2638
     98  O         25.3430    5.8670   37.8730 O.2   211  GLY211     -0.2714
     99  N         26.1830    7.0130   36.1250 N.am  212  ASP212     -0.1971
    100  CA        25.8580    8.3010   36.7040 C.3   212  ASP212      0.1709
    101  C         24.3280    8.4360   36.7760 C.2   212  ASP212      0.2293
    102  O         23.5920    7.5800   36.2700 O.2   212  ASP212     -0.2864
    103  CB        26.4970    9.4150   35.8800 C.3   212  ASP212      0.1436
    104  CG        28.0060    9.4000   35.9600 C.2   212  ASP212      0.3671
    105  OD1       28.5570    8.7600   36.8830 O.co2 212  ASP212     -0.2456
    106  OD2       28.6480   10.0440   35.1050 O.co2 212  ASP212     -0.2456
    107  N         23.3940    5.1390   44.2720 N.3   245  ARG245     -0.1245
    108  CA        22.9440    3.8350   43.7680 C.3   245  ARG245      0.1563
    109  C         21.7680    3.3150   44.5980 C.2   245  ARG245      0.2260
    110  O         21.7410    3.5030   45.8110 O.2   245  ARG245     -0.2867
    111  CB        24.0980    2.8410   43.8970 C.3   245  ARG245      0.0307
    112  CG        23.9530    1.6110   43.0310 C.3   245  ARG245      0.0489
    113  CD        24.3200    1.9500   41.6230 C.3   245  ARG245      0.2205
    114  NE        25.5310    2.7760   41.5950 N.pl3 245  ARG245     -0.0865
    115  CZ        25.6580    3.9250   40.9300 C.cat 245  ARG245      0.5346
    116  NH1       24.6580    4.3990   40.1980 N.pl3 245  ARG245      0.1354
    117  NH2       26.8010    4.5960   40.9810 N.pl3 245  ARG245      0.1354
    118  N         20.2240   -0.1960   44.6210 N.3   247  ARG247     -0.1245
    119  CA        19.9860   -1.6210   44.3690 C.3   247  ARG247      0.1563
    120  C         18.7380   -2.1310   45.0870 C.2   247  ARG247      0.2260
    121  O         18.0630   -3.0430   44.5990 O.2   247  ARG247     -0.2867
    122  CB        21.2380   -2.4570   44.6750 C.3   247  ARG247      0.0307
    123  CG        22.3580   -2.1870   43.6820 C.3   247  ARG247      0.0489
    124  CD        23.6000   -2.9970   43.9750 C.3   247  ARG247      0.2205
    125  NE        24.1830   -2.6580   45.2620 N.pl3 247  ARG247     -0.0865
    126  CZ        25.2770   -3.2270   45.7600 C.cat 247  ARG247      0.5346
    127  NH1       25.9230   -4.1670   45.0760 N.pl3 247  ARG247      0.1354
    128  NH2       25.7270   -2.8520   46.9480 N.pl3 247  ARG247      0.1354
@<TRIPOS>BOND
     1    47    53    1
     2    47    48    1
     3    42    41    2
     4    53    52    1
     5    49    48    1
     6    49    50    2
     7    54    55    1
     8     4     3    2
     9    48    51    1
    10    41    40    1
    11     1     2    1
    12    52    51    1
    13     3     2    1
    14     3     7   am
    15    55    56    1
    16    55    58    1
    17    10     9    2
    18     2     5    1
    19    40    43    1
    20    40    39    1
    21    61    59   am
    22     9     8    1
    23    56    57    2
    24    43    44    1
    25    59    60    2
    26    59    58    1
    27     8     7    1
    28     8    11    1
    29    45    44    2
    30    44    46   am
    31     5     6    1
    32    74    73    1
    33    74    75    1
    34    73    70    1
    35    75    76    1
    36    76    77    1
    37    11    12    1
    38    19    18    2
    39    13    14    1
    40    18    17    1
    41    18    20   am
    42    24    23    2
    43    35    36    2
    44    35    34    1
    45    70    69    1
    46    70    71    1
    47    72    71    2
    48    38    37    1
    49    81    80    2
    50    17    14    1
    51    14    15    1
    52    34    33    1
    53    34    37    1
    54   106   104   ar
    55    71    78   am
    56    21    15   am
    57    21    22    1
    58    92    91    2
    59    23    22    1
    60    86    85    1
    61    86    87    1
    62   103   104    1
    63   103   100    1
    64    80    85   am
    65    80    79    1
    66    96    95    1
    67    96    97    1
    68   104   105   ar
    69    15    16    2
    70    99   100    1
    71    99    97   am
    72    78    79    1
    73   102   101    2
    74    22    25    1
    75    91    95   am
    76    91    90    1
    77    89    87   am
    78    89    90    1
    79    87    88    2
    80   100   101    1
    81    79    82    1
    82    97    98    2
    83    25    26    1
    84    90    93    1
    85    27    26   ar
    86    27    29   ar
    87    26    28   ar
    88    83    82    1
    89    82    84    1
    90    29    31   ar
    91    93    94    1
    92    28    30   ar
    93    67    66    1
    94    31    30   ar
    95    31    32    1
    96    68    66    1
    97   116   115    1
    98    66    63    1
    99   115   117    1
   100   115   114    2
   101    62    63    1
   102    63    64    1
   103   114   113    1
   104   113   112    1
   105    64    65    2
   106   112   111    1
   107   123   124    1
   108   123   122    1
   109   108   111    1
   110   108   107    1
   111   108   109    1
   112   124   125    1
   113   119   118    1
   114   119   122    1
   115   119   120    1
   116   109   110    2
   117   121   120    2
   118   127   126    1
   119   125   126    2
   120   126   128    1
