@<TRIPOS>MOLECULE
tmp/4x6dA01.pdb
 248 241 0 0 0
SMALL
GASTEIGER

@<TRIPOS>ATOM
      1  N        -23.2550  -50.4380   46.9550 N.3     4  PHE4       -0.1241
      2  CA       -21.9170  -49.9210   46.7200 C.3     4  PHE4        0.1605
      3  C        -21.7280  -48.5340   47.3540 C.2     4  PHE4        0.2264
      4  O        -22.4810  -47.5990   47.0780 O.2     4  PHE4       -0.2867
      5  CB       -21.6170  -49.8600   45.2240 C.3     4  PHE4        0.0534
      6  CG       -20.2900  -49.2600   44.9180 C.ar    4  PHE4       -0.0203
      7  CD1      -19.1370  -50.0160   45.0380 C.ar    4  PHE4       -0.0042
      8  CD2      -20.1880  -47.9300   44.5440 C.ar    4  PHE4       -0.0042
      9  CE1      -17.9010  -49.4640   44.7760 C.ar    4  PHE4       -0.0003
     10  CE2      -18.9560  -47.3660   44.2830 C.ar    4  PHE4       -0.0003
     11  CZ       -17.8070  -48.1350   44.3980 C.ar    4  PHE4       -0.0000
     12  N        -18.7110  -45.4310   48.8390 N.3     6  VAL6       -0.1245
     13  CA       -17.3420  -44.9240   48.9020 C.3     6  VAL6        0.1561
     14  C        -17.1760  -44.1960   50.2230 C.2     6  VAL6        0.2260
     15  O        -17.9570  -43.2900   50.5270 O.2     6  VAL6       -0.2867
     16  CB       -17.0190  -43.9640   47.7380 C.3     6  VAL6        0.0252
     17  CG1      -15.6120  -43.4220   47.8660 C.3     6  VAL6        0.0019
     18  CG2      -17.2070  -44.6610   46.3990 C.3     6  VAL6        0.0019
     19  N        -14.9000  -42.1110   53.3510 N.3     8  TRP8       -0.1241
     20  CA       -13.8580  -41.1180   53.5830 C.3     8  TRP8        0.1605
     21  C        -13.5450  -41.0590   55.0610 C.2     8  TRP8        0.2264
     22  O        -14.4490  -40.8830   55.8770 O.2     8  TRP8       -0.2867
     23  CB       -14.3010  -39.7310   53.1210 C.3     8  TRP8        0.0550
     24  CG       -13.9500  -39.3610   51.7210 C.ar    8  TRP8        0.0003
     25  CD1      -12.7610  -38.8640   51.2820 C.ar    8  TRP8        0.0946
     26  CD2      -14.8140  -39.4110   50.5750 C.ar    8  TRP8        0.0152
     27  NE1      -12.8220  -38.6200   49.9290 N.ar    8  TRP8       -0.2442
     28  CE2      -14.0720  -38.9460   49.4720 C.ar    8  TRP8        0.0810
     29  CE3      -16.1410  -39.8130   50.3750 C.ar    8  TRP8        0.0012
     30  CZ2      -14.6100  -38.8710   48.1880 C.ar    8  TRP8        0.0191
     31  CZ3      -16.6740  -39.7370   49.1000 C.ar    8  TRP8        0.0001
     32  CH2      -15.9080  -39.2710   48.0230 C.ar    8  TRP8        0.0015
     33  N         -9.4270  -43.0560   51.5600 N.3    17  VAL17      -0.1231
     34  CA       -10.5340  -43.2140   50.6140 C.3    17  VAL17       0.1692
     35  C        -10.6380  -44.6310   50.0640 C.2    17  VAL17       0.2593
     36  O         -9.7030  -45.1330   49.4400 O.2    17  VAL17      -0.2718
     37  CB       -10.3990  -42.2720   49.4030 C.3    17  VAL17       0.0266
     38  CG1      -11.5860  -42.4660   48.4470 C.3    17  VAL17       0.0020
     39  CG2      -10.2920  -40.8250   49.8530 C.3    17  VAL17       0.0020
     40  N        -11.7790  -45.2750   50.2640 N.am   18  SER18      -0.1938
     41  CA       -11.9800  -46.5770   49.6490 C.3    18  SER18       0.2055
     42  C        -13.3980  -46.7380   49.1080 C.2    18  SER18       0.2643
     43  O        -14.3060  -45.9950   49.4660 O.2    18  SER18      -0.2714
     44  CB       -11.6480  -47.6930   50.6390 C.3    18  SER18       0.2130
     45  OG       -12.0760  -47.3860   51.9570 O.3    18  SER18      -0.2179
     46  N        -13.5670  -47.7070   48.2220 N.am   19  GLY19      -0.1954
     47  CA       -14.8510  -47.9750   47.6160 C.3    19  GLY19       0.1869
     48  C        -15.2010  -49.4330   47.7990 C.2    19  GLY19       0.2309
     49  O        -14.4180  -50.3200   47.4420 O.2    19  GLY19      -0.2863
     50  N        -12.3000  -50.9860   45.5850 N.3    27  HIS27      -0.1226
     51  CA       -11.5150  -49.8420   45.1340 C.3    27  HIS27       0.1752
     52  C        -10.6830  -49.2400   46.2570 C.2    27  HIS27       0.2597
     53  O        -11.1290  -49.1590   47.4040 O.2    27  HIS27      -0.2718
     54  CB       -12.4310  -48.7780   44.5150 C.3    27  HIS27       0.0759
     55  CG       -13.1590  -49.2550   43.2960 C.ar   27  HIS27       0.0818
     56  ND1      -14.2990  -50.0280   43.3630 N.ar   27  HIS27      -0.2268
     57  CD2      -12.8930  -49.0960   41.9770 C.ar   27  HIS27       0.1154
     58  CE1      -14.7080  -50.3180   42.1400 C.ar   27  HIS27       0.1986
     59  NE2      -13.8720  -49.7640   41.2810 N.ar   27  HIS27      -0.2212
     60  N         -9.4660  -48.8330   45.9070 N.am   28  THR28      -0.1939
     61  CA        -8.5230  -48.2460   46.8490 C.3    28  THR28       0.2028
     62  C         -7.9460  -46.9890   46.2270 C.2    28  THR28       0.2642
     63  O         -7.7320  -46.9450   45.0160 O.2    28  THR28      -0.2714
     64  CB        -7.3980  -49.2500   47.2130 C.3    28  THR28       0.1808
     65  OG1       -7.7440  -49.9320   48.4240 O.3    28  THR28      -0.2208
     66  CG2       -6.0540  -48.5540   47.4010 C.3    28  THR28       0.0379
     67  N         -7.7230  -45.9550   47.0350 N.am   29  TRP29      -0.1973
     68  CA        -7.0980  -44.7270   46.5410 C.3    29  TRP29       0.1640
     69  C         -5.6230  -44.6710   46.9550 C.2    29  TRP29       0.2290
     70  O         -5.2940  -44.7950   48.1420 O.2    29  TRP29      -0.2864
     71  CB        -7.8500  -43.4900   47.0520 C.3    29  TRP29       0.0576
     72  CG        -7.2900  -42.1880   46.5380 C.ar   29  TRP29       0.0006
     73  CD1       -6.3050  -41.4410   47.1120 C.ar   29  TRP29       0.0946
     74  CD2       -7.6800  -41.4800   45.3470 C.ar   29  TRP29       0.0152
     75  NE1       -6.0540  -40.3180   46.3590 N.ar   29  TRP29      -0.2442
     76  CE2       -6.8850  -40.3180   45.2710 C.ar   29  TRP29       0.0810
     77  CE3       -8.6230  -41.7180   44.3400 C.ar   29  TRP29       0.0012
     78  CZ2       -7.0040  -39.3970   44.2330 C.ar   29  TRP29       0.0191
     79  CZ3       -8.7370  -40.8040   43.3090 C.ar   29  TRP29       0.0001
     80  CH2       -7.9330  -39.6580   43.2630 C.ar   29  TRP29       0.0015
     81  N         -7.0680  -44.2060   41.3250 N.3    36  ILE36      -0.1245
     82  CA        -8.0010  -45.2350   41.7540 C.3    36  ILE36       0.1561
     83  C         -7.3830  -46.6030   41.4810 C.2    36  ILE36       0.2260
     84  O         -7.0040  -46.9020   40.3490 O.2    36  ILE36      -0.2867
     85  CB        -9.3640  -45.1150   41.0360 C.3    36  ILE36       0.0252
     86  CG1      -10.0450  -43.7850   41.3870 C.3    36  ILE36       0.0019
     87  CG2      -10.2650  -46.2850   41.3960 C.3    36  ILE36       0.0019
     88  CD1      -11.4210  -43.5850   40.7300 C.3    36  ILE36       0.0001
     89  N        -17.7220  -48.8140   32.9780 N.3    47  PHE47      -0.1241
     90  CA       -16.8510  -47.7630   32.5470 C.3    47  PHE47       0.1605
     91  C        -15.6580  -48.1980   31.7390 C.2    47  PHE47       0.2264
     92  O        -15.3530  -49.3660   31.6550 O.2    47  PHE47      -0.2867
     93  CB       -16.4420  -46.9320   33.7460 C.3    47  PHE47       0.0534
     94  CG       -17.5940  -46.2370   34.4200 C.ar   47  PHE47      -0.0203
     95  CD1      -18.8970  -46.4740   34.0360 C.ar   47  PHE47      -0.0042
     96  CD2      -17.3660  -45.3530   35.4300 C.ar   47  PHE47      -0.0042
     97  CE1      -19.9370  -45.8410   34.6460 C.ar   47  PHE47      -0.0003
     98  CE2      -18.4010  -44.7200   36.0470 C.ar   47  PHE47      -0.0003
     99  CZ       -19.6870  -44.9640   35.6550 C.ar   47  PHE47      -0.0000
    100  N        -12.8500  -43.5010   33.5680 N.3    52  TRP52      -0.1241
    101  CA       -12.2100  -43.7060   34.8660 C.3    52  TRP52       0.1605
    102  C        -11.2200  -42.5980   35.2090 C.2    52  TRP52       0.2264
    103  O        -11.2330  -42.0790   36.3320 O.2    52  TRP52      -0.2867
    104  CB       -11.5090  -45.0580   34.9050 C.3    52  TRP52       0.0550
    105  CG       -12.4180  -46.1610   35.3240 C.ar   52  TRP52       0.0003
    106  CD1      -12.7920  -47.2480   34.5850 C.ar   52  TRP52       0.0946
    107  CD2      -13.0870  -46.2830   36.5820 C.ar   52  TRP52       0.0152
    108  NE1      -13.6450  -48.0410   35.3110 N.ar   52  TRP52      -0.2442
    109  CE2      -13.8460  -47.4670   36.5380 C.ar   52  TRP52       0.0810
    110  CE3      -13.1190  -45.5040   37.7410 C.ar   52  TRP52       0.0012
    111  CZ2      -14.6270  -47.8890   37.6080 C.ar   52  TRP52       0.0191
    112  CZ3      -13.8960  -45.9270   38.8040 C.ar   52  TRP52       0.0001
    113  CH2      -14.6410  -47.1070   38.7290 C.ar   52  TRP52       0.0015
    114  N        -13.1060  -39.5530   36.1790 N.3    55  LEU55      -0.1245
    115  CA       -13.6660  -39.6470   37.5220 C.3    55  LEU55       0.1561
    116  C        -12.5980  -39.4680   38.5820 C.2    55  LEU55       0.2260
    117  O        -12.7420  -38.6670   39.5040 O.2    55  LEU55      -0.2867
    118  CB       -14.3500  -40.9940   37.7260 C.3    55  LEU55       0.0270
    119  CG       -15.7410  -41.2090   37.1460 C.3    55  LEU55       0.0019
    120  CD1      -16.0900  -42.6750   37.2900 C.3    55  LEU55       0.0001
    121  CD2      -16.7680  -40.3330   37.8550 C.3    55  LEU55       0.0001
    122  N        -11.8270  -36.0080   38.8850 N.3    58  LEU58      -0.1231
    123  CA       -12.9090  -35.3730   39.6200 C.3    58  LEU58       0.1693
    124  C        -12.7940  -35.6600   41.1240 C.2    58  LEU58       0.2592
    125  O        -13.0980  -34.8100   41.9520 O.2    58  LEU58      -0.2718
    126  CB       -14.2550  -35.8550   39.0640 C.3    58  LEU58       0.0284
    127  CG       -15.5340  -35.0570   39.3200 C.3    58  LEU58       0.0019
    128  CD1      -16.5140  -35.2650   38.1730 C.3    58  LEU58       0.0001
    129  CD2      -16.1810  -35.4430   40.6490 C.3    58  LEU58       0.0001
    130  N        -12.3410  -36.8540   41.4760 N.am   59  PHE59      -0.1976
    131  CA       -12.2010  -37.2060   42.8840 C.3    59  PHE59       0.1639
    132  C        -11.0300  -36.4940   43.5240 C.2    59  PHE59       0.2290
    133  O        -11.0460  -36.2020   44.7170 O.2    59  PHE59      -0.2864
    134  CB       -12.0480  -38.7200   43.0570 C.3    59  PHE59       0.0560
    135  CG       -13.3320  -39.4030   43.3810 C.ar   59  PHE59      -0.0200
    136  CD1      -13.5820  -39.8580   44.6580 C.ar   59  PHE59      -0.0042
    137  CD2      -14.3170  -39.5380   42.4120 C.ar   59  PHE59      -0.0042
    138  CE1      -14.7870  -40.4600   44.9560 C.ar   59  PHE59      -0.0003
    139  CE2      -15.5190  -40.1400   42.6990 C.ar   59  PHE59      -0.0003
    140  CZ       -15.7590  -40.6010   43.9720 C.ar   59  PHE59      -0.0000
    141  N        -12.0980  -32.5640   44.0000 N.3    62  ARG62      -0.1231
    142  CA       -13.2030  -32.3840   44.9290 C.3    62  ARG62       0.1694
    143  C        -12.7680  -32.6940   46.3510 C.2    62  ARG62       0.2592
    144  O        -13.1160  -31.9690   47.2800 O.2    62  ARG62      -0.2718
    145  CB       -14.3880  -33.2630   44.5230 C.3    62  ARG62       0.0321
    146  CG       -15.6960  -32.8760   45.1660 C.3    62  ARG62       0.0489
    147  CD       -16.2780  -31.6110   44.5460 C.3    62  ARG62       0.2205
    148  NE       -17.5260  -31.8710   43.8240 N.pl3  62  ARG62      -0.0865
    149  CZ       -18.6870  -32.1850   44.4020 C.cat  62  ARG62       0.5346
    150  NH1      -18.7860  -32.2970   45.7220 N.pl3  62  ARG62       0.1354
    151  NH2      -19.7570  -32.4010   43.6570 N.pl3  62  ARG62       0.1354
    152  N        -11.9970  -33.7660   46.5130 N.am   63  THR63      -0.1953
    153  CA       -11.4670  -34.1400   47.8230 C.3    63  THR63       0.1897
    154  C        -10.5650  -33.0340   48.3610 C.2    63  THR63       0.2313
    155  O        -10.7430  -32.5960   49.4950 O.2    63  THR63      -0.2863
    156  CB       -10.6830  -35.4750   47.7720 C.3    63  THR63       0.1794
    157  OG1      -11.6030  -36.5740   47.7470 O.3    63  THR63      -0.2208
    158  CG2       -9.7710  -35.6190   48.9860 C.3    63  THR63       0.0378
    159  N        -12.4950  -30.0600   49.5060 N.3    66  SER66      -0.1217
    160  CA       -13.1920  -30.3960   50.7370 C.3    66  SER66       0.1889
    161  C        -12.2290  -30.4860   51.9090 C.2    66  SER66       0.2288
    162  O        -12.5700  -30.1160   53.0290 O.2    66  SER66      -0.2866
    163  CB       -13.9420  -31.7150   50.5750 C.3    66  SER66       0.2089
    164  OG       -14.7570  -31.6840   49.4180 O.3    66  SER66      -0.2183
    165  N        -17.2280  -39.7570   55.8500 N.3    87  VAL87      -0.1245
    166  CA       -18.2380  -39.6040   54.8180 C.3    87  VAL87       0.1561
    167  C        -18.5070  -40.9240   54.1080 C.2    87  VAL87       0.2260
    168  O        -17.5820  -41.6120   53.6990 O.2    87  VAL87      -0.2867
    169  CB       -17.8250  -38.5420   53.7890 C.3    87  VAL87       0.0252
    170  CG1      -18.7570  -38.5800   52.5960 C.3    87  VAL87       0.0019
    171  CG2      -17.8370  -37.1590   54.4260 C.3    87  VAL87       0.0019
    172  N        -20.8880  -42.4790   50.8780 N.3    89  GLY89      -0.1209
    173  CA       -21.7670  -42.1440   49.7750 C.3    89  GLY89       0.1959
    174  C        -21.9180  -43.2860   48.7970 C.2    89  GLY89       0.2651
    175  O        -20.9960  -44.0870   48.6140 O.2    89  GLY89      -0.2714
    176  N        -23.0850  -43.3630   48.1700 N.am   90  GLY90      -0.1732
    177  CA       -23.3420  -44.4160   47.2070 C.2    90  GLY90       0.1340
    178  C        -24.8120  -44.6590   46.8950 C.2    90  GLY90       0.2521
    179  O        -25.6490  -43.7680   47.0060 O.2    90  GLY90      -0.2816
    180  N        -25.7820  -40.1270   51.0000 N.3   103  LEU103     -0.1245
    181  CA       -24.5150  -39.4560   51.2490 C.3   103  LEU103      0.1561
    182  C        -24.5770  -38.7820   52.6180 C.2   103  LEU103      0.2260
    183  O        -25.2950  -37.8000   52.8100 O.2   103  LEU103     -0.2867
    184  CB       -24.2030  -38.4440   50.1430 C.3   103  LEU103      0.0270
    185  CG       -22.9320  -37.6370   50.3870 C.3   103  LEU103      0.0019
    186  CD1      -21.7120  -38.5350   50.3570 C.3   103  LEU103      0.0001
    187  CD2      -22.8070  -36.5140   49.3910 C.3   103  LEU103      0.0001
    188  N        -27.8460  -29.9980   51.2140 N.3   120  TRP120     -0.1241
    189  CA       -27.3890  -30.5780   52.4720 C.3   120  TRP120      0.1605
    190  C        -28.3650  -30.2550   53.5760 C.2   120  TRP120      0.2264
    191  O        -28.8430  -29.1240   53.6750 O.2   120  TRP120     -0.2867
    192  CB       -25.9870  -30.0680   52.8470 C.3   120  TRP120      0.0550
    193  CG       -24.8580  -30.5790   51.9650 C.ar  120  TRP120      0.0003
    194  CD1      -24.3150  -29.9480   50.8810 C.ar  120  TRP120      0.0946
    195  CD2      -24.1410  -31.8100   52.1070 C.ar  120  TRP120      0.0152
    196  NE1      -23.3050  -30.7100   50.3400 N.ar  120  TRP120     -0.2442
    197  CE2      -23.1770  -31.8570   51.0740 C.ar  120  TRP120      0.0810
    198  CE3      -24.2150  -32.8780   53.0090 C.ar  120  TRP120      0.0012
    199  CZ2      -22.3040  -32.9330   50.9100 C.ar  120  TRP120      0.0191
    200  CZ3      -23.3360  -33.9540   52.8490 C.ar  120  TRP120      0.0001
    201  CH2      -22.3990  -33.9710   51.8060 C.ar  120  TRP120      0.0015
    202  N        -22.7290  -33.0460   42.9650 N.3   147  THR147     -0.1218
    203  CA       -22.9590  -34.0890   43.9660 C.3   147  THR147      0.1862
    204  C        -24.1930  -34.9140   43.6090 C.2   147  THR147      0.2287
    205  O        -24.2060  -36.1470   43.7100 O.2   147  THR147     -0.2866
    206  CB       -23.1750  -33.4990   45.3630 C.3   147  THR147      0.1770
    207  OG1      -22.0820  -32.6430   45.7080 O.3   147  THR147     -0.2211
    208  CG2      -23.3450  -34.6030   46.4000 C.3   147  THR147      0.0375
    209  N        -23.8400  -37.3390   40.5060 N.3   150  LEU150     -0.1231
    210  CA       -23.0680  -38.5330   40.8210 C.3   150  LEU150      0.1693
    211  C        -23.8790  -39.5420   41.6040 C.2   150  LEU150      0.2591
    212  O        -23.7860  -40.7380   41.3510 O.2   150  LEU150     -0.2718
    213  CB       -21.8140  -38.1540   41.6030 C.3   150  LEU150      0.0284
    214  CG       -20.8020  -37.3050   40.8230 C.3   150  LEU150      0.0019
    215  CD1      -19.8560  -36.6050   41.7710 C.3   150  LEU150      0.0001
    216  CD2      -20.0390  -38.1540   39.8070 C.3   150  LEU150      0.0001
    217  N        -24.6740  -39.0590   42.5550 N.am  151  LEU151     -0.1980
    218  CA       -25.4520  -39.9430   43.4230 C.3   151  LEU151      0.1596
    219  C        -26.6030  -40.5930   42.6980 C.2   151  LEU151      0.2287
    220  O        -26.9340  -41.7490   42.9670 O.2   151  LEU151     -0.2864
    221  CB       -26.0030  -39.1850   44.6200 C.3   151  LEU151      0.0297
    222  CG       -24.9290  -38.8300   45.6200 C.3   151  LEU151      0.0022
    223  CD1      -25.5380  -38.0530   46.7530 C.3   151  LEU151      0.0001
    224  CD2      -24.2940  -40.1010   46.1030 C.3   151  LEU151      0.0001
    225  N        -24.7080  -41.1920   37.9310 N.3   154  THR154     -0.1203
    226  CA       -23.4370  -41.8970   37.7690 C.3   154  THR154      0.1994
    227  C        -23.5050  -43.2290   38.5110 C.2   154  THR154      0.2618
    228  O        -23.4780  -44.2990   37.9030 O.2   154  THR154     -0.2717
    229  CB       -22.2280  -41.1000   38.3070 C.3   154  THR154      0.1784
    230  OG1      -22.2070  -39.7850   37.7500 O.3   154  THR154     -0.2211
    231  CG2      -20.9400  -41.8010   37.9410 C.3   154  THR154      0.0376
    232  N        -23.6230  -43.1450   39.8320 N.am  155  CYS155     -0.1969
    233  CA       -23.5550  -44.3150   40.6980 C.3   155  CYS155      0.1712
    234  C        -24.4920  -45.4680   40.2910 C.2   155  CYS155      0.2296
    235  O        -24.0500  -46.6140   40.2420 O.2   155  CYS155     -0.2864
    236  CB       -23.8260  -43.9010   42.1420 C.3   155  CYS155      0.0983
    237  SG       -23.4780  -45.2050   43.3100 S.3   155  CYS155     -0.0798
    238  N        -23.1790  -47.1640   37.3350 N.3   158  PHE158     -0.1241
    239  CA       -21.9680  -47.8720   37.6710 C.3   158  PHE158      0.1605
    240  C        -22.2620  -49.2150   38.3250 C.2   158  PHE158      0.2264
    241  O        -21.8840  -50.2570   37.7850 O.2   158  PHE158     -0.2867
    242  CB       -21.0840  -47.0410   38.5830 C.3   158  PHE158      0.0534
    243  CG       -19.9120  -47.7980   39.1100 C.ar  158  PHE158     -0.0203
    244  CD1      -19.0600  -48.4620   38.2430 C.ar  158  PHE158     -0.0042
    245  CD2      -19.6650  -47.8640   40.4640 C.ar  158  PHE158     -0.0042
    246  CE1      -17.9820  -49.1710   38.7210 C.ar  158  PHE158     -0.0003
    247  CE2      -18.5830  -48.5690   40.9470 C.ar  158  PHE158     -0.0003
    248  CZ       -17.7410  -49.2230   40.0730 C.ar  158  PHE158     -0.0000
@<TRIPOS>BOND
     1    92    91    2
     2    91    90    1
     3    90    89    1
     4    90    93    1
     5   100   101    1
     6    93    94    1
     7    95    94   ar
     8    95    97   ar
     9    94    96   ar
    10   106   108   ar
    11   106   105   ar
    12    97    99   ar
    13   101   104    1
    14   101   102    1
    15   104   105    1
    16   102   103    2
    17   108   109   ar
    18   105   107   ar
    19    96    98   ar
    20    99    98   ar
    21   114   115    1
    22   109   107   ar
    23   109   111   ar
    24   107   110   ar
    25   119   120    1
    26   119   118    1
    27   119   121    1
    28   238   239    1
    29   115   118    1
    30   115   116    1
    31   111   113   ar
    32   239   240    1
    33   239   242    1
    34   110   112   ar
    35   230   229    1
    36   226   225    1
    37   226   229    1
    38   226   227    1
    39   241   240    2
    40   228   227    2
    41   231   229    1
    42   128   127    1
    43   244   246   ar
    44   244   243   ar
    45   227   232   am
    46   116   117    2
    47   242   243    1
    48   246   248   ar
    49   113   112   ar
    50   122   123    1
    51   126   127    1
    52   126   123    1
    53   243   245   ar
    54   127   129    1
    55   123   124    1
    56   216   214    1
    57   232   233    1
    58   248   247   ar
    59   235   234    2
    60   234   233    1
    61    84    83    2
    62   245   247   ar
    63   209   210    1
    64   233   236    1
    65    88    86    1
    66   210   213    1
    67   210   211    1
    68   214   213    1
    69   214   215    1
    70    85    86    1
    71    85    87    1
    72    85    82    1
    73   124   130   am
    74   124   125    2
    75    59    57   ar
    76    59    58   ar
    77    81    82    1
    78   212   211    2
    79   130   131    1
    80    83    82    1
    81   211   217   am
    82    57    55   ar
    83    58    56   ar
    84   236   237    1
    85   137   139   ar
    86   137   135   ar
    87   217   218    1
    88   219   220    2
    89   219   218    1
    90   139   140   ar
    91   131   134    1
    92   131   132    1
    93   202   203    1
    94   134   135    1
    95    80    79   ar
    96    80    78   ar
    97    55    56   ar
    98    55    54    1
    99    79    77   ar
   100   135   136   ar
   101   218   221    1
   102   132   133    2
   103   204   205    2
   104   204   203    1
   105   151   149    1
   106   148   149    2
   107   148   147    1
   108   203   206    1
   109   140   138   ar
   110   141   142    1
   111    78    76   ar
   112    10    11   ar
   113    10     8   ar
   114    77    74   ar
   115    11     9   ar
   116   149   150    1
   117    54    51    1
   118   145   142    1
   119   145   146    1
   120     8     6   ar
   121   147   146    1
   122   221   222    1
   123   136   138   ar
   124     9     7   ar
   125     6     7   ar
   126     6     5    1
   127   142   143    1
   128    63    62    2
   129    51    50    1
   130    51    52    1
   131     5     2    1
   132    76    74   ar
   133    76    75   ar
   134    74    72   ar
   135   206   207    1
   136   206   208    1
   137   222   224    1
   138   222   223    1
   139    60    52   am
   140    60    61    1
   141    62    61    1
   142    62    67   am
   143    52    53    2
   144   143   152   am
   145   143   144    2
   146    75    73   ar
   147    18    16    1
   148   152   153    1
   149    72    71    1
   150    72    73   ar
   151    68    69    1
   152    68    67    1
   153    68    71    1
   154     2     1    1
   155     2     3    1
   156    61    64    1
   157   178   179    2
   158   178   177    1
   159    69    70    2
   160     4     3    2
   161   177   176    2
   162    64    66    1
   163    64    65    1
   164    49    48    2
   165    47    48    1
   166    47    46    1
   167    16    17    1
   168    16    13    1
   169   157   156    1
   170   156   153    1
   171   156   158    1
   172   153   154    1
   173    32    30   ar
   174    32    31   ar
   175   176   174    1
   176    30    28   ar
   177    46    42   am
   178   154   155    2
   179    38    37    1
   180   175   174    2
   181   174   173    1
   182    12    13    1
   183    13    14    1
   184    31    29   ar
   185    42    43    2
   186    42    41    1
   187   187   185    1
   188    37    39    1
   189    37    34    1
   190   164   163    1
   191    36    35    2
   192    28    27   ar
   193    28    26   ar
   194   159   160    1
   195    41    40    1
   196    41    44    1
   197   173   172    1
   198    27    25   ar
   199    35    40   am
   200    35    34    1
   201   184   185    1
   202   184   181    1
   203    14    15    2
   204   196   194   ar
   205   196   197   ar
   206   186   185    1
   207    29    26   ar
   208    26    24   ar
   209   163   160    1
   210    34    33    1
   211    44    45    1
   212   160   161    1
   213   194   193   ar
   214   199   197   ar
   215   199   201   ar
   216   180   181    1
   217   197   195   ar
   218   188   189    1
   219   181   182    1
   220    25    24   ar
   221    24    23    1
   222   201   200   ar
   223   161   162    2
   224   193   195   ar
   225   193   192    1
   226   195   198   ar
   227   189   192    1
   228   189   190    1
   229   170   169    1
   230   182   183    2
   231   200   198   ar
   232    23    20    1
   233    19    20    1
   234   190   191    2
   235    20    21    1
   236   168   167    2
   237   169   171    1
   238   169   166    1
   239   167   166    1
   240   166   165    1
   241    21    22    2
