@<TRIPOS>MOLECULE
tmp/4x6dA00.pdb
 81 76 0 0 0
SMALL
GASTEIGER

@<TRIPOS>ATOM
      1  N        -18.6230  -51.3410   33.9930 N.3    46  ASN46      -0.1225
      2  CA       -19.0710  -50.7690   32.7140 C.3    46  ASN46       0.1785
      3  C        -18.1310  -49.7400   32.1480 C.2    46  ASN46       0.2597
      4  O        -17.7850  -49.7750   30.9930 O.2    46  ASN46      -0.2718
      5  CB       -20.4850  -50.1550   32.7930 C.3    46  ASN46       0.1169
      6  CG       -21.4010  -50.7260   31.7390 C.2    46  ASN46       0.2627
      7  OD1      -21.0690  -51.7640   31.1970 O.2    46  ASN46      -0.2716
      8  ND2      -22.5400  -50.0890   31.4170 N.am   46  ASN46      -0.0877
      9  N        -17.7220  -48.8140   32.9780 N.am   47  PHE47      -0.1976
     10  CA       -16.8510  -47.7630   32.5470 C.3    47  PHE47       0.1639
     11  C        -15.6580  -48.1980   31.7390 C.2    47  PHE47       0.2290
     12  O        -15.3530  -49.3660   31.6550 O.2    47  PHE47      -0.2864
     13  CB       -16.4420  -46.9320   33.7460 C.3    47  PHE47       0.0560
     14  CG       -17.5940  -46.2370   34.4200 C.ar   47  PHE47      -0.0200
     15  CD1      -18.8970  -46.4740   34.0360 C.ar   47  PHE47      -0.0042
     16  CD2      -17.3660  -45.3530   35.4300 C.ar   47  PHE47      -0.0042
     17  CE1      -19.9370  -45.8410   34.6460 C.ar   47  PHE47      -0.0003
     18  CE2      -18.4010  -44.7200   36.0470 C.ar   47  PHE47      -0.0003
     19  CZ       -19.6870  -44.9640   35.6550 C.ar   47  PHE47      -0.0000
     20  N        -13.3310  -42.7390   30.8400 N.3    51  GLU51      -0.1245
     21  CA       -14.1350  -42.2890   31.9400 C.3    51  GLU51       0.1567
     22  C        -13.4470  -42.3630   33.2790 C.2    51  GLU51       0.2260
     23  O        -13.4400  -41.4120   34.0350 O.2    51  GLU51      -0.2867
     24  CB       -15.4260  -43.0740   31.9540 C.3    51  GLU51       0.0388
     25  CG       -16.3350  -42.6900   30.8130 C.3    51  GLU51       0.1160
     26  CD       -17.2260  -43.8100   30.3700 C.2    51  GLU51       0.3649
     27  OE1      -16.9760  -44.9420   30.7650 O.co2  51  GLU51      -0.2457
     28  OE2      -18.1760  -43.5670   29.6150 O.co2  51  GLU51      -0.2457
     29  N        -32.7420  -50.1100   41.1660 N.3    98  VAL98      -0.1245
     30  CA       -32.2050  -48.9480   41.8850 C.3    98  VAL98       0.1561
     31  C        -33.1060  -48.4890   43.0330 C.2    98  VAL98       0.2260
     32  O        -34.0960  -47.7870   42.8220 O.2    98  VAL98      -0.2867
     33  CB       -31.9760  -47.7550   40.9360 C.3    98  VAL98       0.0252
     34  CG1      -31.3340  -46.5860   41.6870 C.3    98  VAL98       0.0019
     35  CG2      -31.1140  -48.1820   39.7580 C.3    98  VAL98       0.0019
     36  N        -27.2660  -40.5360   39.1070 N.3   153  ASP153     -0.1239
     37  CA       -27.1400  -41.0270   37.7400 C.3   153  ASP153      0.1674
     38  C        -25.8260  -41.7380   37.4660 C.2   153  ASP153      0.2266
     39  O        -25.8260  -42.7760   36.8180 O.2   153  ASP153     -0.2867
     40  CB       -27.3190  -39.9000   36.7310 C.3   153  ASP153      0.1410
     41  CG       -27.6850  -40.4200   35.3570 C.2   153  ASP153      0.3668
     42  OD1      -26.7640  -40.7460   34.5770 O.co2 153  ASP153     -0.2456
     43  OD2      -28.8960  -40.5220   35.0640 O.co2 153  ASP153     -0.2456
     44  N        -25.7770  -45.1830   39.9940 N.3   156  PRO156     -0.2102
     45  CA       -26.6400  -46.2820   39.5400 C.3   156  PRO156      0.1504
     46  C        -26.1480  -46.9660   38.2620 C.2   156  PRO156      0.2575
     47  O        -26.1380  -48.1950   38.2110 O.2   156  PRO156     -0.2718
     48  CB       -27.9740  -45.5890   39.2940 C.3   156  PRO156      0.0282
     49  CG       -27.9440  -44.4290   40.2190 C.3   156  PRO156      0.0208
     50  CD       -26.5480  -43.9400   40.1740 C.3   156  PRO156      0.0893
     51  N        -25.6950  -46.2090   37.2920 N.am  157  ARG157     -0.1980
     52  CA       -25.1930  -46.8080   36.0910 C.3   157  ARG157      0.1597
     53  C        -24.0090  -47.6580   36.4430 C.2   157  ARG157      0.2287
     54  O        -23.8330  -48.7330   35.9180 O.2   157  ARG157     -0.2864
     55  CB       -24.7010  -45.7260   35.1470 C.3   157  ARG157      0.0334
     56  CG       -25.7520  -45.1020   34.2590 C.3   157  ARG157      0.0492
     57  CD       -25.1000  -44.2890   33.1610 C.3   157  ARG157      0.2205
     58  NE       -24.7060  -42.9610   33.5960 N.pl3 157  ARG157     -0.0865
     59  CZ       -23.4510  -42.5570   33.6450 C.cat 157  ARG157      0.5346
     60  NH1      -22.5000  -43.3840   33.2940 N.pl3 157  ARG157      0.1354
     61  NH2      -23.1440  -41.3420   34.0460 N.pl3 157  ARG157      0.1354
     62  N        -24.6140  -51.1910   38.4730 N.3   160  LEU160     -0.1231
     63  CA       -25.1880  -52.1900   37.6010 C.3   160  LEU160      0.1693
     64  C        -24.0980  -52.8510   36.7860 C.2   160  LEU160      0.2592
     65  O        -24.0360  -54.0560   36.6700 O.2   160  LEU160     -0.2718
     66  CB       -26.1980  -51.5480   36.6900 C.3   160  LEU160      0.0284
     67  CG       -27.5310  -51.4350   37.3850 C.3   160  LEU160      0.0019
     68  CD1      -28.4420  -50.5130   36.6160 C.3   160  LEU160      0.0001
     69  CD2      -28.1470  -52.8090   37.4810 C.3   160  LEU160      0.0001
     70  N        -23.2350  -52.0460   36.2090 N.am  161  GLY161     -0.1957
     71  CA       -22.1350  -52.5680   35.4360 C.3   161  GLY161      0.1869
     72  C        -21.3040  -53.4910   36.2890 C.2   161  GLY161      0.2309
     73  O        -21.0970  -54.6410   35.9350 O.2   161  GLY161     -0.2863
     74  N        -22.7690  -56.9660   36.9610 N.3   164  ASP164     -0.1239
     75  CA       -22.6490  -57.7830   35.7540 C.3   164  ASP164      0.1674
     76  C        -21.2020  -58.2100   35.4880 C.2   164  ASP164      0.2266
     77  O        -20.9470  -59.3100   34.9900 O.2   164  ASP164     -0.2867
     78  CB       -23.2160  -57.0070   34.5550 C.3   164  ASP164      0.1410
     79  CG       -22.6740  -57.4880   33.2180 C.2   164  ASP164      0.3668
     80  OD1      -22.7090  -58.7100   32.9540 O.co2 164  ASP164     -0.2456
     81  OD2      -22.2250  -56.6290   32.4240 O.co2 164  ASP164     -0.2456
@<TRIPOS>BOND
     1    28    26   ar
     2    26    27   ar
     3    26    25    1
     4    25    24    1
     5    20    21    1
     6     4     3    2
     7     7     6    2
     8     8     6   am
     9    12    11    2
    10     6     5    1
    11    11    10    1
    12    21    24    1
    13    21    22    1
    14     3     2    1
    15     3     9   am
    16    81    79   ar
    17    10     9    1
    18    10    13    1
    19     2     5    1
    20     2     1    1
    21    80    79   ar
    22    57    58    1
    23    57    56    1
    24    79    78    1
    25    22    23    2
    26    60    59    1
    27    58    59    2
    28    59    61    1
    29    13    14    1
    30    15    14   ar
    31    15    17   ar
    32    56    55    1
    33    14    16   ar
    34    78    75    1
    35    42    41   ar
    36    17    19   ar
    37    77    76    2
    38    43    41   ar
    39    55    52    1
    40    41    40    1
    41    16    18   ar
    42    71    70    1
    43    71    72    1
    44    76    75    1
    45    19    18   ar
    46    75    74    1
    47    54    53    2
    48    73    72    2
    49    52    53    1
    50    52    51    1
    51    70    64   am
    52    68    67    1
    53    65    64    2
    54    66    67    1
    55    66    63    1
    56    40    37    1
    57    64    63    1
    58    39    38    2
    59    51    46   am
    60    67    69    1
    61    38    37    1
    62    63    62    1
    63    37    36    1
    64    47    46    2
    65    46    45    1
    66    48    45    1
    67    48    49    1
    68    45    44    1
    69    35    33    1
    70    44    50    1
    71    50    49    1
    72    33    34    1
    73    33    30    1
    74    29    30    1
    75    30    31    1
    76    32    31    2
