@<TRIPOS>MOLECULE
tmp/4x6eA00.pdb
 95 88 0 0 0
SMALL
GASTEIGER

@<TRIPOS>ATOM
      1  N         14.2720  100.1900   33.6790 N.3    47  PHE47      -0.1241
      2  CA        14.8030  101.5260   33.9220 C.3    47  PHE47       0.1605
      3  C         13.6640  102.5280   34.0410 C.2    47  PHE47       0.2264
      4  O         12.6890  102.4660   33.2880 O.2    47  PHE47      -0.2867
      5  CB        15.7640  101.9580   32.8060 C.3    47  PHE47       0.0534
      6  CG        17.1340  101.2980   32.8660 C.ar   47  PHE47      -0.0203
      7  CD1       18.1740  101.7600   32.0640 C.ar   47  PHE47      -0.0042
      8  CD2       17.3820  100.2220   33.7120 C.ar   47  PHE47      -0.0042
      9  CE1       19.4340  101.1700   32.1150 C.ar   47  PHE47      -0.0003
     10  CE2       18.6380   99.6220   33.7610 C.ar   47  PHE47      -0.0003
     11  CZ        19.6630  100.1000   32.9640 C.ar   47  PHE47      -0.0000
     12  N         15.7500  107.9630   34.7990 N.3    51  GLU51      -0.1245
     13  CA        17.0240  107.4150   34.3500 C.3    51  GLU51       0.1567
     14  C         17.1270  107.4190   32.8220 C.2    51  GLU51       0.2260
     15  O         18.2200  107.5430   32.2650 O.2    51  GLU51      -0.2867
     16  CB        17.2180  106.0010   34.8990 C.3    51  GLU51       0.0388
     17  CG        17.2650  105.9490   36.4150 C.3    51  GLU51       0.1160
     18  CD        17.6780  104.5890   36.9430 C.2    51  GLU51       0.3649
     19  OE1       16.9760  103.5960   36.6440 O.co2  51  GLU51      -0.2457
     20  OE2       18.7060  104.5150   37.6560 O.co2  51  GLU51      -0.2457
     21  N         18.2880  110.6900   31.7380 N.3    54  GLU54      -0.1231
     22  CA        19.7420  110.7940   31.8660 C.3    54  GLU54       0.1699
     23  C         20.4450  110.2560   30.6270 C.2    54  GLU54       0.2592
     24  O         21.3430  110.9030   30.0750 O.2    54  GLU54      -0.2718
     25  CB        20.2420  110.0420   33.1090 C.3    54  GLU54       0.0402
     26  CG        19.7380  110.6010   34.4380 C.3    54  GLU54       0.1161
     27  CD        20.5970  110.1850   35.6270 C.2    54  GLU54       0.3649
     28  OE1       21.6140  109.4810   35.4220 O.co2  54  GLU54      -0.2457
     29  OE2       20.2510  110.5690   36.7680 O.co2  54  GLU54      -0.2457
     30  N         20.0280  109.0670   30.1980 N.am   55  LEU55      -0.1980
     31  CA        20.6260  108.4020   29.0380 C.3    55  LEU55       0.1596
     32  C         20.4750  109.2310   27.7680 C.2    55  LEU55       0.2287
     33  O         21.4080  109.3170   26.9710 O.2    55  LEU55      -0.2864
     34  CB        20.0060  107.0190   28.8410 C.3    55  LEU55       0.0297
     35  CG        20.5590  105.9060   29.7350 C.3    55  LEU55       0.0022
     36  CD1       19.7100  104.6460   29.6230 C.3    55  LEU55       0.0001
     37  CD2       22.0100  105.6190   29.3600 C.3    55  LEU55       0.0001
     38  N         23.0790  111.9590   27.6330 N.3    58  LEU58      -0.1245
     39  CA        24.3670  111.3920   27.2560 C.3    58  LEU58       0.1561
     40  C         24.3750  111.0950   25.7640 C.2    58  LEU58       0.2260
     41  O         25.3120  111.4540   25.0530 O.2    58  LEU58      -0.2867
     42  CB        24.6740  110.1190   28.0450 C.3    58  LEU58       0.0270
     43  CG        26.0510  109.5260   27.7310 C.3    58  LEU58       0.0019
     44  CD1       27.1640  110.4740   28.1800 C.3    58  LEU58       0.0001
     45  CD2       26.2020  108.1680   28.3760 C.3    58  LEU58       0.0001
     46  N         34.3430  107.0850   30.7180 N.3   139  ILE139     -0.1245
     47  CA        32.8870  107.0450   30.6740 C.3   139  ILE139      0.1561
     48  C         32.4710  105.9130   29.7300 C.2   139  ILE139      0.2260
     49  O         31.5640  105.1310   30.0400 O.2   139  ILE139     -0.2867
     50  CB        32.2870  108.4020   30.2390 C.3   139  ILE139      0.0252
     51  CG1       32.5120  109.4400   31.3570 C.3   139  ILE139      0.0019
     52  CG2       30.8000  108.2560   29.9310 C.3   139  ILE139      0.0019
     53  CD1       32.0660  110.8530   31.0410 C.3   139  ILE139      0.0001
     54  N         32.6990  102.4520   31.3250 N.3   142  ASN142     -0.1225
     55  CA        31.6120  102.2110   32.2710 C.3   142  ASN142      0.1785
     56  C         30.2830  101.9510   31.5730 C.2   142  ASN142      0.2597
     57  O         29.4630  101.1840   32.0660 O.2   142  ASN142     -0.2718
     58  CB        31.4600  103.3890   33.2340 C.3   142  ASN142      0.1169
     59  CG        32.6360  103.5330   34.1630 C.2   142  ASN142      0.2627
     60  OD1       33.4180  102.6030   34.3350 O.2   142  ASN142     -0.2716
     61  ND2       32.7690  104.7030   34.7750 N.am  142  ASN142     -0.0877
     62  N         30.0710  102.6020   30.4340 N.am  143  LEU143     -0.1980
     63  CA        28.8650  102.3690   29.6440 C.3   143  LEU143      0.1596
     64  C         28.7640  100.9080   29.2450 C.2   143  LEU143      0.2287
     65  O         27.6950  100.2970   29.3220 O.2   143  LEU143     -0.2864
     66  CB        28.8520  103.2520   28.3960 C.3   143  LEU143      0.0297
     67  CG        28.3430  104.6630   28.6740 C.3   143  LEU143      0.0022
     68  CD1       28.5040  105.5440   27.4480 C.3   143  LEU143      0.0001
     69  CD2       26.8820  104.6000   29.1140 C.3   143  LEU143      0.0001
     70  N         29.3640   98.4830   32.8370 N.3   146  ASP146     -0.1225
     71  CA        28.3800   98.6620   33.9010 C.3   146  ASP146      0.1805
     72  C         26.9580   98.8140   33.3520 C.2   146  ASP146      0.2598
     73  O         26.1130   97.9380   33.5410 O.2   146  ASP146     -0.2718
     74  CB        28.7550   99.8780   34.7620 C.3   146  ASP146      0.1424
     75  CG        27.7370  100.1670   35.8580 C.2   146  ASP146      0.3668
     76  OD1       27.9770   99.7610   37.0170 O.co2 146  ASP146     -0.2456
     77  OD2       26.6990  100.8080   35.5670 O.co2 146  ASP146     -0.2456
     78  N         26.7080   99.9280   32.6710 N.am  147  THR147     -0.1953
     79  CA        25.3760  100.2650   32.1770 C.3   147  THR147      0.1897
     80  C         24.7530   99.2100   31.2620 C.2   147  THR147      0.2313
     81  O         23.5900   98.8530   31.4360 O.2   147  THR147     -0.2863
     82  CB        25.3980  101.5920   31.4130 C.3   147  THR147      0.1794
     83  OG1       26.0380  102.5870   32.2150 O.3   147  THR147     -0.2208
     84  CG2       23.9800  102.0420   31.0700 C.3   147  THR147      0.0378
     85  N         23.6220   95.9320   33.0970 N.3   150  ARG150     -0.1245
     86  CA        22.4130   96.2390   33.8510 C.3   150  ARG150      0.1563
     87  C         21.2240   96.3230   32.9080 C.2   150  ARG150      0.2260
     88  O         20.2130   95.6350   33.0940 O.2   150  ARG150     -0.2867
     89  CB        22.5780   97.5390   34.6370 C.3   150  ARG150      0.0307
     90  CG        23.2030   97.3290   36.0000 C.3   150  ARG150      0.0489
     91  CD        23.8460   98.5850   36.5400 C.3   150  ARG150      0.2205
     92  NE        24.3470   98.3810   37.9010 N.pl3 150  ARG150     -0.0865
     93  CZ        25.1320   99.2390   38.5450 C.cat 150  ARG150      0.5346
     94  NH1       25.5120  100.3600   37.9460 N.pl3 150  ARG150      0.1354
     95  NH2       25.5390   98.9760   39.7830 N.pl3 150  ARG150      0.1354
@<TRIPOS>BOND
     1    41    40    2
     2    40    39    1
     3    33    32    2
     4    39    38    1
     5    39    42    1
     6    68    67    1
     7    43    42    1
     8    43    44    1
     9    43    45    1
    10    32    31    1
    11    66    67    1
    12    66    63    1
    13    67    69    1
    14    34    31    1
    15    34    35    1
    16    31    30    1
    17    64    65    2
    18    64    63    1
    19    37    35    1
    20    36    35    1
    21    63    62    1
    22    48    49    2
    23    48    47    1
    24    52    50    1
    25    24    23    2
    26    30    23   am
    27    50    47    1
    28    50    51    1
    29    62    56   am
    30    23    22    1
    31    47    46    1
    32    53    51    1
    33    84    82    1
    34    80    81    2
    35    80    79    1
    36    54    55    1
    37    82    79    1
    38    82    83    1
    39    56    57    2
    40    56    55    1
    41    21    22    1
    42    22    25    1
    43     7     9   ar
    44     7     6   ar
    45     9    11   ar
    46    79    78    1
    47    15    14    2
    48    55    58    1
    49    78    72   am
    50     5     6    1
    51     5     2    1
    52    14    13    1
    53    70    71    1
    54     6     8   ar
    55    87    88    2
    56    87    86    1
    57    11    10   ar
    58    85    86    1
    59    25    26    1
    60    58    59    1
    61     4     3    2
    62    72    73    2
    63    72    71    1
    64     1     2    1
    65     8    10   ar
    66    86    89    1
    67    71    74    1
    68     2     3    1
    69    59    60    2
    70    59    61   am
    71    13    12    1
    72    13    16    1
    73    26    27    1
    74    89    90    1
    75    74    75    1
    76    16    17    1
    77    28    27   ar
    78    77    75   ar
    79    27    29   ar
    80    75    76   ar
    81    90    91    1
    82    17    18    1
    83    91    92    1
    84    19    18   ar
    85    18    20   ar
    86    92    93    2
    87    94    93    1
    88    93    95    1
