@<TRIPOS>MOLECULE
tmp/4x6hA00.pdb
 121 119 0 0 0
SMALL
GASTEIGER

@<TRIPOS>ATOM
      1  N         11.5270    8.1080  -13.9750 N.3    25  CYS25      -0.1221
      2  CA        11.1940    6.6750  -14.0570 C.3    25  CYS25       0.1808
      3  C         12.3580    5.8180  -13.5330 C.2    25  CYS25       0.2601
      4  O         12.1300    4.8070  -12.8610 O.2    25  CYS25      -0.2717
      5  CB        10.9050    6.2830  -15.5100 C.3    25  CYS25       0.0970
      6  SG        12.2870    6.4600  -16.7260 S.3    25  CYS25      -0.0800
      7  N         13.5950    6.1970  -13.8650 N.am   26  TRP26      -0.1976
      8  CA        14.7740    5.4350  -13.4330 C.3    26  TRP26       0.1640
      9  C         14.8690    5.3820  -11.9000 C.2    26  TRP26       0.2290
     10  O         15.3180    4.3780  -11.3470 O.2    26  TRP26      -0.2864
     11  CB        16.0300    6.0940  -14.0420 C.3    26  TRP26       0.0576
     12  CG        16.2300    7.5270  -13.6120 C.ar   26  TRP26       0.0006
     13  CD1       15.7760    8.6680  -14.2410 C.ar   26  TRP26       0.0946
     14  CD2       16.9560    7.9760  -12.4550 C.ar   26  TRP26       0.0152
     15  NE1       16.1780    9.7790  -13.5460 N.ar   26  TRP26      -0.2442
     16  CE2       16.8890    9.3880  -12.4460 C.ar   26  TRP26       0.0810
     17  CE3       17.5770    7.3160  -11.3900 C.ar   26  TRP26       0.0012
     18  CZ2       17.5360   10.1660  -11.4590 C.ar   26  TRP26       0.0191
     19  CZ3       18.2030    8.0670  -10.4220 C.ar   26  TRP26       0.0001
     20  CH2       18.1560    9.4810  -10.4410 C.ar   26  TRP26       0.0015
     21  N         25.6970   11.2820  -11.1550 N.3    59  GLU59      -0.1231
     22  CA        26.0140   10.6520  -12.4330 C.3    59  GLU59       0.1699
     23  C         24.7630   10.5380  -13.3320 C.2    59  GLU59       0.2592
     24  O         24.9070   10.0910  -14.4800 O.2    59  GLU59      -0.2718
     25  CB        26.6070    9.2540  -12.2390 C.3    59  GLU59       0.0402
     26  CG        27.9760    9.2610  -11.5480 C.3    59  GLU59       0.1161
     27  CD        29.1090    9.8860  -12.3120 C.2    59  GLU59       0.3649
     28  OE1       29.0260   10.1780  -13.4910 O.co2  59  GLU59      -0.2457
     29  OE2       30.1580   10.0210  -11.6610 O.co2  59  GLU59      -0.2457
     30  N         23.5710   10.9270  -12.8340 N.am   60  ASN60      -0.1960
     31  CA        22.3370   10.9520  -13.6200 C.3    60  ASN60       0.1819
     32  C         21.9150   12.3890  -13.8290 C.2    60  ASN60       0.2621
     33  O         22.5420   13.3120  -13.3120 O.2    60  ASN60      -0.2715
     34  CB        21.2480   10.1420  -12.9080 C.3    60  ASN60       0.1195
     35  CG        21.4170    8.6610  -13.1110 C.2    60  ASN60       0.2630
     36  OD1       22.1550    8.2000  -13.9780 O.2    60  ASN60      -0.2716
     37  ND2       20.6460    7.8750  -12.3330 N.am   60  ASN60      -0.0877
     38  N         20.8290   12.5600  -14.5870 N.am   61  ASP61      -0.1971
     39  CA        20.3380   13.8750  -14.9770 C.3    61  ASP61       0.1709
     40  C         19.0120   14.2410  -14.3650 C.2    61  ASP61       0.2293
     41  O         18.2230   14.9880  -14.9650 O.2    61  ASP61      -0.2864
     42  CB        20.2970   14.0070  -16.5140 C.3    61  ASP61       0.1436
     43  CG        21.6450   14.2280  -17.1230 C.2    61  ASP61       0.3671
     44  OD1       22.7070   14.1110  -16.4620 O.co2  61  ASP61      -0.2456
     45  OD2       21.6320   14.5480  -18.3450 O.co2  61  ASP61      -0.2456
     46  N         15.6660   14.8710  -16.0800 N.3    64  GLY64      -0.1210
     47  CA        16.0020   14.7040  -17.4750 C.3    64  GLY64       0.1956
     48  C         16.2990   13.2480  -17.8050 C.2    64  GLY64       0.2612
     49  O         16.4070   12.9260  -19.0040 O.2    64  GLY64      -0.2717
     50  N         16.3990   12.3510  -16.8240 N.am   65  GLY65      -0.1942
     51  CA        16.6240   10.9530  -17.0580 C.3    65  GLY65       0.2014
     52  C         17.8640   10.4490  -16.3320 C.2    65  GLY65       0.2639
     53  O         18.6640   11.2140  -15.7690 O.2    65  GLY65      -0.2714
     54  N         18.0210    9.1340  -16.3490 N.am   66  GLY66      -0.1939
     55  CA        19.1440    8.5120  -15.6420 C.3    66  GLY66       0.2014
     56  C         19.1910    7.0300  -15.8260 C.2    66  GLY66       0.2639
     57  O         18.2870    6.4500  -16.4420 O.2    66  GLY66      -0.2714
     58  N         20.2430    6.4140  -15.2640 N.am   67  TYR67      -0.1959
     59  CA        20.3630    4.9430  -15.2890 C.3    67  TYR67       0.1771
     60  C         20.1850    4.3860  -13.8870 C.2    67  TYR67       0.2619
     61  O         20.6320    4.9670  -12.8760 O.2    67  TYR67      -0.2715
     62  CB        21.7380    4.5660  -15.8630 C.3    67  TYR67       0.0574
     63  CG        21.8570    4.9050  -17.3310 C.ar   67  TYR67      -0.0198
     64  CD1       20.9810    4.3350  -18.2540 C.ar   67  TYR67      -0.0009
     65  CD2       22.8560    5.7770  -17.7810 C.ar   67  TYR67      -0.0009
     66  CE1       21.0870    4.6410  -19.6170 C.ar   67  TYR67       0.0417
     67  CE2       22.9780    6.0800  -19.1660 C.ar   67  TYR67       0.0417
     68  CZ        22.0850    5.5060  -20.0300 C.ar   67  TYR67       0.1957
     69  OH        22.1230    5.8170  -21.3980 O.3    67  TYR67      -0.2866
     70  N         19.5640    3.2120  -13.8170 N.am   68  MET68      -0.1977
     71  CA        19.3690    2.5080  -12.5580 C.3    68  MET68       0.1605
     72  C         20.6620    2.0320  -11.9630 C.2    68  MET68       0.2287
     73  O         20.8340    2.1000  -10.7380 O.2    68  MET68      -0.2864
     74  CB        18.3680    1.3380  -12.7220 C.3    68  MET68       0.0413
     75  CG        16.9920    1.7990  -13.2060 C.3    68  MET68       0.0598
     76  SD        16.8600    2.0830  -15.0060 S.3    68  MET68      -0.1393
     77  CE        16.5400    0.3670  -15.5440 C.3    68  MET68       0.0692
     78  N         14.4490   -1.5260  -18.5240 N.3   134  ALA134     -0.1245
     79  CA        14.1200   -0.4080  -19.4100 C.3   134  ALA134      0.1562
     80  C         13.4370   -0.9260  -20.6580 C.2   134  ALA134      0.2260
     81  O         13.6980   -2.0370  -21.1360 O.2   134  ALA134     -0.2867
     82  CB        15.4070    0.2940  -19.8100 C.3   134  ALA134      0.0290
     83  N         15.2450    2.4940  -26.1680 N.3   160  LEU160     -0.1231
     84  CA        14.8020    2.4640  -24.7520 C.3   160  LEU160      0.1693
     85  C         14.5420    3.9020  -24.3270 C.2   160  LEU160      0.2592
     86  O         15.3260    4.8010  -24.6320 O.2   160  LEU160     -0.2718
     87  CB        15.9140    1.8920  -23.8870 C.3   160  LEU160      0.0284
     88  CG        16.3200    0.4430  -24.2070 C.3   160  LEU160      0.0019
     89  CD1       17.4250    0.0200  -23.2930 C.3   160  LEU160      0.0001
     90  CD2       15.1070   -0.5340  -24.1750 C.3   160  LEU160      0.0001
     91  N         13.4280    4.1340  -23.6570 N.am  161  ASN161     -0.1960
     92  CA        13.0900    5.4930  -23.2390 C.3   161  ASN161      0.1819
     93  C         12.3480    5.5460  -21.8980 C.2   161  ASN161      0.2621
     94  O         12.0520    6.6210  -21.4190 O.2   161  ASN161     -0.2715
     95  CB        12.2650    6.2120  -24.3400 C.3   161  ASN161      0.1195
     96  CG        11.1290    5.3600  -24.8170 C.2   161  ASN161      0.2630
     97  OD1       10.2720    4.9320  -24.0290 O.2   161  ASN161     -0.2716
     98  ND2       11.1260    5.0300  -26.1180 N.am  161  ASN161     -0.0877
     99  N         12.1560    4.4080  -21.2480 N.am  162  HIS162     -0.1959
    100  CA        11.4250    4.4360  -19.9740 C.3   162  HIS162      0.1787
    101  C         12.0090    3.3010  -19.1560 C.2   162  HIS162      0.2620
    102  O         12.7080    2.4230  -19.6720 O.2   162  HIS162     -0.2715
    103  CB         9.9230    4.2090  -20.2930 C.3   162  HIS162      0.0785
    104  CG         8.9870    4.4560  -19.1470 C.ar  162  HIS162      0.0821
    105  ND1        9.0370    5.5880  -18.3710 N.ar  162  HIS162     -0.2267
    106  CD2        7.9940    3.6870  -18.6380 C.ar  162  HIS162      0.1154
    107  CE1        8.0990    5.5120  -17.4230 C.ar  162  HIS162      0.1986
    108  NE2        7.4630    4.3680  -17.5640 N.ar  162  HIS162     -0.2212
    109  N         11.8550    3.4030  -17.8380 N.am  163  ALA163     -0.1977
    110  CA        12.3210    2.3880  -16.8820 C.3   163  ALA163      0.1597
    111  C         11.1480    1.9740  -16.0050 C.2   163  ALA163      0.2287
    112  O         10.3730    2.8530  -15.5670 O.2   163  ALA163     -0.2864
    113  CB        13.4380    2.9230  -16.0000 C.3   163  ALA163      0.0319
    114  N         18.5330   -3.6110  -20.7630 N.3   209  LEU209     -0.1245
    115  CA        19.1920   -2.7930  -19.7480 C.3   209  LEU209      0.1561
    116  C         18.5810   -3.0730  -18.3710 C.2   209  LEU209      0.2260
    117  O         17.9390   -2.1960  -17.7360 O.2   209  LEU209     -0.2867
    118  CB        19.0850   -1.3010  -20.1280 C.3   209  LEU209      0.0270
    119  CG        20.0700   -0.4170  -19.3980 C.3   209  LEU209      0.0019
    120  CD1       21.5230   -0.6270  -19.9420 C.3   209  LEU209      0.0001
    121  CD2       19.6400    1.0700  -19.6200 C.3   209  LEU209      0.0001
@<TRIPOS>BOND
     1    83    84    1
     2    98    96   am
     3    96    95    1
     4    96    97    2
     5    84    85    1
     6    84    87    1
     7    86    85    2
     8    95    92    1
     9    85    91   am
    10    88    90    1
    11    88    87    1
    12    88    89    1
    13    91    92    1
    14    92    93    1
    15    93    94    2
    16    93    99   am
    17    69    68    1
    18    99   100    1
    19    81    80    2
    20   114   115    1
    21    80    79    1
    22   103   100    1
    23   103   104    1
    24   118   115    1
    25   118   119    1
    26    68    66   ar
    27    68    67   ar
    28   100   101    1
    29   120   119    1
    30    82    79    1
    31   115   116    1
    32   102   101    2
    33   121   119    1
    34    66    64   ar
    35    79    78    1
    36    67    65   ar
    37   101   109   am
    38   104   106   ar
    39   104   105   ar
    40    49    48    2
    41   106   108   ar
    42   116   117    2
    43   105   107   ar
    44    45    43   ar
    45    64    63   ar
    46   109   110    1
    47    48    47    1
    48    48    50   am
    49    65    63   ar
    50   108   107   ar
    51    47    46    1
    52    63    62    1
    53    43    42    1
    54    43    44   ar
    55    51    50    1
    56    51    52    1
    57   110   111    1
    58   110   113    1
    59     6     5    1
    60    42    39    1
    61    57    56    2
    62    54    52   am
    63    54    55    1
    64    52    53    2
    65   111   112    2
    66    62    59    1
    67    56    55    1
    68    56    58   am
    69    77    76    1
    70     5     2    1
    71    59    58    1
    72    59    60    1
    73    76    75    1
    74    39    38    1
    75    39    40    1
    76    41    40    2
    77    38    32   am
    78    24    23    2
    79    13    12   ar
    80    13    15   ar
    81     2     1    1
    82     2     3    1
    83    11    12    1
    84    11     8    1
    85    36    35    2
    86    60    70   am
    87    60    61    2
    88     7     3   am
    89     7     8    1
    90    32    31    1
    91    32    33    2
    92    70    71    1
    93    31    34    1
    94    31    30    1
    95    12    14   ar
    96    15    16   ar
    97     3     4    2
    98    28    27   ar
    99     8     9    1
   100    23    30   am
   101    23    22    1
   102    75    74    1
   103    35    34    1
   104    35    37   am
   105    74    71    1
   106    71    72    1
   107    14    16   ar
   108    14    17   ar
   109    16    18   ar
   110    22    25    1
   111    22    21    1
   112    27    29   ar
   113    27    26    1
   114    25    26    1
   115    72    73    2
   116     9    10    2
   117    18    20   ar
   118    17    19   ar
   119    20    19   ar
