@<TRIPOS>MOLECULE
tmp/4x6iA00.pdb
 139 135 0 0 0
SMALL
GASTEIGER

@<TRIPOS>ATOM
      1  N         10.9990   13.1350  -15.5870 N.3    23  GLY23      -0.1225
      2  CA        11.6130   11.8920  -16.0660 C.3    23  GLY23       0.1811
      3  C         12.3920   11.1450  -14.9940 C.2    23  GLY23       0.2280
      4  O         13.6090   10.9080  -15.1160 O.2    23  GLY23      -0.2866
      5  N         11.4410    8.1070  -13.8710 N.3    25  CYS25      -0.1221
      6  CA        11.0550    6.6420  -13.8710 C.3    25  CYS25       0.1808
      7  C         12.2560    5.8020  -13.4220 C.2    25  CYS25       0.2601
      8  O         12.1180    4.7880  -12.7210 O.2    25  CYS25      -0.2717
      9  CB        10.5780    6.1720  -15.2580 C.3    25  CYS25       0.0970
     10  SG        11.3980    7.0340  -16.6460 S.3    25  CYS25      -0.0800
     11  N         13.4430    6.2620  -13.7700 N.am   26  TRP26      -0.1976
     12  CA        14.6360    5.5090  -13.4080 C.3    26  TRP26       0.1640
     13  C         14.7540    5.3860  -11.8740 C.2    26  TRP26       0.2290
     14  O         15.3060    4.3900  -11.3450 O.2    26  TRP26      -0.2864
     15  CB        15.9110    6.1440  -14.0560 C.3    26  TRP26       0.0576
     16  CG        16.1680    7.5250  -13.6460 C.ar   26  TRP26       0.0006
     17  CD1       15.7670    8.6370  -14.2950 C.ar   26  TRP26       0.0946
     18  CD2       16.8920    7.9740  -12.4850 C.ar   26  TRP26       0.0152
     19  NE1       16.1590    9.7450  -13.6040 N.ar   26  TRP26      -0.2442
     20  CE2       16.8970    9.3660  -12.5160 C.ar   26  TRP26       0.0810
     21  CE3       17.5230    7.3250  -11.4290 C.ar   26  TRP26       0.0012
     22  CZ2       17.4860   10.1280  -11.5300 C.ar   26  TRP26       0.0191
     23  CZ3       18.1140    8.0560  -10.4580 C.ar   26  TRP26       0.0001
     24  CH2       18.1100    9.4680  -10.5130 C.ar   26  TRP26       0.0015
     25  N         25.4940   11.4100  -11.0570 N.3    59  GLU59      -0.1231
     26  CA        25.7420   10.7940  -12.3540 C.3    59  GLU59       0.1699
     27  C         24.5490   10.7270  -13.3280 C.2    59  GLU59       0.2592
     28  O         24.6990   10.3540  -14.4950 O.2    59  GLU59      -0.2718
     29  CB        26.2180    9.3830  -12.1680 C.3    59  GLU59       0.0402
     30  CG        27.7060    9.3520  -11.9100 C.3    59  GLU59       0.1161
     31  CD        28.5700    9.7710  -13.1120 C.2    59  GLU59       0.3649
     32  OE1       28.1500    9.8570  -14.3130 O.co2  59  GLU59      -0.2457
     33  OE2       29.7510    9.9850  -12.8360 O.co2  59  GLU59      -0.2457
     34  N         23.3710   11.0210  -12.8320 N.am   60  ASN60      -0.1960
     35  CA        22.1650   11.0440  -13.6230 C.3    60  ASN60       0.1819
     36  C         21.6540   12.4560  -13.8400 C.2    60  ASN60       0.2621
     37  O         22.2160   13.3780  -13.2940 O.2    60  ASN60      -0.2715
     38  CB        21.0730   10.2060  -12.9750 C.3    60  ASN60       0.1195
     39  CG        21.2960    8.7060  -13.1380 C.2    60  ASN60       0.2630
     40  OD1       22.0840    8.2630  -13.9530 O.2    60  ASN60      -0.2716
     41  ND2       20.6260    7.9430  -12.3220 N.am   60  ASN60      -0.0877
     42  N         20.5800   12.6080  -14.6290 N.am   61  ASP61      -0.1971
     43  CA        20.0430   13.9260  -14.9980 C.3    61  ASP61       0.1709
     44  C         18.7300   14.3320  -14.3290 C.2    61  ASP61       0.2293
     45  O         17.9720   15.1320  -14.9280 O.2    61  ASP61      -0.2864
     46  CB        19.8880   14.0500  -16.5330 C.3    61  ASP61       0.1436
     47  CG        21.2630   14.2330  -17.2540 C.2    61  ASP61       0.3671
     48  OD1       22.2310   14.5430  -16.5590 O.co2  61  ASP61      -0.2456
     49  OD2       21.3620   14.0690  -18.4520 O.co2  61  ASP61      -0.2456
     50  N         15.2250   14.9760  -13.4990 N.3    63  CYS63      -0.1221
     51  CA        13.9370   14.7860  -14.2120 C.3    63  CYS63       0.1808
     52  C         14.2040   14.6570  -15.6710 C.2    63  CYS63       0.2602
     53  O         13.2770   14.4090  -16.4760 O.2    63  CYS63      -0.2717
     54  CB        13.0250   16.0010  -13.9940 C.3    63  CYS63       0.0970
     55  SG        12.3260   16.0370  -12.3530 S.3    63  CYS63      -0.0800
     56  N         15.4940   14.8250  -16.0600 N.am   64  GLY64      -0.1942
     57  CA        15.8600   14.7000  -17.4830 C.3    64  GLY64       0.2014
     58  C         16.3930   13.2950  -17.7710 C.2    64  GLY64       0.2639
     59  O         16.9690   13.0520  -18.8180 O.2    64  GLY64      -0.2714
     60  N         16.2330   12.3440  -16.8380 N.am   65  GLY65      -0.1939
     61  CA        16.5490   10.9570  -17.1460 C.3    65  GLY65       0.2014
     62  C         17.7570   10.3970  -16.4000 C.2    65  GLY65       0.2639
     63  O         18.4830   11.1430  -15.7650 O.2    65  GLY65      -0.2714
     64  N         17.9710    9.0860  -16.4720 N.am   66  GLY66      -0.1939
     65  CA        19.0860    8.4650  -15.7280 C.3    66  GLY66       0.2014
     66  C         19.2240    6.9630  -15.9440 C.2    66  GLY66       0.2639
     67  O         18.3300    6.3340  -16.5480 O.2    66  GLY66      -0.2714
     68  N         20.3610    6.4220  -15.4980 N.am   67  TYR67      -0.1959
     69  CA        20.5590    4.9670  -15.3910 C.3    67  TYR67       0.1771
     70  C         20.2800    4.4260  -13.9610 C.2    67  TYR67       0.2619
     71  O         20.6550    5.0290  -12.9530 O.2    67  TYR67      -0.2715
     72  CB        21.9420    4.5500  -15.8400 C.3    67  TYR67       0.0574
     73  CG        22.2270    4.7170  -17.3090 C.ar   67  TYR67      -0.0198
     74  CD1       21.3210    4.2570  -18.2830 C.ar   67  TYR67      -0.0009
     75  CD2       23.3930    5.3420  -17.7160 C.ar   67  TYR67      -0.0009
     76  CE1       21.5890    4.3920  -19.6210 C.ar   67  TYR67       0.0417
     77  CE2       23.6940    5.5130  -19.0820 C.ar   67  TYR67       0.0417
     78  CZ        22.8230    5.0250  -20.0200 C.ar   67  TYR67       0.1957
     79  OH        23.1660    5.1990  -21.3480 O.3    67  TYR67      -0.2866
     80  N         19.6010    3.2730  -13.9040 N.am   68  MET68      -0.1977
     81  CA        19.3810    2.5810  -12.6310 C.3    68  MET68       0.1605
     82  C         20.6640    2.1170  -11.9820 C.2    68  MET68       0.2287
     83  O         20.7630    2.1540  -10.7260 O.2    68  MET68      -0.2864
     84  CB        18.3780    1.3950  -12.7690 C.3    68  MET68       0.0413
     85  CG        16.9800    1.8190  -13.2730 C.3    68  MET68       0.0598
     86  SD        16.8940    2.0950  -15.0640 S.3    68  MET68      -0.1393
     87  CE        16.7800    0.4220  -15.6630 C.3    68  MET68       0.0692
     88  N         23.5140    3.5490  -12.0800 N.3    70  ASN70      -0.1240
     89  CA        24.1040    4.7180  -11.4440 C.3    70  ASN70       0.1653
     90  C         23.4400    4.9540  -10.1070 C.2    70  ASN70       0.2266
     91  O         24.1150    5.3650   -9.1010 O.2    70  ASN70      -0.2867
     92  CB        24.0040    5.9800  -12.2750 C.3    70  ASN70       0.1155
     93  CG        24.9270    6.0260  -13.4870 C.2    70  ASN70       0.2627
     94  OD1       25.9860    5.3900  -13.5460 O.2    70  ASN70      -0.2716
     95  ND2       24.5620    6.8790  -14.4490 N.am   70  ASN70      -0.0877
     96  N         14.3370   -1.5120  -18.5780 N.3   134  ALA134     -0.1245
     97  CA        13.9850   -0.3570  -19.4200 C.3   134  ALA134      0.1562
     98  C         13.3200   -0.8730  -20.7240 C.2   134  ALA134      0.2260
     99  O         13.6830   -1.9400  -21.2100 O.2   134  ALA134     -0.2867
    100  CB        15.2170    0.5100  -19.7190 C.3   134  ALA134      0.0290
    101  N         15.1210    2.3600  -26.1670 N.3   160  LEU160     -0.1231
    102  CA        14.6710    2.4130  -24.7850 C.3   160  LEU160      0.1693
    103  C         14.3810    3.8550  -24.3770 C.2   160  LEU160      0.2592
    104  O         15.1440    4.7840  -24.7400 O.2   160  LEU160     -0.2718
    105  CB        15.7280    1.8500  -23.8700 C.3   160  LEU160      0.0284
    106  CG        16.1440    0.4000  -24.1470 C.3   160  LEU160      0.0019
    107  CD1       17.2010   -0.0550  -23.1640 C.3   160  LEU160      0.0001
    108  CD2       14.9100   -0.5060  -24.1240 C.3   160  LEU160      0.0001
    109  N         13.2770    4.0570  -23.6710 N.am  161  ASN161     -0.1960
    110  CA        12.8900    5.4110  -23.2450 C.3   161  ASN161      0.1819
    111  C         12.1880    5.4900  -21.9000 C.2   161  ASN161      0.2621
    112  O         11.8780    6.6050  -21.4520 O.2   161  ASN161     -0.2715
    113  CB        12.0060    6.1340  -24.2840 C.3   161  ASN161      0.1195
    114  CG        10.8680    5.2780  -24.7790 C.2   161  ASN161      0.2630
    115  OD1        9.9710    4.8390  -24.0200 O.2   161  ASN161     -0.2716
    116  ND2       10.8820    5.0390  -26.0970 N.am  161  ASN161     -0.0877
    117  N         11.9260    4.3480  -21.2670 N.am  162  HIS162     -0.1959
    118  CA        11.1570    4.3000  -20.0470 C.3   162  HIS162      0.1787
    119  C         11.6270    3.1770  -19.1220 C.2   162  HIS162      0.2620
    120  O         11.7270    2.0060  -19.5210 O.2   162  HIS162     -0.2715
    121  CB         9.6670    4.0740  -20.3870 C.3   162  HIS162      0.0785
    122  CG         8.7240    4.3080  -19.2460 C.ar  162  HIS162      0.0821
    123  ND1        8.7100    5.4710  -18.5140 N.ar  162  HIS162     -0.2267
    124  CD2        7.7450    3.5280  -18.7220 C.ar  162  HIS162      0.1154
    125  CE1        7.7880    5.3940  -17.5690 C.ar  162  HIS162      0.1986
    126  NE2        7.1680    4.2330  -17.6890 N.ar  162  HIS162     -0.2212
    127  N         11.8800    3.5370  -17.8720 N.am  163  ALA163     -0.1977
    128  CA        12.3750    2.5990  -16.8810 C.3   163  ALA163      0.1597
    129  C         11.1830    2.1110  -16.0540 C.2   163  ALA163      0.2287
    130  O         10.3800    2.8990  -15.6110 O.2   163  ALA163     -0.2864
    131  CB        13.3880    3.2710  -16.0060 C.3   163  ALA163      0.0319
    132  N         18.4340   -3.5520  -20.8380 N.3   209  LEU209     -0.1245
    133  CA        19.0300   -2.7190  -19.7890 C.3   209  LEU209      0.1561
    134  C         18.4570   -3.0620  -18.4270 C.2   209  LEU209      0.2260
    135  O         17.8330   -2.2620  -17.7480 O.2   209  LEU209     -0.2867
    136  CB        18.8810   -1.2300  -20.1520 C.3   209  LEU209      0.0270
    137  CG        19.8060   -0.2380  -19.3930 C.3   209  LEU209      0.0019
    138  CD1       21.2930   -0.4040  -19.7650 C.3   209  LEU209      0.0001
    139  CD2       19.3410    1.2140  -19.4930 C.3   209  LEU209      0.0001
@<TRIPOS>BOND
     1   101   102    1
     2   116   114   am
     3   102   103    1
     4   102   105    1
     5   114   113    1
     6   114   115    2
     7   104   103    2
     8   103   109   am
     9   113   110    1
    10   106   108    1
    11   106   105    1
    12   106   107    1
    13   109   110    1
    14   110   111    1
    15   111   112    2
    16   111   117   am
    17    79    78    1
    18   117   118    1
    19    99    98    2
    20   132   133    1
    21    98    97    1
    22   121   118    1
    23   121   122    1
    24   136   133    1
    25   136   137    1
    26   118   119    1
    27    78    76   ar
    28    78    77   ar
    29   133   134    1
    30   138   137    1
    31   100    97    1
    32    76    74   ar
    33   120   119    2
    34   139   137    1
    35    97    96    1
    36   122   124   ar
    37   122   123   ar
    38   119   127   am
    39    77    75   ar
    40    59    58    2
    41   124   126   ar
    42   123   125   ar
    43    49    47   ar
    44   134   135    2
    45    74    73   ar
    46   127   128    1
    47    58    57    1
    48    58    60   am
    49    75    73   ar
    50   126   125   ar
    51    57    56    1
    52    73    72    1
    53    47    48   ar
    54    47    46    1
    55    61    60    1
    56    61    62    1
    57   128   129    1
    58   128   131    1
    59    10     9    1
    60    67    66    2
    61    46    43    1
    62    53    52    2
    63    64    62   am
    64    64    65    1
    65    62    63    2
    66     2     1    1
    67     2     3    1
    68    56    52   am
    69   129   130    2
    70    66    65    1
    71    66    68   am
    72    72    69    1
    73    52    51    1
    74    87    86    1
    75    68    69    1
    76    69    70    1
    77     9     6    1
    78     4     3    2
    79    86    85    1
    80    43    42    1
    81    43    44    1
    82    45    44    2
    83    42    36   am
    84    28    27    2
    85    95    93   am
    86    32    31   ar
    87    17    16   ar
    88    17    19   ar
    89    51    54    1
    90    51    50    1
    91    15    16    1
    92    15    12    1
    93    54    55    1
    94    70    80   am
    95    70    71    2
    96    40    39    2
    97    80    81    1
    98     5     6    1
    99     6     7    1
   100    36    35    1
   101    36    37    2
   102    11     7   am
   103    11    12    1
   104    16    18   ar
   105    35    38    1
   106    35    34    1
   107    19    20   ar
   108    94    93    2
   109    93    92    1
   110     7     8    2
   111    12    13    1
   112    27    34   am
   113    27    26    1
   114    85    84    1
   115    39    38    1
   116    39    41   am
   117    31    33   ar
   118    31    30    1
   119    84    81    1
   120    81    82    1
   121    20    18   ar
   122    20    22   ar
   123    18    21   ar
   124    26    29    1
   125    26    25    1
   126    92    89    1
   127    29    30    1
   128    88    89    1
   129    82    83    2
   130    13    14    2
   131    22    24   ar
   132    89    90    1
   133    21    23   ar
   134    24    23   ar
   135    90    91    2
