@<TRIPOS>MOLECULE
tmp/4x6kA00.pdb
 170 159 0 0 0
SMALL
GASTEIGER

@<TRIPOS>ATOM
      1  N         31.7550    6.9830  -19.9690 N.3    19  ARG19      -0.1231
      2  CA        33.2050    6.9980  -19.9230 C.3    19  ARG19       0.1694
      3  C         33.6080    6.2490  -18.6410 C.2    19  ARG19       0.2591
      4  O         32.7780    6.0760  -17.7660 O.2    19  ARG19      -0.2718
      5  CB        33.7980    8.4270  -19.8420 C.3    19  ARG19       0.0321
      6  CG        34.0250    9.0610  -21.1910 C.3    19  ARG19       0.0489
      7  CD        35.0040   10.1870  -21.0660 C.3    19  ARG19       0.2205
      8  NE        36.3000    9.5970  -20.7300 N.pl3  19  ARG19      -0.0865
      9  CZ        37.3240   10.2670  -20.2600 C.cat  19  ARG19       0.5346
     10  NH1       37.2780   11.6000  -20.2380 N.pl3  19  ARG19       0.1354
     11  NH2       38.4290    9.5990  -19.8980 N.pl3  19  ARG19       0.1354
     12  N         34.8960    5.8420  -18.5670 N.am   20  ILE20      -0.1980
     13  CA        35.6090    5.4170  -17.3530 C.3    20  ILE20       0.1595
     14  C         35.1300    4.0120  -16.9390 C.2    20  ILE20       0.2287
     15  O         34.4550    3.8190  -15.9280 O.2    20  ILE20      -0.2864
     16  CB        35.4380    6.3420  -16.1540 C.3    20  ILE20       0.0276
     17  CG1       35.4110    7.8670  -16.5060 C.3    20  ILE20       0.0022
     18  CG2       36.5610    6.0490  -15.1580 C.3    20  ILE20       0.0022
     19  CD1       36.6560    8.3560  -17.2500 C.3    20  ILE20       0.0001
     20  N         27.4300    9.8930  -18.1890 N.3    38  ARG38      -0.1245
     21  CA        27.7270   11.3140  -18.3780 C.3    38  ARG38       0.1563
     22  C         26.5680   11.9250  -19.2270 C.2    38  ARG38       0.2260
     23  O         26.4800   11.7110  -20.4230 O.2    38  ARG38      -0.2867
     24  CB        29.0620   11.5350  -19.0490 C.3    38  ARG38       0.0307
     25  CG        30.2730   11.1600  -18.1950 C.3    38  ARG38       0.0489
     26  CD        31.5670   11.7500  -18.6500 C.3    38  ARG38       0.2205
     27  NE        32.5870   11.3740  -17.7150 N.pl3  38  ARG38      -0.0865
     28  CZ        33.8190   11.8850  -17.6400 C.cat  38  ARG38       0.5346
     29  NH1       34.1860   12.8670  -18.4330 N.pl3  38  ARG38       0.1354
     30  NH2       34.6380   11.4660  -16.6850 N.pl3  38  ARG38       0.1354
     31  N         33.9820   16.1130  -18.0250 N.3    44  ASP44      -0.1225
     32  CA        34.2900   15.9170  -16.6140 C.3    44  ASP44       0.1805
     33  C         33.4020   16.8070  -15.7600 C.2    44  ASP44       0.2597
     34  O         32.8870   17.7880  -16.2460 O.2    44  ASP44      -0.2718
     35  CB        35.7240   16.2480  -16.3220 C.3    44  ASP44       0.1424
     36  CG        36.7000   15.3330  -17.0060 C.2    44  ASP44       0.3668
     37  OD1       36.3290   14.1430  -17.3790 O.co2  44  ASP44      -0.2456
     38  OD2       37.8820   15.7400  -17.0120 O.co2  44  ASP44      -0.2456
     39  N         33.1980   16.4480  -14.5010 N.am   45  ALA45      -0.1979
     40  CA        32.6660   17.4050  -13.6100 C.3    45  ALA45       0.1597
     41  C         33.5430   18.7120  -13.6620 C.2    45  ALA45       0.2287
     42  O         34.7960   18.6490  -13.7730 O.2    45  ALA45      -0.2864
     43  CB        32.5760   16.8080  -12.2050 C.3    45  ALA45       0.0319
     44  N         31.7500   10.6020  -10.2330 N.3   100  ILE100     -0.1231
     45  CA        32.6350   10.5410  -11.3610 C.3   100  ILE100      0.1692
     46  C         33.8110    9.6270  -10.9740 C.2   100  ILE100      0.2592
     47  O         34.2880    9.6910   -9.8270 O.2   100  ILE100     -0.2718
     48  CB        33.1080   11.9470  -11.8200 C.3   100  ILE100      0.0266
     49  CG1       34.2200   11.9110  -12.8900 C.3   100  ILE100      0.0019
     50  CG2       33.6340   12.7700  -10.6260 C.3   100  ILE100      0.0020
     51  CD1       34.4980   13.2110  -13.6670 C.3   100  ILE100      0.0001
     52  N         34.2100    8.7780  -11.9190 N.am  101  ASP101     -0.1974
     53  CA        35.4910    8.0140  -11.9060 C.3   101  ASP101      0.1709
     54  C         35.3840    6.8300  -10.9190 C.2   101  ASP101      0.2293
     55  O         35.9650    6.8470   -9.8570 O.2   101  ASP101     -0.2864
     56  CB        36.7150    8.8930  -11.5880 C.3   101  ASP101      0.1436
     57  CG        37.3110    9.5920  -12.7970 C.2   101  ASP101      0.3671
     58  OD1       36.6900    9.6070  -13.8630 O.co2 101  ASP101     -0.2456
     59  OD2       38.3670   10.2930  -12.6300 O.co2 101  ASP101     -0.2456
     60  N         34.2530    9.4620   -7.0460 N.3   118  ASP118     -0.1239
     61  CA        34.4890   10.8080   -6.5610 C.3   118  ASP118      0.1674
     62  C         33.0970   11.4520   -6.4610 C.2   118  ASP118      0.2266
     63  O         32.2870   11.2760   -7.3330 O.2   118  ASP118     -0.2867
     64  CB        35.3690   11.6420   -7.4960 C.3   118  ASP118      0.1410
     65  CG        36.6680   10.9770   -7.8730 C.2   118  ASP118      0.3668
     66  OD1       37.2430   10.1910   -7.0520 O.co2 118  ASP118     -0.2456
     67  OD2       37.1210   11.2960   -9.0220 O.co2 118  ASP118     -0.2456
     68  N         31.0530   15.0600   -6.0220 N.3   120  MET120     -0.1245
     69  CA        31.3220   16.4210   -6.3250 C.3   120  MET120      0.1570
     70  C         30.0760   17.1910   -6.0000 C.2   120  MET120      0.2261
     71  O         29.0330   16.9470   -6.5770 O.2   120  MET120     -0.2867
     72  CB        31.6700   16.6200   -7.7900 C.3   120  MET120      0.0387
     73  CG        32.8260   15.8110   -8.2890 C.3   120  MET120      0.0595
     74  SD        34.3710   16.4420   -7.6710 S.3   120  MET120     -0.1393
     75  CE        35.4610   15.4960   -8.7630 C.3   120  MET120      0.0692
     76  N         37.2220   18.5650  -10.1240 N.3   126  SER126     -0.1217
     77  CA        38.5500   18.6390   -9.6100 C.3   126  SER126      0.1889
     78  C         39.1670   19.9840   -9.8510 C.2   126  SER126      0.2288
     79  O         39.7940   20.5000   -8.9340 O.2   126  SER126     -0.2866
     80  CB        39.4230   17.5820  -10.2660 C.3   126  SER126      0.2089
     81  OG        39.1050   16.3450   -9.7020 O.3   126  SER126     -0.2183
     82  N         41.2390   12.0860   -5.2370 N.3   264  VAL264     -0.1245
     83  CA        40.3020   11.3660   -6.0300 C.3   264  VAL264      0.1561
     84  C         40.8060    9.9550   -6.3490 C.2   264  VAL264      0.2260
     85  O         41.9440    9.6170   -6.0970 O.2   264  VAL264     -0.2867
     86  CB        40.0320   12.1290   -7.3460 C.3   264  VAL264      0.0252
     87  CG1       39.3080   13.4650   -7.1050 C.3   264  VAL264      0.0019
     88  CG2       41.3080   12.4270   -8.1070 C.3   264  VAL264      0.0019
     89  N         44.6900    9.6730   -6.2330 N.3   287  TYR287     -0.1241
     90  CA        45.7160   10.6520   -6.5610 C.3   287  TYR287      0.1605
     91  C         45.2730   12.0070   -6.1370 C.2   287  TYR287      0.2264
     92  O         44.0740   12.2300   -5.9020 O.2   287  TYR287     -0.2867
     93  CB        46.1620   10.6360   -8.0770 C.3   287  TYR287      0.0534
     94  CG        45.1000   11.1140   -9.0770 C.ar  287  TYR287     -0.0201
     95  CD1       44.0920   10.2370   -9.5590 C.ar  287  TYR287     -0.0009
     96  CD2       45.0580   12.4440   -9.4800 C.ar  287  TYR287     -0.0009
     97  CE1       43.1320   10.6750  -10.4130 C.ar  287  TYR287      0.0417
     98  CE2       44.1090   12.8880  -10.3570 C.ar  287  TYR287      0.0417
     99  CZ        43.1390   12.0120  -10.8230 C.ar  287  TYR287      0.1957
    100  OH        42.1770   12.5080  -11.6340 O.3   287  TYR287     -0.2866
    101  N         47.8260   13.6820  -12.9980 N.3   319  THR319     -0.1218
    102  CA        46.7340   12.6840  -13.0000 C.3   319  THR319      0.1862
    103  C         47.3490   11.2570  -12.8590 C.2   319  THR319      0.2287
    104  O         47.2920   10.4650  -13.8070 O.2   319  THR319     -0.2866
    105  CB        45.8340   12.8410  -14.2290 C.3   319  THR319      0.1770
    106  OG1       45.3470   14.1760  -14.3020 O.3   319  THR319     -0.2211
    107  CG2       44.5950   11.9330  -14.1730 C.3   319  THR319      0.0375
    108  N         46.8180    8.2400  -11.8910 N.3   321  GLU321     -0.1245
    109  CA        45.8930    7.1200  -11.7780 C.3   321  GLU321      0.1567
    110  C         46.6740    5.8480  -11.8390 C.2   321  GLU321      0.2260
    111  O         47.4830    5.6710  -12.7810 O.2   321  GLU321     -0.2867
    112  CB        45.0180    7.1340  -12.9590 C.3   321  GLU321      0.0388
    113  CG        44.0960    8.3540  -13.0170 C.3   321  GLU321      0.1160
    114  CD        43.4720    8.5670  -14.3540 C.2   321  GLU321      0.3649
    115  OE1       44.1990    8.3340  -15.3200 O.co2 321  GLU321     -0.2457
    116  OE2       42.2280    8.9690  -14.4720 O.co2 321  GLU321     -0.2457
    117  N         49.8170    6.1060  -14.2970 N.3   337  ARG337     -0.1245
    118  CA        49.9370    7.1260  -15.2580 C.3   337  ARG337      0.1563
    119  C         50.8040    8.2120  -14.5900 C.2   337  ARG337      0.2260
    120  O         50.7100    8.3690  -13.4050 O.2   337  ARG337     -0.2867
    121  CB        48.5540    7.7210  -15.4250 C.3   337  ARG337      0.0307
    122  CG        48.4580    8.9300  -16.3130 C.3   337  ARG337      0.0489
    123  CD        46.9880    9.2610  -16.6170 C.3   337  ARG337      0.2205
    124  NE        46.7810   10.5590  -17.2690 N.pl3 337  ARG337     -0.0865
    125  CZ        45.5920   11.0770  -17.5750 C.cat 337  ARG337      0.5346
    126  NH1       44.4910   10.3770  -17.3600 N.pl3 337  ARG337      0.1354
    127  NH2       45.5170   12.2850  -18.1310 N.pl3 337  ARG337      0.1354
    128  N         45.3010    9.3620  -28.0130 N.3   399  ARG399     -0.1245
    129  CA        44.9080    8.0980  -27.3670 C.3   399  ARG399      0.1563
    130  C         44.4790    7.0730  -28.3590 C.2   399  ARG399      0.2260
    131  O         43.3600    7.1170  -28.8080 O.2   399  ARG399     -0.2867
    132  CB        43.7800    8.3570  -26.3510 C.3   399  ARG399      0.0307
    133  CG        44.2920    9.1980  -25.1730 C.3   399  ARG399      0.0489
    134  CD        43.2800    9.4160  -24.0650 C.3   399  ARG399      0.2205
    135  NE        43.9030    9.9560  -22.8690 N.pl3 399  ARG399     -0.0865
    136  CZ        43.2680   10.5220  -21.8320 C.cat 399  ARG399      0.5346
    137  NH1       41.9510   10.6630  -21.8330 N.pl3 399  ARG399      0.1354
    138  NH2       43.9590   10.8330  -20.7460 N.pl3 399  ARG399      0.1354
    139  N         40.4870    4.8360  -22.0070 N.3   439  TYR439     -0.1241
    140  CA        40.4710    4.1860  -20.7020 C.3   439  TYR439      0.1605
    141  C         40.0090    2.7560  -20.9050 C.2   439  TYR439      0.2264
    142  O         39.3130    2.4590  -21.9030 O.2   439  TYR439     -0.2867
    143  CB        39.5280    4.9150  -19.7570 C.3   439  TYR439      0.0534
    144  CG        40.0890    6.1050  -19.0540 C.ar  439  TYR439     -0.0201
    145  CD1       40.9310    7.0100  -19.7090 C.ar  439  TYR439     -0.0009
    146  CD2       39.8310    6.3250  -17.6880 C.ar  439  TYR439     -0.0009
    147  CE1       41.4850    8.1060  -19.0460 C.ar  439  TYR439      0.0417
    148  CE2       40.4010    7.4160  -17.0430 C.ar  439  TYR439      0.0417
    149  CZ        41.2370    8.2870  -17.7240 C.ar  439  TYR439      0.1957
    150  OH        41.8270    9.3410  -17.1290 O.3   439  TYR439     -0.2866
    151  N         39.4360   10.0000  -25.8210 N.3   459  SER459     -0.1202
    152  CA        38.6580   10.7640  -24.8590 C.3   459  SER459      0.2020
    153  C         39.3360   12.0250  -24.3060 C.2   459  SER459      0.2618
    154  O         38.7580   12.7110  -23.4950 O.2   459  SER459     -0.2717
    155  CB        38.2350    9.8310  -23.7220 C.3   459  SER459      0.2103
    156  OG        39.3860    9.4290  -22.9720 O.3   459  SER459     -0.2182
    157  N         40.5780   12.2800  -24.6870 N.am  460  TRP460     -0.1975
    158  CA        41.2710   13.5480  -24.3880 C.3   460  TRP460      0.1640
    159  C         40.9610   14.6200  -25.4550 C.2   460  TRP460      0.2290
    160  O         40.7870   15.8010  -25.1400 O.2   460  TRP460     -0.2864
    161  CB        42.7850   13.2780  -24.3580 C.3   460  TRP460      0.0576
    162  CG        43.6300   14.4440  -23.8980 C.ar  460  TRP460      0.0006
    163  CD1       44.3750   15.3130  -24.6860 C.ar  460  TRP460      0.0946
    164  CD2       43.8220   14.8710  -22.5560 C.ar  460  TRP460      0.0152
    165  NE1       44.9920   16.2680  -23.9000 N.ar  460  TRP460     -0.2442
    166  CE2       44.6790   16.0010  -22.5860 C.ar  460  TRP460      0.0810
    167  CE3       43.3240   14.4360  -21.3320 C.ar  460  TRP460      0.0012
    168  CZ2       45.0690   16.6580  -21.4290 C.ar  460  TRP460      0.0191
    169  CZ3       43.7260   15.0980  -20.1800 C.ar  460  TRP460      0.0001
    170  CH2       44.5920   16.1710  -20.2310 C.ar  460  TRP460      0.0015
@<TRIPOS>BOND
     1   131   130    2
     2   130   129    1
     3   128   129    1
     4   129   132    1
     5   132   133    1
     6   151   152    1
     7   159   160    2
     8   159   158    1
     9   133   134    1
    10   152   153    1
    11   152   155    1
    12   157   158    1
    13   157   153   am
    14   163   165   ar
    15   163   162   ar
    16   158   161    1
    17   161   162    1
    18   153   154    2
    19   134   135    1
    20   165   166   ar
    21   162   164   ar
    22   155   156    1
    23   135   136    2
    24   166   164   ar
    25   166   168   ar
    26   164   167   ar
    27   139   140    1
    28   142   141    2
    29   137   136    1
    30   136   138    1
    31   168   170   ar
    32   167   169   ar
    33     6     7    1
    34     6     5    1
    35     7     8    1
    36   141   140    1
    37     8     9    2
    38   140   143    1
    39    23    22    2
    40     9    10    1
    41     9    11    1
    42   170   169   ar
    43     1     2    1
    44     2     5    1
    45     2     3    1
    46   143   144    1
    47   145   144   ar
    48   145   147   ar
    49    22    21    1
    50   144   146   ar
    51    24    21    1
    52    24    25    1
    53   147   149   ar
    54    26    25    1
    55    26    27    1
    56     3    12   am
    57     3     4    2
    58    12    13    1
    59    29    28    1
    60    21    20    1
    61   127   125    1
    62    31    32    1
    63   149   150    1
    64   149   148   ar
    65    27    28    2
    66   146   148   ar
    67    28    30    1
    68   125   126    1
    69   125   124    2
    70    37    36   ar
    71    13    14    1
    72    13    16    1
    73   124   123    1
    74    19    17    1
    75    38    36   ar
    76    36    35    1
    77    14    15    2
    78   123   122    1
    79    32    35    1
    80    32    33    1
    81    17    16    1
    82   122   121    1
    83    34    33    2
    84    16    18    1
    85    33    39   am
    86   121   118    1
    87   115   114   ar
    88   118   119    1
    89   118   117    1
    90   119   120    2
    91    39    40    1
    92   116   114   ar
    93   114   113    1
    94   106   105    1
    95   105   107    1
    96   105   102    1
    97    58    57   ar
    98   104   103    2
    99    42    41    2
   100    51    49    1
   101    41    40    1
   102    40    43    1
   103   113   112    1
   104   102   101    1
   105   102   103    1
   106   112   109    1
   107    49    48    1
   108    57    59   ar
   109    57    56    1
   110   111   110    2
   111    52    53    1
   112    52    46   am
   113    53    56    1
   114    53    54    1
   115   108   109    1
   116   110   109    1
   117    48    45    1
   118    48    50    1
   119   100    99    1
   120    45    46    1
   121    45    44    1
   122    46    47    2
   123    54    55    2
   124    99    97   ar
   125    99    98   ar
   126    97    95   ar
   127    98    96   ar
   128    80    81    1
   129    80    77    1
   130    76    77    1
   131    78    77    1
   132    78    79    2
   133    95    94   ar
   134    96    94   ar
   135    94    93    1
   136    67    65   ar
   137    75    74    1
   138    73    72    1
   139    73    74    1
   140    88    86    1
   141    93    90    1
   142    65    64    1
   143    65    66   ar
   144    72    69    1
   145    64    61    1
   146    86    87    1
   147    86    83    1
   148    63    62    2
   149    60    61    1
   150    71    70    2
   151    90    89    1
   152    90    91    1
   153    61    62    1
   154    84    85    2
   155    84    83    1
   156    69    68    1
   157    69    70    1
   158    91    92    2
   159    83    82    1
