@<TRIPOS>MOLECULE
tmp/4x6mA00.pdb
 202 200 0 0 0
SMALL
GASTEIGER

@<TRIPOS>ATOM
      1  N         49.4870  -27.2710   37.4310 N.3    26  ARG26      -0.1231
      2  CA        49.2930  -25.8930   37.0540 C.3    26  ARG26       0.1694
      3  C         47.8220  -25.5170   37.2320 C.2    26  ARG26       0.2592
      4  O         46.9640  -26.3990   37.2630 O.2    26  ARG26      -0.2718
      5  CB        49.7670  -25.6630   35.5950 C.3    26  ARG26       0.0321
      6  CG        48.9970  -26.4470   34.5520 C.3    26  ARG26       0.0489
      7  CD        49.4560  -26.1260   33.1430 C.3    26  ARG26       0.2205
      8  NE        48.7330  -26.9410   32.1660 N.pl3  26  ARG26      -0.0865
      9  CZ        47.5630  -26.6170   31.6190 C.cat  26  ARG26       0.5346
     10  NH1       46.9660  -25.4730   31.9340 N.pl3  26  ARG26       0.1354
     11  NH2       46.9790  -27.4360   30.7550 N.pl3  26  ARG26       0.1354
     12  N         47.5260  -24.2000   37.3070 N.am   27  HIS27      -0.1962
     13  CA        46.1550  -23.7320   37.3780 C.3    27  HIS27       0.1787
     14  C         45.4830  -24.0850   36.0340 C.2    27  HIS27       0.2620
     15  O         46.1070  -23.9520   34.9690 O.2    27  HIS27      -0.2715
     16  CB        46.1550  -22.2360   37.6300 C.3    27  HIS27       0.0785
     17  CG        44.8510  -21.5440   37.3430 C.ar   27  HIS27       0.0821
     18  ND1       43.9120  -21.3300   38.3410 N.ar   27  HIS27      -0.2267
     19  CD2       44.4120  -20.9680   36.1920 C.ar   27  HIS27       0.1154
     20  CE1       42.9290  -20.6660   37.7650 C.ar   27  HIS27       0.1986
     21  NE2       43.1830  -20.4290   36.4660 N.ar   27  HIS27      -0.2212
     22  N         44.2460  -24.5800   36.1060 N.am   28  LEU28      -0.1963
     23  CA        43.4320  -24.9520   34.9500 C.3    28  LEU28       0.1728
     24  C         42.2590  -23.9690   34.7470 C.2    28  LEU28       0.2616
     25  O         42.0590  -23.4350   33.6550 O.2    28  LEU28      -0.2715
     26  CB        42.8880  -26.4010   35.1170 C.3    28  LEU28       0.0311
     27  CG        41.9870  -26.9210   33.9960 C.3    28  LEU28       0.0022
     28  CD1       42.7400  -27.0060   32.6760 C.3    28  LEU28       0.0001
     29  CD2       41.2520  -28.2250   34.3950 C.3    28  LEU28       0.0001
     30  N         41.4720  -23.7610   35.8100 N.am   29  CYS29      -0.1968
     31  CA        40.2690  -22.9360   35.7690 C.3    29  CYS29       0.1712
     32  C         39.9600  -22.3700   37.1310 C.2    29  CYS29       0.2296
     33  O         40.4430  -22.8660   38.1630 O.2    29  CYS29      -0.2864
     34  CB        39.0940  -23.7860   35.2850 C.3    29  CYS29       0.0983
     35  SG        38.9450  -23.9080   33.4830 S.3    29  CYS29      -0.0798
     36  N         33.5720  -26.6120   29.9070 N.3    44  HIS44      -0.1226
     37  CA        34.6750  -26.6030   28.9050 C.3    44  HIS44       0.1752
     38  C         36.0740  -26.8260   29.5190 C.2    44  HIS44       0.2596
     39  O         37.0010  -27.2220   28.8040 O.2    44  HIS44      -0.2718
     40  CB        34.6640  -25.3530   28.0000 C.3    44  HIS44       0.0759
     41  CG        35.1170  -24.1030   28.6800 C.ar   44  HIS44       0.0818
     42  ND1       34.2110  -23.1910   29.1800 N.ar   44  HIS44      -0.2268
     43  CD2       36.3720  -23.6770   28.9690 C.ar   44  HIS44       0.1154
     44  CE1       34.9280  -22.2300   29.7370 C.ar   44  HIS44       0.1986
     45  NE2       36.2370  -22.4880   29.6580 N.ar   44  HIS44      -0.2212
     46  N         36.2050  -26.5990   30.8300 N.am   45  CYS45      -0.1970
     47  CA        37.4460  -26.7830   31.5860 C.3    45  CYS45       0.1712
     48  C         37.9530  -28.2140   31.5280 C.2    45  CYS45       0.2296
     49  O         39.1490  -28.4360   31.6920 O.2    45  CYS45      -0.2864
     50  CB        37.2380  -26.3530   33.0360 C.3    45  CYS45       0.0983
     51  SG        37.0290  -24.5740   33.2650 S.3    45  CYS45      -0.0798
     52  N         37.7710  -30.4220   28.9490 N.3    47  TYR47      -0.1241
     53  CA        38.1010  -30.9390   27.6190 C.3    47  TYR47       0.1605
     54  C         39.3860  -31.7920   27.7490 C.2    47  TYR47       0.2264
     55  O         40.3760  -31.3380   28.3240 O.2    47  TYR47      -0.2867
     56  CB        38.3100  -29.7910   26.6020 C.3    47  TYR47       0.0534
     57  CG        38.6790  -30.3180   25.2330 C.ar   47  TYR47      -0.0201
     58  CD1       37.7020  -30.8080   24.3660 C.ar   47  TYR47      -0.0009
     59  CD2       40.0190  -30.4610   24.8550 C.ar   47  TYR47      -0.0009
     60  CE1       38.0370  -31.3320   23.1190 C.ar   47  TYR47       0.0417
     61  CE2       40.3690  -31.0120   23.6240 C.ar   47  TYR47       0.0417
     62  CZ        39.3710  -31.4230   22.7460 C.ar   47  TYR47       0.1957
     63  OH        39.6950  -31.9770   21.5320 O.3    47  TYR47      -0.2866
     64  N         45.0470  -14.1400   32.5280 N.3   134  TYR134     -0.1241
     65  CA        45.8760  -13.1470   31.8190 C.3   134  TYR134      0.1605
     66  C         45.3480  -11.7380   31.9510 C.2   134  TYR134      0.2264
     67  O         44.1410  -11.5490   32.0860 O.2   134  TYR134     -0.2867
     68  CB        45.9310  -13.4890   30.3230 C.3   134  TYR134      0.0534
     69  CG        46.6520  -14.7550   29.9180 C.ar  134  TYR134     -0.0201
     70  CD1       46.9400  -15.7500   30.8490 C.ar  134  TYR134     -0.0009
     71  CD2       47.0100  -14.9800   28.5900 C.ar  134  TYR134     -0.0009
     72  CE1       47.5610  -16.9380   30.4700 C.ar  134  TYR134      0.0417
     73  CE2       47.6110  -16.1760   28.1940 C.ar  134  TYR134      0.0417
     74  CZ        47.8690  -17.1590   29.1360 C.ar  134  TYR134      0.1957
     75  OH        48.4610  -18.3360   28.7530 O.3   134  TYR134     -0.2866
     76  N         46.1550  -10.4980   26.1590 N.3   137  LEU137     -0.1245
     77  CA        46.0520  -11.6530   25.2790 C.3   137  LEU137      0.1561
     78  C         47.2350  -12.6320   25.3370 C.2   137  LEU137      0.2260
     79  O         47.0270  -13.8410   25.3160 O.2   137  LEU137     -0.2867
     80  CB        45.8260  -11.1580   23.8480 C.3   137  LEU137      0.0270
     81  CG        45.1220  -12.1120   22.8910 C.3   137  LEU137      0.0019
     82  CD1       43.7230  -12.5410   23.4100 C.3   137  LEU137      0.0001
     83  CD2       45.0460  -11.4890   21.5130 C.3   137  LEU137      0.0001
     84  N         50.7460  -14.6240   31.1480 N.3   140  LYS140     -0.1231
     85  CA        50.8510  -15.8110   31.9690 C.3   140  LYS140      0.1693
     86  C         49.8250  -15.6770   33.0970 C.2   140  LYS140      0.2591
     87  O         49.2880  -14.5860   33.3300 O.2   140  LYS140     -0.2718
     88  CB        52.3040  -16.0170   32.4800 C.3   140  LYS140      0.0285
     89  CG        52.8620  -14.8960   33.3560 C.3   140  LYS140      0.0035
     90  CD        54.1880  -15.2850   34.0230 C.3   140  LYS140      0.0206
     91  CE        55.4270  -14.9940   33.1840 C.3   140  LYS140      0.1093
     92  NZ        55.9880  -13.6290   33.4180 N.3   140  LYS140     -0.1314
     93  N         49.5420  -16.7940   33.7770 N.am  141  ILE141     -0.1980
     94  CA        48.6260  -16.8710   34.9140 C.3   141  ILE141      0.1595
     95  C         49.1710  -15.9330   35.9990 C.2   141  ILE141      0.2287
     96  O         50.3770  -15.9430   36.2780 O.2   141  ILE141     -0.2864
     97  CB        48.4940  -18.3750   35.3780 C.3   141  ILE141      0.0276
     98  CG1       47.6690  -19.2060   34.3540 C.3   141  ILE141      0.0022
     99  CG2       47.9620  -18.5500   36.8270 C.3   141  ILE141      0.0022
    100  CD1       46.2860  -18.6760   34.0040 C.3   141  ILE141      0.0001
    101  N         37.5490   -7.0300   31.5380 N.3   182  ASP182     -0.1225
    102  CA        36.9470   -8.3150   31.1970 C.3   182  ASP182      0.1805
    103  C         37.7190   -9.4590   31.8270 C.2   182  ASP182      0.2598
    104  O         38.8430   -9.2850   32.2790 O.2   182  ASP182     -0.2718
    105  CB        37.0610   -8.5120   29.6470 C.3   182  ASP182      0.1424
    106  CG        36.1430   -9.5430   28.9990 C.2   182  ASP182      0.3668
    107  OD1       35.2350  -10.0700   29.7090 O.co2 182  ASP182     -0.2456
    108  OD2       36.3190   -9.8160   27.7730 O.co2 182  ASP182     -0.2456
    109  N         37.1600  -10.6540   31.6950 N.am  183  ALA183     -0.1966
    110  CA        37.8210  -11.9160   31.9520 C.3   183  ALA183      0.1728
    111  C         38.7840  -12.1350   30.7640 C.2   183  ALA183      0.2616
    112  O         38.6340  -11.5230   29.7020 O.2   183  ALA183     -0.2715
    113  CB        36.7840  -13.0330   31.9780 C.3   183  ALA183      0.0334
    114  N         39.7760  -12.9780   30.9520 N.am  184  CYS184     -0.1954
    115  CA        40.6870  -13.3640   29.8930 C.3   184  CYS184      0.1843
    116  C         41.1070  -14.8510   30.1140 C.2   184  CYS184      0.2625
    117  O         40.4940  -15.5270   30.9360 O.2   184  CYS184     -0.2714
    118  CB        41.8780  -12.4020   29.8160 C.3   184  CYS184      0.0997
    119  SG        42.8410  -12.5310   28.2870 S.3   184  CYS184     -0.0797
    120  N         42.0660  -15.3730   29.3400 N.am  185  LYS185     -0.1963
    121  CA        42.5580  -16.7580   29.4360 C.3   185  LYS185      0.1728
    122  C         42.9770  -17.1010   30.8650 C.2   185  LYS185      0.2616
    123  O         43.7910  -16.3750   31.4520 O.2   185  LYS185     -0.2715
    124  CB        43.7420  -16.9720   28.4810 C.3   185  LYS185      0.0311
    125  CG        43.3660  -16.8380   27.0110 C.3   185  LYS185      0.0038
    126  CD        44.5680  -16.3260   26.2310 C.3   185  LYS185      0.0206
    127  CE        44.5370  -16.5910   24.7490 C.3   185  LYS185      0.1093
    128  NZ        45.8330  -16.1830   24.1360 N.3   185  LYS185     -0.1314
    129  N         42.3860  -18.1640   31.4160 N.am  186  GLY186     -0.1955
    130  CA        42.6510  -18.6230   32.7870 C.3   186  GLY186      0.1869
    131  C         41.5990  -18.2150   33.8020 C.2   186  GLY186      0.2309
    132  O         41.6240  -18.6700   34.9600 O.2   186  GLY186     -0.2863
    133  N         38.1610  -18.5850   33.0660 N.3   188  SER188     -0.1217
    134  CA        36.9800  -19.4260   32.8210 C.3   188  SER188      0.1889
    135  C         36.6780  -20.4150   33.9680 C.2   188  SER188      0.2288
    136  O         37.5990  -20.8960   34.6480 O.2   188  SER188     -0.2866
    137  CB        37.0420  -20.1220   31.4740 C.3   188  SER188      0.2089
    138  OG        37.9420  -21.2110   31.5340 O.3   188  SER188     -0.2183
    139  N         32.1790  -17.5590   34.1340 N.3   206  THR206     -0.1203
    140  CA        33.0560  -17.1010   33.0420 C.3   206  THR206      0.1994
    141  C         33.1640  -18.2140   32.0100 C.2   206  THR206      0.2619
    142  O         33.6270  -19.3170   32.3100 O.2   206  THR206     -0.2717
    143  CB        34.4000  -16.6150   33.5960 C.3   206  THR206      0.1784
    144  OG1       34.1500  -15.5970   34.5820 O.3   206  THR206     -0.2211
    145  CG2       35.3420  -16.0900   32.4890 C.3   206  THR206      0.0376
    146  N         32.6500  -17.9400   30.8210 N.am  207  SER207     -0.1937
    147  CA        32.5350  -18.9570   29.7890 C.3   207  SER207      0.2055
    148  C         33.3770  -18.6700   28.5470 C.2   207  SER207      0.2643
    149  O         34.3850  -19.3470   28.3130 O.2   207  SER207     -0.2714
    150  CB        31.0570  -19.1810   29.4470 C.3   207  SER207      0.2130
    151  OG        30.8780  -20.1690   28.4490 O.3   207  SER207     -0.2179
    152  N         32.9710  -17.6900   27.7540 N.am  208  TRP208     -0.1959
    153  CA        33.7120  -17.3980   26.5240 C.3   208  TRP208      0.1771
    154  C         33.5490  -15.9240   26.0930 C.2   208  TRP208      0.2620
    155  O         32.7050  -15.2200   26.6100 O.2   208  TRP208     -0.2715
    156  CB        33.2670  -18.3970   25.4250 C.3   208  TRP208      0.0590
    157  CG        31.8380  -18.2140   24.9930 C.ar  208  TRP208      0.0006
    158  CD1       30.7220  -18.7180   25.5930 C.ar  208  TRP208      0.0946
    159  CD2       31.3790  -17.4020   23.8970 C.ar  208  TRP208      0.0152
    160  NE1       29.5910  -18.2950   24.9220 N.ar  208  TRP208     -0.2442
    161  CE2       29.9690  -17.5160   23.8530 C.ar  208  TRP208      0.0810
    162  CE3       32.0320  -16.6100   22.9200 C.ar  208  TRP208      0.0012
    163  CZ2       29.1960  -16.8580   22.8850 C.ar  208  TRP208      0.0191
    164  CZ3       31.2660  -15.9730   21.9540 C.ar  208  TRP208      0.0001
    165  CH2       29.8640  -16.0950   21.9480 C.ar  208  TRP208      0.0015
    166  N         34.3760  -15.4830   25.1660 N.am  209  GLY209     -0.1954
    167  CA        34.3420  -14.1510   24.5650 C.3   209  GLY209      0.1869
    168  C         35.2900  -14.1430   23.3820 C.2   209  GLY209      0.2309
    169  O         36.1560  -15.0140   23.3080 O.2   209  GLY209     -0.2863
    170  N         38.3210  -12.7000   22.0170 N.3   211  GLY211     -0.1210
    171  CA        39.4860  -11.9820   22.5420 C.3   211  GLY211      0.1956
    172  C         39.2540  -11.6380   24.0100 C.2   211  GLY211      0.2612
    173  O         38.4380  -12.2860   24.6700 O.2   211  GLY211     -0.2717
    174  N         39.9580  -10.6360   24.5440 N.am  212  CYS212     -0.1970
    175  CA        39.8110  -10.2190   25.9470 C.3   212  CYS212      0.1712
    176  C         39.5920   -8.7140   25.9720 C.2   212  CYS212      0.2296
    177  O         40.4050   -7.9980   25.3990 O.2   212  CYS212     -0.2864
    178  CB        41.0470  -10.5850   26.7710 C.3   212  CYS212      0.0983
    179  SG        41.5020  -12.3380   26.7370 S.3   212  CYS212     -0.0798
    180  N         31.9260  -10.1410   27.5970 N.3   219  GLY219     -0.1210
    181  CA        32.2490  -11.4740   28.0620 C.3   219  GLY219      0.1956
    182  C         30.9370  -12.2290   28.1530 C.2   219  GLY219      0.2612
    183  O         29.9290  -11.6490   28.5450 O.2   219  GLY219     -0.2717
    184  N         30.9140  -13.4930   27.7150 N.am  220  VAL220     -0.1965
    185  CA        29.7120  -14.3410   27.7740 C.3   220  VAL220      0.1727
    186  C         29.8500  -15.3090   28.9400 C.2   220  VAL220      0.2616
    187  O         30.9000  -15.9460   29.1060 O.2   220  VAL220     -0.2715
    188  CB        29.3270  -15.0170   26.4300 C.3   220  VAL220      0.0290
    189  CG1       27.9560  -15.6820   26.5430 C.3   220  VAL220      0.0023
    190  CG2       29.3310  -13.9920   25.2760 C.3   220  VAL220      0.0023
    191  N         28.7930  -15.3660   29.7810 N.am  221  TYR221     -0.1974
    192  CA        28.7470  -16.1410   31.0120 C.3   221  TYR221      0.1639
    193  C         27.5900  -17.0720   31.0270 C.2   221  TYR221      0.2290
    194  O         26.5700  -16.7590   30.4270 O.2   221  TYR221     -0.2864
    195  CB        28.6310  -15.1910   32.2270 C.3   221  TYR221      0.0560
    196  CG        29.8000  -14.2340   32.3720 C.ar  221  TYR221     -0.0198
    197  CD1       29.8780  -13.0720   31.6050 C.ar  221  TYR221     -0.0009
    198  CD2       30.8090  -14.4740   33.2980 C.ar  221  TYR221     -0.0009
    199  CE1       30.9590  -12.2030   31.7230 C.ar  221  TYR221      0.0417
    200  CE2       31.8860  -13.6010   33.4380 C.ar  221  TYR221      0.0417
    201  CZ        31.9650  -12.4740   32.6400 C.ar  221  TYR221      0.1957
    202  OH        33.0210  -11.6080   32.8000 O.3   221  TYR221     -0.2866
@<TRIPOS>BOND
     1    83    81    1
     2    63    62    1
     3   165   164   ar
     4   165   163   ar
     5   164   162   ar
     6   170   171    1
     7   171   172    1
     8    62    60   ar
     9    62    61   ar
    10   163   161   ar
    11    81    82    1
    12    81    80    1
    13   162   159   ar
    14    60    58   ar
    15   169   168    2
    16   168   167    1
    17    61    59   ar
    18    80    77    1
    19   161   159   ar
    20   161   160   ar
    21   159   157   ar
    22   172   174   am
    23   172   173    2
    24   128   127    1
    25    58    57   ar
    26   174   175    1
    27   167   166    1
    28   127   126    1
    29    59    57   ar
    30   160   158   ar
    31   157   156    1
    32   157   158   ar
    33   166   154   am
    34    57    56    1
    35   190   188    1
    36    77    78    1
    37    77    76    1
    38    79    78    2
    39   177   176    2
    40   156   153    1
    41   175   176    1
    42   175   178    1
    43   154   153    1
    44   154   155    2
    45   126   125    1
    46   188   189    1
    47   188   185    1
    48   153   152    1
    49    56    53    1
    50   179   178    1
    51   179   119    1
    52   125   124    1
    53   180   181    1
    54    53    54    1
    55    53    52    1
    56   184   185    1
    57   184   182   am
    58    54    55    2
    59   152   148   am
    60   108   106   ar
    61   185   186    1
    62    40    41    1
    63    40    37    1
    64   181   182    1
    65   182   183    2
    66    73    71   ar
    67    73    74   ar
    68   119   118    1
    69   149   148    2
    70   151   150    1
    71   124   121    1
    72   148   147    1
    73    71    69   ar
    74    41    43   ar
    75    41    42   ar
    76    75    74    1
    77    39    38    2
    78    37    38    1
    79    37    36    1
    80   186   187    2
    81   186   191   am
    82    43    45   ar
    83   106   105    1
    84   106   107   ar
    85    74    72   ar
    86    42    44   ar
    87   120   121    1
    88   120   116   am
    89   121   122    1
    90   150   147    1
    91    38    46   am
    92   105   102    1
    93    45    44   ar
    94   112   111    2
    95   191   192    1
    96   147   146    1
    97   118   115    1
    98   115   116    1
    99   115   114    1
   100    69    68    1
   101    69    70   ar
   102   116   117    2
   103    68    65    1
   104   194   193    2
   105    72    70   ar
   106    11     9    1
   107   111   114   am
   108   111   110    1
   109   146   141   am
   110    46    47    1
   111   122   129   am
   112   122   123    2
   113   192   193    1
   114   192   195    1
   115    84    85    1
   116   102   101    1
   117   102   103    1
   118   129   130    1
   119   137   138    1
   120   137   134    1
   121    48    47    1
   122    48    49    2
   123    47    50    1
   124   197   199   ar
   125   197   196   ar
   126     9    10    1
   127     9     8    2
   128   109   103   am
   129   109   110    1
   130   199   201   ar
   131    65    66    1
   132    65    64    1
   133   103   104    2
   134    66    67    2
   135   110   113    1
   136    85    88    1
   137    85    86    1
   138   141   142    2
   139   141   140    1
   140     8     7    1
   141   195   196    1
   142   196   198   ar
   143    88    89    1
   144   145   143    1
   145   201   202    1
   146   201   200   ar
   147    28    27    1
   148   130   131    1
   149   134   133    1
   150   134   135    1
   151    50    51    1
   152   140   143    1
   153   140   139    1
   154    86    87    2
   155    86    93   am
   156     7     6    1
   157    91    92    1
   158    91    90    1
   159    51    35    1
   160   198   200   ar
   161    89    90    1
   162    35    34    1
   163   143   144    1
   164    25    24    2
   165    93    94    1
   166   131   132    2
   167   135   136    2
   168    27    29    1
   169    27    26    1
   170   100    98    1
   171    98    97    1
   172     6     5    1
   173    24    23    1
   174    24    30   am
   175    94    97    1
   176    94    95    1
   177    23    26    1
   178    23    22    1
   179    15    14    2
   180    34    31    1
   181    97    99    1
   182     5     2    1
   183    31    30    1
   184    31    32    1
   185    95    96    2
   186    14    22   am
   187    14    13    1
   188    19    21   ar
   189    19    17   ar
   190    21    20   ar
   191     2     3    1
   192     2     1    1
   193    32    33    2
   194     3     4    2
   195     3    12   am
   196    12    13    1
   197    17    16    1
   198    17    18   ar
   199    13    16    1
   200    20    18   ar
