@<TRIPOS>MOLECULE
tmp/4x6nA01.pdb
 202 200 0 0 0
SMALL
GASTEIGER

@<TRIPOS>ATOM
      1  N         49.6440  -27.3050   37.2020 N.3    26  ARG26      -0.1231
      2  CA        49.4240  -25.9110   36.8160 C.3    26  ARG26       0.1694
      3  C         47.9550  -25.5650   37.0450 C.2    26  ARG26       0.2592
      4  O         47.1160  -26.4730   37.1210 O.2    26  ARG26      -0.2718
      5  CB        49.8050  -25.6950   35.3280 C.3    26  ARG26       0.0321
      6  CG        49.0160  -26.5790   34.3350 C.3    26  ARG26       0.0489
      7  CD        49.2940  -26.2450   32.8800 C.3    26  ARG26       0.2205
      8  NE        48.5610  -27.1450   31.9840 N.pl3  26  ARG26      -0.0865
      9  CZ        47.3600  -26.8970   31.4610 C.cat  26  ARG26       0.5346
     10  NH1       46.7410  -25.7490   31.7140 N.pl3  26  ARG26       0.1354
     11  NH2       46.7750  -27.7900   30.6750 N.pl3  26  ARG26       0.1354
     12  N         47.6420  -24.2620   37.1380 N.am   27  HIS27      -0.1962
     13  CA        46.2610  -23.7830   37.2490 C.3    27  HIS27       0.1787
     14  C         45.5730  -24.1580   35.9040 C.2    27  HIS27       0.2620
     15  O         46.1940  -24.0200   34.8400 O.2    27  HIS27      -0.2715
     16  CB        46.2670  -22.2540   37.4300 C.3    27  HIS27       0.0785
     17  CG        44.9470  -21.5820   37.1640 C.ar   27  HIS27       0.0821
     18  ND1       44.0250  -21.3760   38.1790 N.ar   27  HIS27      -0.2267
     19  CD2       44.4590  -21.0430   36.0130 C.ar   27  HIS27       0.1154
     20  CE1       43.0030  -20.7540   37.6190 C.ar   27  HIS27       0.1986
     21  NE2       43.2020  -20.5520   36.3090 N.ar   27  HIS27      -0.2212
     22  N         44.3340  -24.6720   35.9710 N.am   28  LEU28      -0.1963
     23  CA        43.5360  -25.0500   34.8090 C.3    28  LEU28       0.1728
     24  C         42.3580  -24.0970   34.6130 C.2    28  LEU28       0.2616
     25  O         42.1690  -23.5480   33.5220 O.2    28  LEU28      -0.2715
     26  CB        43.0530  -26.5120   34.9560 C.3    28  LEU28       0.0311
     27  CG        42.0840  -27.0620   33.8970 C.3    28  LEU28       0.0022
     28  CD1       42.7440  -27.1380   32.5130 C.3    28  LEU28       0.0001
     29  CD2       41.4560  -28.4020   34.3530 C.3    28  LEU28       0.0001
     30  N         41.5850  -23.8730   35.6820 N.am   29  CYS29      -0.1968
     31  CA        40.3880  -23.0570   35.6190 C.3    29  CYS29       0.1712
     32  C         40.0700  -22.4560   36.9800 C.2    29  CYS29       0.2296
     33  O         40.6140  -22.8810   37.9990 O.2    29  CYS29      -0.2864
     34  CB        39.2210  -23.9290   35.1380 C.3    29  CYS29       0.0983
     35  SG        39.0060  -23.9610   33.3400 S.3    29  CYS29      -0.0798
     36  N         33.6560  -26.6910   29.7410 N.3    44  HIS44      -0.1226
     37  CA        34.7780  -26.6950   28.7630 C.3    44  HIS44       0.1752
     38  C         36.1510  -26.8880   29.4120 C.2    44  HIS44       0.2596
     39  O         37.1120  -27.2520   28.7210 O.2    44  HIS44      -0.2718
     40  CB        34.7700  -25.4610   27.8230 C.3    44  HIS44       0.0759
     41  CG        35.2710  -24.2110   28.4750 C.ar   44  HIS44       0.0818
     42  ND1       34.4070  -23.2600   28.9410 N.ar   44  HIS44      -0.2268
     43  CD2       36.5340  -23.8320   28.7670 C.ar   44  HIS44       0.1154
     44  CE1       35.1570  -22.3030   29.4560 C.ar   44  HIS44       0.1986
     45  NE2       36.4420  -22.6160   29.3980 N.ar   44  HIS44      -0.2212
     46  N         36.2530  -26.6510   30.7290 N.am   45  CYS45      -0.1970
     47  CA        37.5090  -26.8560   31.4710 C.3    45  CYS45       0.1712
     48  C         38.0070  -28.3050   31.4070 C.2    45  CYS45       0.2296
     49  O         39.1940  -28.5260   31.5760 O.2    45  CYS45      -0.2864
     50  CB        37.3300  -26.4190   32.9250 C.3    45  CYS45       0.0983
     51  SG        37.1020  -24.6380   33.1310 S.3    45  CYS45      -0.0798
     52  N         37.8650  -30.5350   28.8670 N.3    47  TYR47      -0.1241
     53  CA        38.2010  -31.0530   27.5400 C.3    47  TYR47       0.1605
     54  C         39.4870  -31.9070   27.6870 C.2    47  TYR47       0.2264
     55  O         40.4790  -31.4270   28.2360 O.2    47  TYR47      -0.2867
     56  CB        38.4200  -29.8910   26.5410 C.3    47  TYR47       0.0534
     57  CG        38.7850  -30.4050   25.1630 C.ar   47  TYR47      -0.0201
     58  CD1       37.7990  -30.8220   24.2720 C.ar   47  TYR47      -0.0009
     59  CD2       40.1210  -30.6010   24.8000 C.ar   47  TYR47      -0.0009
     60  CE1       38.1280  -31.3730   23.0310 C.ar   47  TYR47       0.0417
     61  CE2       40.4640  -31.1360   23.5560 C.ar   47  TYR47       0.0417
     62  CZ        39.4610  -31.5160   22.6730 C.ar   47  TYR47       0.1957
     63  OH        39.7700  -32.0560   21.4530 O.3    47  TYR47      -0.2866
     64  N         44.9780  -14.2730   32.2790 N.3   134  TYR134     -0.1241
     65  CA        45.8240  -13.3390   31.5330 C.3   134  TYR134      0.1605
     66  C         45.2700  -11.9130   31.6240 C.2   134  TYR134      0.2264
     67  O         44.0480  -11.7140   31.6940 O.2   134  TYR134     -0.2867
     68  CB        45.8290  -13.7720   30.0540 C.3   134  TYR134      0.0534
     69  CG        46.5920  -15.0320   29.6760 C.ar  134  TYR134     -0.0201
     70  CD1       46.8970  -16.0050   30.6270 C.ar  134  TYR134     -0.0009
     71  CD2       46.9430  -15.2850   28.3490 C.ar  134  TYR134     -0.0009
     72  CE1       47.5770  -17.1750   30.2770 C.ar  134  TYR134      0.0417
     73  CE2       47.6270  -16.4520   27.9870 C.ar  134  TYR134      0.0417
     74  CZ        47.9160  -17.4050   28.9500 C.ar  134  TYR134      0.1957
     75  OH        48.6080  -18.5410   28.6020 O.3   134  TYR134     -0.2866
     76  N         45.6140  -11.0710   25.7280 N.3   137  LEU137     -0.1245
     77  CA        45.5920  -12.3060   24.9310 C.3   137  LEU137      0.1561
     78  C         46.9120  -13.1190   24.9330 C.2   137  LEU137      0.2260
     79  O         46.8570  -14.3530   24.9150 O.2   137  LEU137     -0.2867
     80  CB        45.1390  -12.0120   23.4900 C.3   137  LEU137      0.0270
     81  CG        44.2900  -13.0820   22.8040 C.3   137  LEU137      0.0019
     82  CD1       43.0110  -13.3510   23.5500 C.3   137  LEU137      0.0001
     83  CD2       43.9500  -12.6640   21.3860 C.3   137  LEU137      0.0001
     84  N         50.4740  -14.6780   30.7230 N.3   140  LYS140     -0.1231
     85  CA        50.6640  -15.8510   31.5650 C.3   140  LYS140      0.1693
     86  C         49.6970  -15.7540   32.7570 C.2   140  LYS140      0.2591
     87  O         49.1410  -14.6730   33.0220 O.2   140  LYS140     -0.2718
     88  CB        52.1350  -15.9470   32.0360 C.3   140  LYS140      0.0285
     89  CG        52.6700  -14.6880   32.7150 C.3   140  LYS140      0.0035
     90  CD        53.9800  -14.9360   33.4320 C.3   140  LYS140      0.0206
     91  CE        54.4640  -13.6950   34.1570 C.3   140  LYS140      0.1093
     92  NZ        55.2330  -12.7870   33.2630 N.3   140  LYS140     -0.1314
     93  N         49.4890  -16.8870   33.4590 N.am  141  ILE141     -0.1980
     94  CA        48.6430  -16.9480   34.6570 C.3   141  ILE141      0.1595
     95  C         49.2540  -15.9750   35.6780 C.2   141  ILE141      0.2287
     96  O         50.4740  -15.9410   35.8430 O.2   141  ILE141     -0.2864
     97  CB        48.5350  -18.4140   35.2000 C.3   141  ILE141      0.0276
     98  CG1       47.7970  -19.3390   34.1880 C.3   141  ILE141      0.0022
     99  CG2       47.8960  -18.4970   36.6240 C.3   141  ILE141      0.0022
    100  CD1       46.3840  -18.8850   33.6870 C.3   141  ILE141      0.0001
    101  N         37.5810   -7.0880   31.4030 N.3   182  ASP182     -0.1225
    102  CA        36.9320   -8.3720   31.0350 C.3   182  ASP182      0.1805
    103  C         37.6930   -9.5250   31.6280 C.2   182  ASP182      0.2598
    104  O         38.8390   -9.3580   32.0530 O.2   182  ASP182     -0.2718
    105  CB        37.0340   -8.5480   29.4890 C.3   182  ASP182      0.1424
    106  CG        36.1700   -9.5970   28.7810 C.2   182  ASP182      0.3668
    107  OD1       35.2650  -10.1790   29.4380 O.co2 182  ASP182     -0.2456
    108  OD2       36.3730   -9.8070   27.5580 O.co2 182  ASP182     -0.2456
    109  N         37.1130  -10.7240   31.4920 N.am  183  ALA183     -0.1966
    110  CA        37.7850  -11.9820   31.7590 C.3   183  ALA183      0.1728
    111  C         38.7110  -12.2520   30.5740 C.2   183  ALA183      0.2616
    112  O         38.5300  -11.6720   29.4910 O.2   183  ALA183     -0.2715
    113  CB        36.7580  -13.1020   31.8520 C.3   183  ALA183      0.0334
    114  N         39.7150  -13.1180   30.7700 N.am  184  CYS184     -0.1954
    115  CA        40.6050  -13.5360   29.6860 C.3   184  CYS184      0.1843
    116  C         41.0110  -15.0130   29.9080 C.2   184  CYS184      0.2625
    117  O         40.3350  -15.7030   30.6840 O.2   184  CYS184     -0.2714
    118  CB        41.8030  -12.5950   29.5220 C.3   184  CYS184      0.0997
    119  SG        42.6120  -12.6820   27.8930 S.3   184  CYS184     -0.0797
    120  N         42.0420  -15.5190   29.2030 N.am  185  LYS185     -0.1963
    121  CA        42.5080  -16.9210   29.3150 C.3   185  LYS185      0.1728
    122  C         42.9020  -17.2600   30.7560 C.2   185  LYS185      0.2616
    123  O         43.6830  -16.5250   31.3540 O.2   185  LYS185     -0.2715
    124  CB        43.7090  -17.1590   28.3800 C.3   185  LYS185      0.0311
    125  CG        43.3510  -17.2030   26.8970 C.3   185  LYS185      0.0038
    126  CD        44.6240  -17.0550   26.0270 C.3   185  LYS185      0.0206
    127  CE        44.3560  -17.1060   24.5390 C.3   185  LYS185      0.1093
    128  NZ        45.5720  -16.7090   23.7700 N.3   185  LYS185     -0.1314
    129  N         42.3830  -18.3730   31.2920 N.am  186  GLY186     -0.1955
    130  CA        42.6710  -18.7980   32.6640 C.3   186  GLY186      0.1869
    131  C         41.6100  -18.3900   33.6630 C.2   186  GLY186      0.2309
    132  O         41.6000  -18.8760   34.8020 O.2   186  GLY186     -0.2863
    133  N         38.2360  -18.6770   32.9790 N.3   188  SER188     -0.1217
    134  CA        37.0230  -19.4520   32.7150 C.3   188  SER188      0.1889
    135  C         36.7010  -20.4340   33.8460 C.2   188  SER188      0.2288
    136  O         37.6080  -20.8930   34.5650 O.2   188  SER188     -0.2866
    137  CB        37.0840  -20.1100   31.3380 C.3   188  SER188      0.2089
    138  OG        37.9590  -21.2200   31.3710 O.3   188  SER188     -0.2183
    139  N         32.2360  -17.6410   34.0490 N.3   206  THR206     -0.1203
    140  CA        33.0760  -17.1760   32.9210 C.3   206  THR206      0.1994
    141  C         33.1640  -18.2950   31.8830 C.2   206  THR206      0.2619
    142  O         33.5730  -19.4020   32.2170 O.2   206  THR206     -0.2717
    143  CB        34.4250  -16.7140   33.4440 C.3   206  THR206      0.1784
    144  OG1       34.2000  -15.7100   34.4350 O.3   206  THR206     -0.2211
    145  CG2       35.3710  -16.2330   32.3270 C.3   206  THR206      0.0376
    146  N         32.7400  -18.0060   30.6420 N.am  207  SER207     -0.1937
    147  CA        32.6380  -19.0280   29.6110 C.3   207  SER207      0.2055
    148  C         33.4560  -18.7310   28.3710 C.2   207  SER207      0.2643
    149  O         34.4350  -19.4390   28.1000 O.2   207  SER207     -0.2714
    150  CB        31.1590  -19.2680   29.2710 C.3   207  SER207      0.2130
    151  OG        30.9480  -20.3150   28.3430 O.3   207  SER207     -0.2179
    152  N         33.0770  -17.6950   27.6180 N.am  208  TRP208     -0.1959
    153  CA        33.7870  -17.3800   26.3690 C.3   208  TRP208      0.1771
    154  C         33.6300  -15.8920   25.9450 C.2   208  TRP208      0.2620
    155  O         32.8800  -15.1360   26.5580 O.2   208  TRP208     -0.2715
    156  CB        33.3320  -18.3690   25.2540 C.3   208  TRP208      0.0590
    157  CG        31.9100  -18.1860   24.8260 C.ar  208  TRP208      0.0006
    158  CD1       30.8000  -18.6850   25.4330 C.ar  208  TRP208      0.0946
    159  CD2       31.4440  -17.4100   23.7040 C.ar  208  TRP208      0.0152
    160  NE1       29.6720  -18.2910   24.7510 N.ar  208  TRP208     -0.2442
    161  CE2       30.0380  -17.5120   23.6820 C.ar  208  TRP208      0.0810
    162  CE3       32.0910  -16.6760   22.6830 C.ar  208  TRP208      0.0012
    163  CZ2       29.2560  -16.9160   22.6710 C.ar  208  TRP208      0.0191
    164  CZ3       31.3160  -16.0370   21.7200 C.ar  208  TRP208      0.0001
    165  CH2       29.9220  -16.1990   21.6910 C.ar  208  TRP208      0.0015
    166  N         34.3800  -15.4960   24.9310 N.am  209  GLY209     -0.1954
    167  CA        34.3500  -14.1520   24.3590 C.3   209  GLY209      0.1869
    168  C         35.2000  -14.1410   23.1070 C.2   209  GLY209      0.2309
    169  O         36.0030  -15.0620   22.9080 O.2   209  GLY209     -0.2863
    170  N         38.2200  -12.5780   21.7490 N.3   211  GLY211     -0.1210
    171  CA        39.3720  -11.8500   22.2920 C.3   211  GLY211      0.1956
    172  C         39.1080  -11.5350   23.7580 C.2   211  GLY211      0.2612
    173  O         38.1930  -12.1230   24.3460 O.2   211  GLY211     -0.2717
    174  N         39.8460  -10.5840   24.3500 N.am  212  CYS212     -0.1970
    175  CA        39.6220  -10.1960   25.7570 C.3   212  CYS212      0.1712
    176  C         39.4840   -8.6870   25.8530 C.2   212  CYS212      0.2296
    177  O         40.3510   -7.9940   25.3440 O.2   212  CYS212     -0.2864
    178  CB        40.7530  -10.6810   26.6550 C.3   212  CYS212      0.0983
    179  SG        41.0930  -12.4540   26.5470 S.3   212  CYS212     -0.0798
    180  N         32.0210  -10.1490   27.5170 N.3   219  GLY219     -0.1210
    181  CA        32.3100  -11.5090   27.9520 C.3   219  GLY219      0.1956
    182  C         30.9750  -12.2360   28.0170 C.2   219  GLY219      0.2612
    183  O         29.9530  -11.6200   28.3400 O.2   219  GLY219     -0.2717
    184  N         30.9560  -13.5170   27.6370 N.am  220  VAL220     -0.1965
    185  CA        29.7440  -14.3530   27.6780 C.3   220  VAL220      0.1727
    186  C         29.9140  -15.3210   28.8210 C.2   220  VAL220      0.2616
    187  O         30.9620  -15.9790   28.9460 O.2   220  VAL220     -0.2715
    188  CB        29.4190  -15.0550   26.3360 C.3   220  VAL220      0.0290
    189  CG1       28.0440  -15.7470   26.3950 C.3   220  VAL220      0.0023
    190  CG2       29.4570  -14.0490   25.1770 C.3   220  VAL220      0.0023
    191  N         28.8860  -15.3690   29.6790 N.am  221  TYR221     -0.1974
    192  CA        28.8520  -16.1630   30.8830 C.3   221  TYR221      0.1639
    193  C         27.6640  -17.1000   30.8970 C.2   221  TYR221      0.2290
    194  O         26.6080  -16.7780   30.3290 O.2   221  TYR221     -0.2864
    195  CB        28.7550  -15.2260   32.1170 C.3   221  TYR221      0.0560
    196  CG        29.9220  -14.2570   32.2570 C.ar  221  TYR221     -0.0198
    197  CD1       29.9990  -13.1030   31.4740 C.ar  221  TYR221     -0.0009
    198  CD2       30.9150  -14.4650   33.2090 C.ar  221  TYR221     -0.0009
    199  CE1       31.0710  -12.2190   31.5930 C.ar  221  TYR221      0.0417
    200  CE2       32.0010  -13.5930   33.3290 C.ar  221  TYR221      0.0417
    201  CZ        32.0670  -12.4620   32.5280 C.ar  221  TYR221      0.1957
    202  OH        33.1190  -11.5860   32.6680 O.3   221  TYR221     -0.2866
@<TRIPOS>BOND
     1    83    81    1
     2    63    62    1
     3   165   164   ar
     4   165   163   ar
     5   164   162   ar
     6   170   171    1
     7   171   172    1
     8   163   161   ar
     9    62    60   ar
    10    62    61   ar
    11   162   159   ar
    12    81    80    1
    13    81    82    1
    14   169   168    2
    15    60    58   ar
    16   168   167    1
    17    80    77    1
    18    61    59   ar
    19   161   159   ar
    20   161   160   ar
    21   159   157   ar
    22   172   173    2
    23   172   174   am
    24   128   127    1
    25    58    57   ar
    26   174   175    1
    27   167   166    1
    28   127   126    1
    29   160   158   ar
    30    59    57   ar
    31   157   156    1
    32   157   158   ar
    33    79    78    2
    34    77    78    1
    35    77    76    1
    36   166   154   am
    37    57    56    1
    38   190   188    1
    39   156   153    1
    40   177   176    2
    41   175   176    1
    42   175   178    1
    43   154   153    1
    44   154   155    2
    45   126   125    1
    46   188   189    1
    47   188   185    1
    48   153   152    1
    49    56    53    1
    50   179   178    1
    51   179   119    1
    52   125   124    1
    53   180   181    1
    54    53    54    1
    55    53    52    1
    56   108   106   ar
    57   152   148   am
    58   184   185    1
    59   184   182   am
    60   185   186    1
    61    54    55    2
    62    40    41    1
    63    40    37    1
    64   119   118    1
    65   181   182    1
    66    73    71   ar
    67    73    74   ar
    68   182   183    2
    69   149   148    2
    70   151   150    1
    71    71    69   ar
    72   148   147    1
    73   124   121    1
    74    41    43   ar
    75    41    42   ar
    76    75    74    1
    77    39    38    2
    78    37    38    1
    79    37    36    1
    80    43    45   ar
    81   106   107   ar
    82   106   105    1
    83   186   187    2
    84   186   191   am
    85    42    44   ar
    86    74    72   ar
    87   120   121    1
    88   120   116   am
    89   150   147    1
    90   121   122    1
    91    45    44   ar
    92    38    46   am
    93   105   102    1
    94   112   111    2
    95   118   115    1
    96   147   146    1
    97    69    68    1
    98    69    70   ar
    99   191   192    1
   100   115   116    1
   101   115   114    1
   102   116   117    2
   103    68    65    1
   104    72    70   ar
   105   194   193    2
   106   111   114   am
   107   111   110    1
   108   146   141   am
   109    11     9    1
   110    84    85    1
   111    46    47    1
   112   122   129   am
   113   122   123    2
   114   192   193    1
   115   192   195    1
   116   102   101    1
   117   102   103    1
   118   129   130    1
   119   137   138    1
   120   137   134    1
   121    48    47    1
   122    48    49    2
   123     9    10    1
   124     9     8    2
   125    47    50    1
   126   197   199   ar
   127   197   196   ar
   128   109   103   am
   129   109   110    1
   130    65    66    1
   131    65    64    1
   132    85    88    1
   133    85    86    1
   134   199   201   ar
   135    66    67    2
   136   103   104    2
   137   110   113    1
   138   141   142    2
   139   141   140    1
   140     8     7    1
   141    88    89    1
   142   195   196    1
   143   196   198   ar
   144   145   143    1
   145    28    27    1
   146   201   202    1
   147   201   200   ar
   148   130   131    1
   149    89    90    1
   150   134   133    1
   151   134   135    1
   152    86    87    2
   153    86    93   am
   154     7     6    1
   155   140   143    1
   156   140   139    1
   157    50    51    1
   158    51    35    1
   159   198   200   ar
   160    92    91    1
   161    35    34    1
   162    90    91    1
   163   143   144    1
   164    93    94    1
   165    25    24    2
   166   131   132    2
   167   100    98    1
   168   135   136    2
   169    27    29    1
   170    27    26    1
   171    98    97    1
   172     6     5    1
   173    24    23    1
   174    24    30   am
   175    94    97    1
   176    94    95    1
   177    23    26    1
   178    23    22    1
   179    15    14    2
   180    34    31    1
   181    97    99    1
   182     5     2    1
   183    31    30    1
   184    31    32    1
   185    95    96    2
   186    14    22   am
   187    14    13    1
   188    19    21   ar
   189    19    17   ar
   190    21    20   ar
   191     2     3    1
   192     2     1    1
   193    32    33    2
   194     3     4    2
   195     3    12   am
   196    12    13    1
   197    17    16    1
   198    17    18   ar
   199    13    16    1
   200    20    18   ar
