@<TRIPOS>MOLECULE
tmp/4x6oA00.pdb
 210 209 0 0 0
SMALL
GASTEIGER

@<TRIPOS>ATOM
      1  N         49.5140  -27.3050   37.4030 N.3    26  ARG26      -0.1231
      2  CA        49.2750  -25.9210   37.0230 C.3    26  ARG26       0.1694
      3  C         47.8260  -25.5720   37.2550 C.2    26  ARG26       0.2592
      4  O         46.9720  -26.4610   37.2500 O.2    26  ARG26      -0.2718
      5  CB        49.6420  -25.6780   35.5390 C.3    26  ARG26       0.0321
      6  CG        48.9840  -26.6570   34.5400 C.3    26  ARG26       0.0489
      7  CD        48.9180  -26.1780   33.0890 C.3    26  ARG26       0.2205
      8  NE        50.0980  -25.4110   32.6780 N.pl3  26  ARG26      -0.0865
      9  CZ        50.1800  -24.6810   31.5680 C.cat  26  ARG26       0.5346
     10  NH1       49.1570  -24.6260   30.7220 N.pl3  26  ARG26       0.1354
     11  NH2       51.2860  -24.0010   31.2940 N.pl3  26  ARG26       0.1354
     12  N         47.5460  -24.2680   37.3770 N.am   27  HIS27      -0.1962
     13  CA        46.1960  -23.7280   37.4500 C.3    27  HIS27       0.1787
     14  C         45.5070  -24.0810   36.1020 C.2    27  HIS27       0.2620
     15  O         46.1330  -23.9390   35.0350 O.2    27  HIS27      -0.2715
     16  CB        46.2750  -22.2020   37.6010 C.3    27  HIS27       0.0785
     17  CG        44.9760  -21.4930   37.3400 C.ar   27  HIS27       0.0821
     18  ND1       44.0390  -21.3070   38.3520 N.ar   27  HIS27      -0.2267
     19  CD2       44.5170  -20.9080   36.2010 C.ar   27  HIS27       0.1154
     20  CE1       43.0350  -20.6480   37.7980 C.ar   27  HIS27       0.1986
     21  NE2       43.2670  -20.3900   36.5020 N.ar   27  HIS27      -0.2212
     22  N         44.2500  -24.5510   36.1690 N.am   28  LEU28      -0.1963
     23  CA        43.4420  -24.8920   35.0020 C.3    28  LEU28       0.1728
     24  C         42.2800  -23.9050   34.7960 C.2    28  LEU28       0.2616
     25  O         42.0960  -23.3480   33.7000 O.2    28  LEU28      -0.2715
     26  CB        42.8870  -26.3330   35.1350 C.3    28  LEU28       0.0311
     27  CG        41.9610  -26.8250   34.0060 C.3    28  LEU28       0.0022
     28  CD1       42.7050  -26.8700   32.6510 C.3    28  LEU28       0.0001
     29  CD2       41.2410  -28.1560   34.3880 C.3    28  LEU28       0.0001
     30  N         41.4850  -23.7020   35.8530 N.am   29  CYS29      -0.1968
     31  CA        40.2680  -22.9010   35.7680 C.3    29  CYS29       0.1712
     32  C         39.9180  -22.3070   37.1190 C.2    29  CYS29       0.2296
     33  O         40.3990  -22.7690   38.1470 O.2    29  CYS29      -0.2864
     34  CB        39.1250  -23.7970   35.2700 C.3    29  CYS29       0.0983
     35  SG        38.9580  -23.8570   33.4620 S.3    29  CYS29      -0.0798
     36  N         33.5330  -26.5310   29.7980 N.3    44  HIS44      -0.1226
     37  CA        34.6580  -26.5300   28.8210 C.3    44  HIS44       0.1752
     38  C         36.0530  -26.7460   29.4550 C.2    44  HIS44       0.2596
     39  O         37.0070  -27.1130   28.7510 O.2    44  HIS44      -0.2718
     40  CB        34.6280  -25.2990   27.8810 C.3    44  HIS44       0.0759
     41  CG        35.0860  -24.0490   28.5700 C.ar   44  HIS44       0.0818
     42  ND1       34.1880  -23.1000   29.0090 N.ar   44  HIS44      -0.2268
     43  CD2       36.3310  -23.6790   28.9440 C.ar   44  HIS44       0.1154
     44  CE1       34.9080  -22.1580   29.5870 C.ar   44  HIS44       0.1986
     45  NE2       36.2000  -22.4760   29.6030 N.ar   44  HIS44      -0.2212
     46  N         36.1770  -26.4870   30.7630 N.am   45  CYS45      -0.1970
     47  CA        37.4350  -26.6770   31.5080 C.3    45  CYS45       0.1712
     48  C         37.9260  -28.1130   31.4520 C.2    45  CYS45       0.2296
     49  O         39.1140  -28.3540   31.6450 O.2    45  CYS45      -0.2864
     50  CB        37.2520  -26.2400   32.9630 C.3    45  CYS45       0.0983
     51  SG        37.0400  -24.4600   33.1630 S.3    45  CYS45      -0.0798
     52  N         37.7540  -30.3070   28.8930 N.3    47  TYR47      -0.1241
     53  CA        38.0980  -30.8370   27.5710 C.3    47  TYR47       0.1605
     54  C         39.3890  -31.6800   27.7090 C.2    47  TYR47       0.2264
     55  O         40.3810  -31.2090   28.2700 O.2    47  TYR47      -0.2867
     56  CB        38.2640  -29.6940   26.5510 C.3    47  TYR47       0.0534
     57  CG        38.6230  -30.2160   25.1790 C.ar   47  TYR47      -0.0201
     58  CD1       37.6380  -30.6900   24.3140 C.ar   47  TYR47      -0.0009
     59  CD2       39.9560  -30.3260   24.7790 C.ar   47  TYR47      -0.0009
     60  CE1       37.9650  -31.2520   23.0830 C.ar   47  TYR47       0.0417
     61  CE2       40.2970  -30.8680   23.5360 C.ar   47  TYR47       0.0417
     62  CZ        39.2940  -31.3270   22.6920 C.ar   47  TYR47       0.1957
     63  OH        39.5930  -31.8570   21.4630 O.3    47  TYR47      -0.2866
     64  N         44.9710  -14.1480   32.4580 N.3   134  TYR134     -0.1241
     65  CA        45.8190  -13.1960   31.7360 C.3   134  TYR134      0.1605
     66  C         45.2480  -11.7910   31.8100 C.2   134  TYR134      0.2264
     67  O         44.0310  -11.6270   31.9000 O.2   134  TYR134     -0.2867
     68  CB        45.8540  -13.5790   30.2410 C.3   134  TYR134      0.0534
     69  CG        46.6130  -14.8300   29.8360 C.ar  134  TYR134     -0.0201
     70  CD1       46.9090  -15.8300   30.7650 C.ar  134  TYR134     -0.0009
     71  CD2       46.9500  -15.0600   28.5030 C.ar  134  TYR134     -0.0009
     72  CE1       47.5460  -17.0100   30.3800 C.ar  134  TYR134      0.0417
     73  CE2       47.5790  -16.2440   28.1050 C.ar  134  TYR134      0.0417
     74  CZ        47.8660  -17.2160   29.0450 C.ar  134  TYR134      0.1957
     75  OH        48.4930  -18.3640   28.6460 O.3   134  TYR134     -0.2866
     76  N         45.5540  -10.9560   25.7970 N.3   137  LEU137     -0.1245
     77  CA        45.5850  -12.1900   25.0180 C.3   137  LEU137      0.1561
     78  C         46.8940  -12.9820   25.1200 C.2   137  LEU137      0.2260
     79  O         46.8590  -14.2030   25.2600 O.2   137  LEU137     -0.2867
     80  CB        45.2000  -11.9160   23.5480 C.3   137  LEU137      0.0270
     81  CG        44.2830  -12.9320   22.8580 C.3   137  LEU137      0.0019
     82  CD1       43.1270  -13.3700   23.7330 C.3   137  LEU137      0.0001
     83  CD2       43.7250  -12.3550   21.5640 C.3   137  LEU137      0.0001
     84  N         50.3610  -14.3540   30.9060 N.3   140  LYS140     -0.1231
     85  CA        50.5790  -15.5150   31.7420 C.3   140  LYS140      0.1693
     86  C         49.6260  -15.4370   32.9250 C.2   140  LYS140      0.2591
     87  O         49.0990  -14.3690   33.2160 O.2   140  LYS140     -0.2718
     88  CB        52.0600  -15.6050   32.1990 C.3   140  LYS140      0.0285
     89  CG        52.5430  -14.4440   33.0500 C.3   140  LYS140      0.0035
     90  CD        53.8240  -14.8010   33.7990 C.3   140  LYS140      0.0206
     91  CE        55.0750  -14.1880   33.1970 C.3   140  LYS140      0.1093
     92  NZ        55.1740  -12.7240   33.4530 N.3   140  LYS140     -0.1314
     93  N         49.4070  -16.5680   33.5980 N.am  141  ILE141     -0.1980
     94  CA        48.5610  -16.6460   34.7980 C.3   141  ILE141      0.1595
     95  C         49.1160  -15.6700   35.8420 C.2   141  ILE141      0.2287
     96  O         50.3370  -15.5590   35.9870 O.2   141  ILE141     -0.2864
     97  CB        48.4820  -18.1260   35.2980 C.3   141  ILE141      0.0276
     98  CG1       47.6060  -18.9630   34.3510 C.3   141  ILE141      0.0022
     99  CG2       48.0010  -18.2720   36.7820 C.3   141  ILE141      0.0022
    100  CD1       46.2030  -18.3620   33.9630 C.3   141  ILE141      0.0001
    101  N         37.4390   -7.0960   31.4570 N.3   182  ASP182     -0.1225
    102  CA        36.8080   -8.3770   31.0990 C.3   182  ASP182      0.1805
    103  C         37.5870   -9.5340   31.6930 C.2   182  ASP182      0.2598
    104  O         38.7040   -9.3610   32.1810 O.2   182  ASP182     -0.2718
    105  CB        36.8840   -8.5490   29.5490 C.3   182  ASP182      0.1424
    106  CG        36.0080   -9.6210   28.8970 C.2   182  ASP182      0.3668
    107  OD1       35.1030  -10.1650   29.5910 O.co2 182  ASP182     -0.2456
    108  OD2       36.1940   -9.8810   27.6770 O.co2 182  ASP182     -0.2456
    109  N         37.0410  -10.7420   31.5180 N.am  183  ALA183     -0.1966
    110  CA        37.7540  -11.9760   31.7920 C.3   183  ALA183      0.1728
    111  C         38.7150  -12.2180   30.6320 C.2   183  ALA183      0.2616
    112  O         38.5330  -11.6520   29.5410 O.2   183  ALA183     -0.2715
    113  CB        36.7640  -13.1190   31.8480 C.3   183  ALA183      0.0334
    114  N         39.7450  -13.0450   30.8690 N.am  184  CYS184     -0.1954
    115  CA        40.6910  -13.4710   29.8360 C.3   184  CYS184      0.1843
    116  C         41.1610  -14.9110   30.1450 C.2   184  CYS184      0.2625
    117  O         40.6670  -15.5290   31.0970 O.2   184  CYS184     -0.2714
    118  CB        41.8540  -12.4870   29.6710 C.3   184  CYS184      0.0997
    119  SG        42.5010  -12.3750   27.9690 S.3   184  CYS184     -0.0797
    120  N         42.0580  -15.4660   29.3290 N.am  185  LYS185     -0.1963
    121  CA        42.5770  -16.8400   29.4820 C.3   185  LYS185      0.1728
    122  C         42.9560  -17.1950   30.9080 C.2   185  LYS185      0.2617
    123  O         43.8110  -16.5290   31.4910 O.2   185  LYS185     -0.2715
    124  CB        43.7770  -17.0350   28.5570 C.3   185  LYS185      0.0311
    125  CG        43.3680  -16.9620   27.0920 C.3   185  LYS185      0.0038
    126  CD        44.6120  -16.7830   26.2010 C.3   185  LYS185      0.0206
    127  CE        44.2990  -16.9050   24.7240 C.3   185  LYS185      0.1093
    128  NZ        45.5410  -16.6980   23.9350 N.3   185  LYS185     -0.1314
    129  N         42.3220  -18.2270   31.4650 N.am  186  GLY186     -0.1940
    130  CA        42.6060  -18.6560   32.8400 C.3   186  GLY186      0.2014
    131  C         41.5670  -18.2290   33.8500 C.2   186  GLY186      0.2639
    132  O         41.5650  -18.7060   34.9950 O.2   186  GLY186     -0.2714
    133  N         40.6400  -17.3660   33.4190 N.am  187  ASP187     -0.1957
    134  CA        39.5600  -16.8990   34.2980 C.3   187  ASP187      0.1840
    135  C         38.3210  -17.7970   34.1910 C.2   187  ASP187      0.2622
    136  O         37.5010  -17.8140   35.1120 O.2   187  ASP187     -0.2715
    137  CB        39.1740  -15.4600   33.9580 C.3   187  ASP187      0.1450
    138  CG        40.2400  -14.4730   34.3590 C.2   187  ASP187      0.3671
    139  OD1       40.8180  -14.6370   35.4740 O.co2 187  ASP187     -0.2456
    140  OD2       40.4790  -13.5110   33.5850 O.co2 187  ASP187     -0.2456
    141  N         38.1920  -18.5410   33.0730 N.am  188  SER188     -0.1950
    142  CA        36.9970  -19.3620   32.8480 C.3   188  SER188      0.1924
    143  C         36.6250  -20.3290   33.9690 C.2   188  SER188      0.2314
    144  O         37.4880  -20.8530   34.6860 O.2   188  SER188     -0.2863
    145  CB        36.9870  -20.0040   31.4640 C.3   188  SER188      0.2116
    146  OG        37.9270  -21.0610   31.4410 O.3   188  SER188     -0.2180
    147  N         32.1340  -17.5420   34.1390 N.3   206  THR206     -0.1203
    148  CA        32.9830  -17.0800   33.0190 C.3   206  THR206      0.1994
    149  C         33.0670  -18.1700   31.9630 C.2   206  THR206      0.2619
    150  O         33.5060  -19.2750   32.2580 O.2   206  THR206     -0.2717
    151  CB        34.3490  -16.6380   33.5370 C.3   206  THR206      0.1784
    152  OG1       34.1450  -15.6620   34.5670 O.3   206  THR206     -0.2211
    153  CG2       35.2740  -16.1210   32.4150 C.3   206  THR206      0.0376
    154  N         32.5970  -17.8660   30.7450 N.am  207  SER207     -0.1937
    155  CA        32.4780  -18.8840   29.7080 C.3   207  SER207      0.2055
    156  C         33.2740  -18.5910   28.4530 C.2   207  SER207      0.2643
    157  O         34.2790  -19.2620   28.2030 O.2   207  SER207     -0.2714
    158  CB        30.9990  -19.1460   29.4050 C.3   207  SER207      0.2130
    159  OG        30.8060  -20.1970   28.4750 O.3   207  SER207     -0.2179
    160  N         32.8540  -17.5870   27.6770 N.am  208  TRP208     -0.1959
    161  CA        33.5530  -17.2910   26.4150 C.3   208  TRP208      0.1771
    162  C         33.4230  -15.8140   25.9780 C.2   208  TRP208      0.2620
    163  O         32.6340  -15.0580   26.5390 O.2   208  TRP208     -0.2715
    164  CB        33.1030  -18.2940   25.3110 C.3   208  TRP208      0.0590
    165  CG        31.6820  -18.1120   24.8690 C.ar  208  TRP208      0.0006
    166  CD1       30.5650  -18.6060   25.4720 C.ar  208  TRP208      0.0946
    167  CD2       31.2230  -17.3400   23.7380 C.ar  208  TRP208      0.0152
    168  NE1       29.4390  -18.1710   24.8100 N.ar  208  TRP208     -0.2442
    169  CE2       29.8160  -17.4310   23.7160 C.ar  208  TRP208      0.0810
    170  CE3       31.8760  -16.5700   22.7460 C.ar  208  TRP208      0.0012
    171  CZ2       29.0380  -16.8010   22.7280 C.ar  208  TRP208      0.0191
    172  CZ3       31.1060  -15.9240   21.7840 C.ar  208  TRP208      0.0001
    173  CH2       29.7070  -16.0640   21.7630 C.ar  208  TRP208      0.0015
    174  N         34.2270  -15.4180   25.0130 N.am  209  GLY209     -0.1954
    175  CA        34.2030  -14.0800   24.4130 C.3   209  GLY209      0.1869
    176  C         35.0580  -14.0720   23.1570 C.2   209  GLY209      0.2309
    177  O         35.8870  -14.9770   22.9770 O.2   209  GLY209     -0.2863
    178  N         38.0480  -12.6390   21.8120 N.3   211  GLY211     -0.1210
    179  CA        39.2280  -11.9610   22.3600 C.3   211  GLY211      0.1956
    180  C         38.9640  -11.5800   23.8150 C.2   211  GLY211      0.2612
    181  O         38.0450  -12.1340   24.4390 O.2   211  GLY211     -0.2717
    182  N         39.7190  -10.6140   24.3670 N.am  212  CYS212     -0.1970
    183  CA        39.5340  -10.1730   25.7640 C.3   212  CYS212      0.1712
    184  C         39.3660   -8.6770   25.8640 C.2   212  CYS212      0.2296
    185  O         40.2200   -7.9670   25.3410 O.2   212  CYS212     -0.2864
    186  CB        40.6910  -10.6300   26.6430 C.3   212  CYS212      0.0983
    187  SG        41.0170  -12.4020   26.5890 S.3   212  CYS212     -0.0798
    188  N         31.8700  -10.0980   27.5250 N.3   219  GLY219     -0.1210
    189  CA        32.1890  -11.4380   27.9730 C.3   219  GLY219      0.1956
    190  C         30.8620  -12.1750   28.0820 C.2   219  GLY219      0.2612
    191  O         29.8510  -11.5610   28.4170 O.2   219  GLY219     -0.2717
    192  N         30.8310  -13.4630   27.7210 N.am  220  VAL220     -0.1965
    193  CA        29.6050  -14.2900   27.7680 C.3   220  VAL220      0.1727
    194  C         29.7600  -15.2650   28.9100 C.2   220  VAL220      0.2616
    195  O         30.7840  -15.9570   29.0140 O.2   220  VAL220     -0.2715
    196  CB        29.2760  -14.9800   26.4170 C.3   220  VAL220      0.0290
    197  CG1       27.8810  -15.6140   26.4510 C.3   220  VAL220      0.0023
    198  CG2       29.3880  -13.9830   25.2420 C.3   220  VAL220      0.0023
    199  N         28.7390  -15.2840   29.7890 N.am  221  TYR221     -0.1974
    200  CA        28.7020  -16.0720   31.0000 C.3   221  TYR221      0.1639
    201  C         27.5260  -17.0270   31.0160 C.2   221  TYR221      0.2290
    202  O         26.4790  -16.7120   30.4680 O.2   221  TYR221     -0.2864
    203  CB        28.5830  -15.1160   32.2220 C.3   221  TYR221      0.0560
    204  CG        29.7600  -14.1610   32.3640 C.ar  221  TYR221     -0.0198
    205  CD1       29.8680  -13.0240   31.5600 C.ar  221  TYR221     -0.0009
    206  CD2       30.7600  -14.3910   33.3080 C.ar  221  TYR221     -0.0009
    207  CE1       30.9680  -12.1740   31.6590 C.ar  221  TYR221      0.0417
    208  CE2       31.8530  -13.5380   33.4300 C.ar  221  TYR221      0.0417
    209  CZ        31.9570  -12.4320   32.5970 C.ar  221  TYR221      0.1957
    210  OH        33.0300  -11.5830   32.7380 O.3   221  TYR221     -0.2866
@<TRIPOS>BOND
     1    63    62    1
     2    83    81    1
     3   173   172   ar
     4   173   171   ar
     5   172   170   ar
     6   178   179    1
     7   179   180    1
     8    62    60   ar
     9    62    61   ar
    10   171   169   ar
    11   170   167   ar
    12    81    80    1
    13    81    82    1
    14   177   176    2
    15    60    58   ar
    16   176   175    1
    17    61    59   ar
    18    80    77    1
    19   169   167   ar
    20   169   168   ar
    21   167   165   ar
    22   180   182   am
    23   180   181    2
    24   128   127    1
    25    58    57   ar
    26   182   183    1
    27   175   174    1
    28   127   126    1
    29    59    57   ar
    30   168   166   ar
    31   165   164    1
    32   165   166   ar
    33   174   162   am
    34    77    78    1
    35    77    76    1
    36    78    79    2
    37    57    56    1
    38   198   196    1
    39   164   161    1
    40   185   184    2
    41   183   184    1
    42   183   186    1
    43   162   161    1
    44   162   163    2
    45   126   125    1
    46   161   160    1
    47   196   197    1
    48   196   193    1
    49    56    53    1
    50   187   186    1
    51   187   119    1
    52   125   124    1
    53   188   189    1
    54    53    54    1
    55    53    52    1
    56   160   156   am
    57   108   106   ar
    58    54    55    2
    59   192   193    1
    60   192   190   am
    61   193   194    1
    62    40    41    1
    63    40    37    1
    64   119   118    1
    65   189   190    1
    66   190   191    2
    67    73    71   ar
    68    73    74   ar
    69   157   156    2
    70   156   155    1
    71   159   158    1
    72    71    69   ar
    73   124   121    1
    74    41    43   ar
    75    41    42   ar
    76    75    74    1
    77    39    38    2
    78    37    38    1
    79    37    36    1
    80   106   105    1
    81   106   107   ar
    82   194   195    2
    83   194   199   am
    84    43    45   ar
    85    42    44   ar
    86    74    72   ar
    87   120   121    1
    88   120   116   am
    89   158   155    1
    90    38    46   am
    91   121   122    1
    92   112   111    2
    93   105   102    1
    94    44    45   ar
    95   118   115    1
    96   155   154    1
    97   199   200    1
    98   115   116    1
    99   115   114    1
   100    69    68    1
   101    69    70   ar
   102   116   117    2
   103    68    65    1
   104    72    70   ar
   105   202   201    2
   106   111   114   am
   107   111   110    1
   108    10     9    1
   109   154   149   am
   110    46    47    1
   111    84    85    1
   112   122   129   am
   113   122   123    2
   114   200   201    1
   115   200   203    1
   116   102   101    1
   117   102   103    1
   118    11     9    1
   119   146   145    1
   120    48    47    1
   121    48    49    2
   122   145   142    1
   123   129   130    1
   124    47    50    1
   125   109   103   am
   126   109   110    1
   127   205   207   ar
   128   205   204   ar
   129     9     8    2
   130   207   209   ar
   131   103   104    2
   132    65    66    1
   133    65    64    1
   134    85    88    1
   135    85    86    1
   136   110   113    1
   137    66    67    2
   138   149   150    2
   139   149   148    1
   140    88    89    1
   141   203   204    1
   142   204   206   ar
   143   153   151    1
   144   209   210    1
   145   209   208   ar
   146    28    27    1
   147     8     7    1
   148   130   131    1
   149   142   141    1
   150   142   143    1
   151    86    87    2
   152    86    93   am
   153    50    51    1
   154   148   151    1
   155   148   147    1
   156    89    90    1
   157   141   135   am
   158     7     6    1
   159    51    35    1
   160    91    92    1
   161    91    90    1
   162   206   208   ar
   163   133   131   am
   164   133   134    1
   165    35    34    1
   166   151   152    1
   167   140   138   ar
   168    93    94    1
   169    25    24    2
   170   131   132    2
   171   137   134    1
   172   137   138    1
   173   100    98    1
   174   143   144    2
   175    27    29    1
   176    27    26    1
   177   135   134    1
   178   135   136    2
   179    98    97    1
   180   138   139   ar
   181     6     5    1
   182    24    23    1
   183    24    30   am
   184    94    97    1
   185    94    95    1
   186    23    26    1
   187    23    22    1
   188    15    14    2
   189    34    31    1
   190    97    99    1
   191     5     2    1
   192    31    30    1
   193    31    32    1
   194    95    96    2
   195    14    22   am
   196    14    13    1
   197    19    21   ar
   198    19    17   ar
   199    21    20   ar
   200     2     3    1
   201     2     1    1
   202    32    33    2
   203     4     3    2
   204     3    12   am
   205    17    16    1
   206    17    18   ar
   207    12    13    1
   208    13    16    1
   209    20    18   ar
