@<TRIPOS>MOLECULE
tmp/4x6pA01.pdb
 206 204 0 0 0
SMALL
GASTEIGER

@<TRIPOS>ATOM
      1  N         -0.0580   16.7850  -32.2480 N.3    26  ARG26      -0.1231
      2  CA         1.1060   16.0860  -32.7980 C.3    26  ARG26       0.1694
      3  C          2.3800   16.7540  -32.3290 C.2    26  ARG26       0.2592
      4  O          2.4170   17.9780  -32.2070 O.2    26  ARG26      -0.2718
      5  CB         1.1330   16.1690  -34.3410 C.3    26  ARG26       0.0321
      6  CG        -0.0850   15.6110  -35.0540 C.3    26  ARG26       0.0489
      7  CD         0.0380   15.7760  -36.5610 C.3    26  ARG26       0.2205
      8  NE        -1.0480   15.1550  -37.3160 N.pl3  26  ARG26      -0.0865
      9  CZ        -1.2260   13.8480  -37.5130 C.cat  26  ARG26       0.5346
     10  NH1       -0.3430   12.9700  -37.0440 N.pl3  26  ARG26       0.1354
     11  NH2       -2.2780   13.4120  -38.1980 N.pl3  26  ARG26       0.1354
     12  N          3.4550   15.9620  -32.2440 N.am   27  HIS27      -0.1962
     13  CA         4.8030   16.4680  -31.9890 C.3    27  HIS27       0.1787
     14  C          5.1770   17.3510  -33.1950 C.2    27  HIS27       0.2620
     15  O          4.9270   17.0000  -34.3500 O.2    27  HIS27      -0.2715
     16  CB         5.7720   15.2720  -31.8980 C.3    27  HIS27       0.0785
     17  CG         7.2230   15.6440  -31.9900 C.ar   27  HIS27       0.0821
     18  ND1        7.9380   16.0100  -30.8720 N.ar   27  HIS27      -0.2267
     19  CD2        8.0470   15.6690  -33.0710 C.ar   27  HIS27       0.1154
     20  CE1        9.1640   16.2700  -31.2920 C.ar   27  HIS27       0.1986
     21  NE2        9.2860   16.0640  -32.6090 N.ar   27  HIS27      -0.2212
     22  N          5.7670   18.5060  -32.9070 N.am   28  LEU28      -0.1963
     23  CA         6.2140   19.4360  -33.9090 C.3    28  LEU28       0.1728
     24  C          7.7460   19.5380  -33.8960 C.2    28  LEU28       0.2616
     25  O          8.3870   19.4340  -34.9470 O.2    28  LEU28      -0.2715
     26  CB         5.6030   20.8200  -33.5880 C.3    28  LEU28       0.0311
     27  CG         6.1390   22.0220  -34.4050 C.3    28  LEU28       0.0022
     28  CD1        5.8260   21.8720  -35.8950 C.3    28  LEU28       0.0001
     29  CD2        5.5990   23.3420  -33.8660 C.3    28  LEU28       0.0001
     30  N          8.3320   19.7480  -32.6840 N.am   29  CYS29      -0.1968
     31  CA         9.7660   20.0150  -32.5360 C.3    29  CYS29       0.1712
     32  C         10.2620   19.6180  -31.1660 C.2    29  CYS29       0.2296
     33  O          9.4820   19.4680  -30.2120 O.2    29  CYS29      -0.2864
     34  CB        10.0360   21.5070  -32.7760 C.3    29  CYS29       0.0983
     35  SG        10.2410   21.9710  -34.5130 S.3    29  CYS29      -0.0798
     36  N         12.7430   28.0760  -36.9420 N.3    44  HIS44      -0.1226
     37  CA        12.0420   27.4540  -38.0820 C.3    44  HIS44       0.1752
     38  C         10.8360   26.6100  -37.6920 C.2    44  HIS44       0.2596
     39  O          9.9810   26.3670  -38.5450 O.2    44  HIS44      -0.2718
     40  CB        12.9920   26.6520  -39.0020 C.3    44  HIS44       0.0759
     41  CG        13.4050   25.3230  -38.4670 C.ar   44  HIS44       0.0818
     42  ND1       14.7210   25.0640  -38.1420 N.ar   44  HIS44      -0.2268
     43  CD2       12.6640   24.2150  -38.2260 C.ar   44  HIS44       0.1154
     44  CE1       14.7470   23.8090  -37.7350 C.ar   44  HIS44       0.1986
     45  NE2       13.5280   23.2640  -37.7540 N.ar   44  HIS44      -0.2212
     46  N         10.7440   26.1790  -36.4140 N.am   45  CYS45      -0.1970
     47  CA         9.6070   25.3950  -35.9120 C.3    45  CYS45       0.1712
     48  C          8.2860   26.1420  -36.0120 C.2    45  CYS45       0.2296
     49  O          7.2370   25.5100  -36.0440 O.2    45  CYS45      -0.2864
     50  CB         9.8780   24.9410  -34.4800 C.3    45  CYS45       0.0983
     51  SG        11.2220   23.7350  -34.3700 S.3    45  CYS45      -0.0798
     52  N          7.2030   28.1090  -38.5090 N.3    47  TYR47      -0.1227
     53  CA         6.8720   28.4540  -39.8960 C.3    47  TYR47       0.1736
     54  C          5.3480   28.3880  -40.1720 C.2    47  TYR47       0.2596
     55  O          4.8010   29.2950  -40.7970 O.2    47  TYR47      -0.2718
     56  CB         7.6460   27.5520  -40.8570 C.3    47  TYR47       0.0548
     57  CG         7.4510   27.8740  -42.3240 C.ar   47  TYR47      -0.0200
     58  CD1        7.9360   29.0600  -42.8660 C.ar   47  TYR47      -0.0009
     59  CD2        6.8600   26.9550  -43.1880 C.ar   47  TYR47      -0.0009
     60  CE1        7.8030   29.3410  -44.2230 C.ar   47  TYR47       0.0417
     61  CE2        6.7170   27.2290  -44.5480 C.ar   47  TYR47       0.0417
     62  CZ         7.1860   28.4250  -45.0600 C.ar   47  TYR47       0.1957
     63  OH         7.0370   28.6960  -46.4000 O.3    47  TYR47      -0.2866
     64  N          4.6880   27.3550  -39.6580 N.am   48  GLY48      -0.1957
     65  CA         3.2390   27.2080  -39.7770 C.3    48  GLY48       0.1869
     66  C          2.4910   27.5610  -38.4960 C.2    48  GLY48       0.2309
     67  O          1.4290   26.9860  -38.2200 O.2    48  GLY48      -0.2863
     68  N         12.8760   11.0600  -37.1780 N.3   134  TYR134     -0.1241
     69  CA        12.9830    9.8960  -38.0900 C.3   134  TYR134      0.1605
     70  C         14.3270    9.1750  -37.9100 C.2   134  TYR134      0.2264
     71  O         15.3300    9.8240  -37.5940 O.2   134  TYR134     -0.2867
     72  CB        12.8750   10.3770  -39.5690 C.3   134  TYR134      0.0534
     73  CG        11.5210   10.9100  -40.0310 C.ar  134  TYR134     -0.0201
     74  CD1       10.5220   11.2470  -39.1130 C.ar  134  TYR134     -0.0009
     75  CD2       11.2550   11.1100  -41.3850 C.ar  134  TYR134     -0.0009
     76  CE1        9.2900   11.7510  -39.5350 C.ar  134  TYR134      0.0417
     77  CE2       10.0320   11.6240  -41.8150 C.ar  134  TYR134      0.0417
     78  CZ         9.0470   11.9210  -40.8880 C.ar  134  TYR134      0.1957
     79  OH         7.8360   12.4020  -41.3180 O.3   134  TYR134     -0.2866
     80  N         15.3580    8.9890  -43.8330 N.3   137  LEU137     -0.1245
     81  CA        14.6110   10.0820  -44.4900 C.3   137  LEU137      0.1561
     82  C         13.1130    9.8350  -44.6930 C.2   137  LEU137      0.2260
     83  O         12.3250   10.7570  -44.4800 O.2   137  LEU137     -0.2867
     84  CB        15.2320   10.5570  -45.8010 C.3   137  LEU137      0.0270
     85  CG        16.1100   11.8340  -45.6670 C.3   137  LEU137      0.0019
     86  CD1       16.9620   12.0260  -46.8700 C.3   137  LEU137      0.0001
     87  CD2       15.2760   13.0740  -45.3540 C.3   137  LEU137      0.0001
     88  N          8.7760    7.9040  -39.8570 N.3   140  LYS140     -0.1231
     89  CA         7.7930    8.5440  -39.0090 C.3   140  LYS140      0.1693
     90  C          8.4810    8.8650  -37.6840 C.2   140  LYS140      0.2591
     91  O          9.5840    8.3640  -37.4050 O.2   140  LYS140     -0.2718
     92  CB         6.5600    7.6340  -38.8040 C.3   140  LYS140      0.0285
     93  CG         6.8450    6.2540  -38.2400 C.3   140  LYS140      0.0035
     94  CD         5.5580    5.4540  -38.1090 C.3   140  LYS140      0.0206
     95  CE         5.7810    4.1180  -37.4410 C.3   140  LYS140      0.1093
     96  NZ         4.5120    3.3530  -37.2950 N.3   140  LYS140     -0.1314
     97  N          7.8450    9.7140  -36.8910 N.am  141  ILE141     -0.1980
     98  CA         8.3090   10.0860  -35.5540 C.3   141  ILE141      0.1595
     99  C          8.4690    8.8260  -34.7080 C.2   141  ILE141      0.2287
    100  O          7.6030    7.9480  -34.7160 O.2   141  ILE141     -0.2864
    101  CB         7.2960   11.1050  -34.9430 C.3   141  ILE141      0.0276
    102  CG1        7.3380   12.4410  -35.7200 C.3   141  ILE141      0.0022
    103  CG2        7.4580   11.3230  -33.4070 C.3   141  ILE141      0.0022
    104  CD1        8.7160   13.1830  -35.8090 C.3   141  ILE141      0.0001
    105  N         23.1480   10.9510  -37.0200 N.3   182  ASP182     -0.1225
    106  CA        22.7560   12.3500  -37.2500 C.3   182  ASP182      0.1805
    107  C         21.3460   12.5600  -36.7110 C.2   182  ASP182      0.2598
    108  O         20.6140   11.5950  -36.4460 O.2   182  ASP182     -0.2718
    109  CB        22.7350   12.6370  -38.7870 C.3   182  ASP182      0.1424
    110  CG        22.7150   14.0910  -39.2810 C.2   182  ASP182      0.3668
    111  OD1       22.7570   15.0020  -38.4450 O.co2 182  ASP182     -0.2456
    112  OD2       22.5890   14.3050  -40.5110 O.co2 182  ASP182     -0.2456
    113  N         20.9620   13.8310  -36.5870 N.am  183  ALA183     -0.1966
    114  CA        19.5910   14.2060  -36.3070 C.3   183  ALA183      0.1728
    115  C         18.8580   14.0150  -37.6700 C.2   183  ALA183      0.2616
    116  O         19.4950   13.9470  -38.7390 O.2   183  ALA183     -0.2715
    117  CB        19.5480   15.6880  -35.9200 C.3   183  ALA183      0.0334
    118  N         17.5350   13.9080  -37.6360 N.am  184  CYS184     -0.1954
    119  CA        16.7510   13.8370  -38.8740 C.3   184  CYS184      0.1843
    120  C         15.3870   14.4900  -38.6090 C.2   184  CYS184      0.2625
    121  O         15.2150   15.1000  -37.5560 O.2   184  CYS184     -0.2714
    122  CB        16.6370   12.4150  -39.4350 C.3   184  CYS184      0.0997
    123  SG        16.2460   12.3480  -41.2140 S.3   184  CYS184     -0.0797
    124  N         14.4620   14.4580  -39.5820 N.am  185  LYS185     -0.1963
    125  CA        13.1360   15.1020  -39.5040 C.3   185  LYS185      0.1728
    126  C         12.4290   14.8340  -38.1620 C.2   185  LYS185      0.2616
    127  O         12.2720   13.6910  -37.7980 O.2   185  LYS185     -0.2715
    128  CB        12.2690   14.6320  -40.6900 C.3   185  LYS185      0.0311
    129  CG        12.8520   15.0950  -42.0500 C.3   185  LYS185      0.0038
    130  CD        11.8040   14.9220  -43.1400 C.3   185  LYS185      0.0206
    131  CE        12.3330   15.3580  -44.4880 C.3   185  LYS185      0.1093
    132  NZ        11.3500   15.0330  -45.5560 N.3   185  LYS185     -0.1314
    133  N         12.0230   15.8810  -37.4500 N.am  186  GLY186     -0.1955
    134  CA        11.3700   15.7500  -36.1370 C.3   186  GLY186      0.1869
    135  C         12.2830   16.0130  -34.9520 C.2   186  GLY186      0.2309
    136  O         11.8120   16.1410  -33.8220 O.2   186  GLY186     -0.2863
    137  N         14.5700   18.6520  -34.9740 N.3   188  SER188     -0.1217
    138  CA        14.9020   20.0820  -34.9050 C.3   188  SER188      0.1889
    139  C         14.3580   20.7970  -33.6680 C.2   188  SER188      0.2288
    140  O         13.3270   20.3980  -33.1210 O.2   188  SER188     -0.2866
    141  CB        14.5070   20.8140  -36.1740 C.3   188  SER188      0.2089
    142  OG        13.1050   20.9640  -36.2810 O.3   188  SER188     -0.2183
    143  N         19.5170   21.7490  -32.8170 N.3   206  THR206     -0.1203
    144  CA        19.3210   20.9940  -34.0620 C.3   206  THR206      0.1994
    145  C         18.6320   21.8730  -35.0840 C.2   206  THR206      0.2619
    146  O         17.5210   22.3470  -34.8380 O.2   206  THR206     -0.2717
    147  CB        18.5700   19.7020  -33.7670 C.3   206  THR206      0.1784
    148  OG1       19.3100   19.0220  -32.7490 O.3   206  THR206     -0.2211
    149  CG2       18.4210   18.8250  -35.0120 C.3   206  THR206      0.0376
    150  N         19.2920   22.1020  -36.2290 N.am  207  SER207     -0.1937
    151  CA        18.7510   23.0660  -37.1700 C.3   207  SER207      0.2055
    152  C         18.4750   22.5080  -38.5890 C.2   207  SER207      0.2643
    153  O         17.2950   22.4060  -38.9830 O.2   207  SER207     -0.2714
    154  CB        19.6500   24.3030  -37.1960 C.3   207  SER207      0.2130
    155  OG        19.2120   25.2900  -38.1140 O.3   207  SER207     -0.2179
    156  N         19.5290   22.1100  -39.3340 N.am  208  TRP208     -0.1959
    157  CA        19.3390   21.5970  -40.7100 C.3   208  TRP208      0.1771
    158  C         20.5220   20.7600  -41.1810 C.2   208  TRP208      0.2620
    159  O         21.5780   20.7610  -40.5510 O.2   208  TRP208     -0.2715
    160  CB        19.1180   22.7940  -41.6840 C.3   208  TRP208      0.0590
    161  CG        20.3130   23.7180  -41.7940 C.ar  208  TRP208      0.0006
    162  CD1       20.6600   24.7240  -40.9350 C.ar  208  TRP208      0.0946
    163  CD2       21.3020   23.7230  -42.8410 C.ar  208  TRP208      0.0152
    164  NE1       21.8120   25.3500  -41.3730 N.ar  208  TRP208     -0.2442
    165  CE2       22.2000   24.7830  -42.5670 C.ar  208  TRP208      0.0810
    166  CE3       21.4850   22.9650  -44.0180 C.ar  208  TRP208      0.0012
    167  CZ2       23.3000   25.0650  -43.3910 C.ar  208  TRP208      0.0191
    168  CZ3       22.5870   23.2390  -44.8240 C.ar  208  TRP208      0.0001
    169  CH2       23.4740   24.2790  -44.5130 C.ar  208  TRP208      0.0015
    170  N         20.3540   20.1000  -42.3200 N.am  209  GLY209     -0.1954
    171  CA        21.4190   19.3100  -42.9470 C.3   209  GLY209      0.1869
    172  C         21.0550   18.9320  -44.3680 C.2   209  GLY209      0.2309
    173  O         19.8910   19.0690  -44.7580 O.2   209  GLY209     -0.2863
    174  N         20.2300   16.1460  -46.4310 N.3   211  GLY211     -0.1210
    175  CA        19.8030   14.7730  -46.1560 C.3   211  GLY211      0.1956
    176  C         20.0800   14.4480  -44.6910 C.2   211  GLY211      0.2612
    177  O         20.3450   15.3690  -43.9030 O.2   211  GLY211     -0.2717
    178  N         20.0400   13.1630  -44.3000 N.am  212  CYS212     -0.1970
    179  CA        20.3420   12.7630  -42.9150 C.3   212  CYS212      0.1712
    180  C         21.4470   11.7500  -42.8810 C.2   212  CYS212      0.2296
    181  O         21.3710   10.7700  -43.6160 O.2   212  CYS212     -0.2864
    182  CB        19.1070   12.2160  -42.2070 C.3   212  CYS212      0.0983
    183  SG        17.7090   13.3470  -42.2060 S.3   212  CYS212     -0.0798
    184  N         25.4940   17.4210  -39.6690 N.3   219  GLY219     -0.1210
    185  CA        24.3320   18.1850  -39.2400 C.3   219  GLY219      0.1956
    186  C         24.7710   19.5780  -38.8430 C.2   219  GLY219      0.2612
    187  O         25.9160   19.7660  -38.4210 O.2   219  GLY219     -0.2717
    188  N         23.9070   20.5770  -39.0820 N.am  220  VAL220     -0.1965
    189  CA        24.2000   21.9790  -38.7910 C.3   220  VAL220      0.1727
    190  C         23.3160   22.4260  -37.6370 C.2   220  VAL220      0.2616
    191  O         22.1120   22.1870  -37.6400 O.2   220  VAL220     -0.2715
    192  CB        24.0980   22.9110  -40.0240 C.3   220  VAL220      0.0290
    193  CG1       24.5760   24.3240  -39.6690 C.3   220  VAL220      0.0023
    194  CG2       24.9060   22.3490  -41.2080 C.3   220  VAL220      0.0023
    195  N         23.9420   23.0270  -36.6190 N.am  221  TYR221     -0.1974
    196  CA        23.2810   23.4150  -35.3810 C.3   221  TYR221      0.1639
    197  C         23.5290   24.8870  -35.1220 C.2   221  TYR221      0.2290
    198  O         24.5920   25.4050  -35.4850 O.2   221  TYR221     -0.2864
    199  CB        23.8730   22.5880  -34.2080 C.3   221  TYR221      0.0560
    200  CG        23.6840   21.0860  -34.3450 C.ar  221  TYR221     -0.0198
    201  CD1       24.4500   20.3370  -35.2470 C.ar  221  TYR221     -0.0009
    202  CD2       22.7410   20.4160  -33.5800 C.ar  221  TYR221     -0.0009
    203  CE1       24.2490   18.9610  -35.3950 C.ar  221  TYR221      0.0417
    204  CE2       22.5310   19.0510  -33.7210 C.ar  221  TYR221      0.0417
    205  CZ        23.2870   18.3260  -34.6190 C.ar  221  TYR221      0.1957
    206  OH        23.0300   16.9880  -34.7120 O.3   221  TYR221     -0.2866
@<TRIPOS>BOND
     1    86    85    1
     2   174   175    1
     3    63    62    1
     4   175   176    1
     5    84    85    1
     6    84    81    1
     7    85    87    1
     8   132   131    1
     9    62    61   ar
    10    62    60   ar
    11   168   169   ar
    12   168   166   ar
    13   173   172    2
    14    82    81    1
    15    82    83    2
    16   176   178   am
    17   176   177    2
    18    61    59   ar
    19   169   167   ar
    20    81    80    1
    21   131   130    1
    22   172   171    1
    23   178   179    1
    24    60    58   ar
    25   166   163   ar
    26   181   180    2
    27   167   165   ar
    28    59    57   ar
    29   130   129    1
    30   171   170    1
    31   179   180    1
    32   179   182    1
    33    58    57   ar
    34   163   165   ar
    35   163   161   ar
    36   165   164   ar
    37    57    56    1
    38   170   158   am
    39   182   183    1
    40   183   123    1
    41   129   128    1
    42    77    75   ar
    43    77    78   ar
    44   161   160    1
    45   161   162   ar
    46   160   157    1
    47    75    73   ar
    48   164   162   ar
    49    79    78    1
    50   123   122    1
    51   194   192    1
    52   158   157    1
    53   158   159    2
    54    78    76   ar
    55    56    53    1
    56    55    54    2
    57   157   156    1
    58   128   125    1
    59   112   110   ar
    60    54    53    1
    61    54    64   am
    62    73    72    1
    63    73    74   ar
    64   192   193    1
    65   192   189    1
    66    53    52    1
    67    88    89    1
    68    65    64    1
    69    65    66    1
    70   184   185    1
    71   124   125    1
    72   124   120   am
    73    72    69    1
    74    76    74   ar
    75   125   126    1
    76   122   119    1
    77   156   152   am
    78   110   109    1
    79   110   111   ar
    80   185   186    1
    81   188   186   am
    82   188   189    1
    83    89    92    1
    84    89    90    1
    85    40    41    1
    86    40    37    1
    87   153   152    2
    88   119   120    1
    89   119   118    1
    90   186   187    2
    91    92    93    1
    92   189   190    1
    93   109   106    1
    94   116   115    2
    95   120   121    2
    96   152   151    1
    97    39    38    2
    98    66    67    2
    99    41    43   ar
   100    41    42   ar
   101    93    94    1
   102    43    45   ar
   103    11     9    1
   104   126   127    2
   105   126   133   am
   106    42    44   ar
   107   155   154    1
   108    94    95    1
   109    69    70    1
   110    69    68    1
   111    37    38    1
   112    37    36    1
   113    70    71    2
   114    45    44   ar
   115    38    46   am
   116    90    91    2
   117    90    97   am
   118   115   118   am
   119   115   114    1
   120   191   190    2
   121   190   195   am
   122     9     8    2
   123     9    10    1
   124   133   134    1
   125    95    96    1
   126     8     7    1
   127   106   105    1
   128   106   107    1
   129   154   151    1
   130   151   150    1
   131    97    98    1
   132   107   113   am
   133   107   108    2
   134   195   196    1
   135   113   114    1
   136     7     6    1
   137    46    47    1
   138   114   117    1
   139   142   141    1
   140   150   145   am
   141   141   138    1
   142   134   135    1
   143    49    48    2
   144    48    47    1
   145    47    50    1
   146    28    27    1
   147   104   102    1
   148   102   101    1
   149    98   101    1
   150    98    99    1
   151   198   197    2
   152   203   201   ar
   153   203   205   ar
   154   196   197    1
   155   196   199    1
   156   201   200   ar
   157   145   146    2
   158   145   144    1
   159     6     5    1
   160   149   147    1
   161   137   138    1
   162   135   136    2
   163    25    24    2
   164   101   103    1
   165   138   139    1
   166   100    99    2
   167   206   205    1
   168   205   204   ar
   169    35    51    1
   170    35    34    1
   171    50    51    1
   172    27    29    1
   173    27    26    1
   174    15    14    2
   175   200   199    1
   176   200   202   ar
   177     5     2    1
   178   144   147    1
   179   144   143    1
   180    23    24    1
   181    23    26    1
   182    23    22    1
   183    24    30   am
   184   147   148    1
   185   204   202   ar
   186   139   140    2
   187    14    22   am
   188    14    13    1
   189    19    21   ar
   190    19    17   ar
   191     2     3    1
   192     2     1    1
   193    34    31    1
   194    30    31    1
   195    21    20   ar
   196    31    32    1
   197     3    12   am
   198     3     4    2
   199    12    13    1
   200    17    16    1
   201    17    18   ar
   202    13    16    1
   203    20    18   ar
   204    32    33    2
