@<TRIPOS>MOLECULE
tmp/4x6tA00.pdb
 138 131 0 0 0
SMALL
GASTEIGER

@<TRIPOS>ATOM
      1  N        -17.0550  -10.2920    5.4150 N.3    42  SER42      -0.1217
      2  CA       -16.4880   -9.9090    6.6980 C.3    42  SER42       0.1889
      3  C        -16.7760   -8.4940    7.1570 C.2    42  SER42       0.2288
      4  O        -16.2960   -8.1000    8.2290 O.2    42  SER42      -0.2866
      5  CB       -14.9900  -10.1060    6.6850 C.3    42  SER42       0.2089
      6  OG       -14.6690  -11.4720    6.5830 O.3    42  SER42      -0.2183
      7  N        -18.0370   -7.9150   10.7680 N.3    45  LYS45      -0.1245
      8  CA       -17.1630   -7.9650   11.9340 C.3    45  LYS45       0.1561
      9  C        -17.0630   -6.6120   12.6370 C.2    45  LYS45       0.2260
     10  O        -16.8400   -6.5690   13.8460 O.2    45  LYS45      -0.2867
     11  CB       -15.7730   -8.4900   11.5390 C.3    45  LYS45       0.0271
     12  CG       -15.7960   -9.9710   11.1090 C.3    45  LYS45       0.0035
     13  CD       -14.4860  -10.4280   10.4780 C.3    45  LYS45       0.0206
     14  CE       -14.6270  -11.8670    9.9720 C.3    45  LYS45       0.1093
     15  NZ       -13.6410  -12.2900    8.9140 N.3    45  LYS45      -0.1314
     16  N        -11.5120  -22.6490   11.8190 N.3    73  ARG73      -0.1231
     17  CA       -12.2070  -23.2130   10.6680 C.3    73  ARG73       0.1694
     18  C        -12.3660  -22.1900    9.5560 C.2    73  ARG73       0.2593
     19  O        -13.1220  -22.4000    8.6080 O.2    73  ARG73      -0.2718
     20  CB       -13.5820  -23.7410   11.0830 C.3    73  ARG73       0.0321
     21  CG       -13.5350  -24.9350   12.0180 C.3    73  ARG73       0.0489
     22  CD       -14.9390  -25.3870   12.3950 C.3    73  ARG73       0.2205
     23  NE       -14.9190  -26.5650   13.2580 N.pl3  73  ARG73      -0.0865
     24  CZ       -14.7810  -26.5240   14.5790 C.cat  73  ARG73       0.5346
     25  NH1      -14.6620  -25.3580   15.1990 N.pl3  73  ARG73       0.1354
     26  NH2      -14.7700  -27.6500   15.2830 N.pl3  73  ARG73       0.1354
     27  N        -11.6550  -21.0750    9.6880 N.am   74  SER74      -0.1938
     28  CA       -11.7150  -19.9830    8.7210 C.3    74  SER74       0.2055
     29  C        -10.3970  -19.2150    8.7770 C.2    74  SER74       0.2642
     30  O         -9.6280  -19.3880    9.7320 O.2    74  SER74      -0.2714
     31  CB       -12.9020  -19.0610    9.0180 C.3    74  SER74       0.2130
     32  OG       -12.7630  -18.4700   10.3010 O.3    74  SER74      -0.2179
     33  N        -10.1310  -18.3770    7.7820 N.am   75  ILE75      -0.1977
     34  CA        -8.8870  -17.6080    7.7550 C.3    75  ILE75       0.1596
     35  C         -8.7980  -16.7200    8.9900 C.2    75  ILE75       0.2287
     36  O         -9.6790  -15.9050    9.2490 O.2    75  ILE75      -0.2864
     37  CB        -8.7530  -16.7320    6.5130 C.3    75  ILE75       0.0276
     38  CG1       -8.8830  -17.5620    5.2310 C.3    75  ILE75       0.0022
     39  CG2       -7.4160  -16.0140    6.5350 C.3    75  ILE75       0.0022
     40  CD1       -8.9380  -16.7120    3.9800 C.3    75  ILE75       0.0001
     41  N         -5.6870  -14.8020   10.7510 N.3    77  PRO77      -0.2116
     42  CA        -4.2590  -14.4580   10.7880 C.3    77  PRO77       0.1372
     43  C         -3.7130  -14.3010   12.2010 C.2    77  PRO77       0.2244
     44  O         -2.5360  -14.5810   12.4240 O.2    77  PRO77      -0.2868
     45  CB        -4.1950  -13.1400   10.0090 C.3    77  PRO77       0.0268
     46  CG        -5.4040  -13.2160    9.0720 C.3    77  PRO77       0.0207
     47  CD        -6.4680  -13.8630    9.9280 C.3    77  PRO77       0.0892
     48  N         -7.5360   -7.5430   11.0300 N.3    99  TYR99      -0.1227
     49  CA        -7.0260   -8.6300   10.1910 C.3    99  TYR99       0.1736
     50  C         -8.1450   -9.4800    9.6160 C.2    99  TYR99       0.2596
     51  O         -7.8910  -10.4950    8.9550 O.2    99  TYR99      -0.2718
     52  CB        -6.0600   -9.5010   11.0020 C.3    99  TYR99       0.0548
     53  CG        -4.7570   -8.8020   11.2650 C.ar   99  TYR99      -0.0200
     54  CD1       -3.7460   -8.8380   10.3140 C.ar   99  TYR99      -0.0009
     55  CD2       -4.5470   -8.0730   12.4330 C.ar   99  TYR99      -0.0009
     56  CE1       -2.5580   -8.1920   10.5190 C.ar   99  TYR99       0.0417
     57  CE2       -3.3530   -7.4080   12.6400 C.ar   99  TYR99       0.0417
     58  CZ        -2.3630   -7.4780   11.6790 C.ar   99  TYR99       0.1957
     59  OH        -1.1650   -6.8290   11.8790 O.3    99  TYR99      -0.2866
     60  N         -9.3850   -9.0690    9.8630 N.am  100  SER100     -0.1952
     61  CA       -10.5570   -9.7880    9.4050 C.3   100  SER100      0.1924
     62  C        -10.5270  -11.2530    9.8770 C.2   100  SER100      0.2314
     63  O        -10.8910  -12.1860    9.1490 O.2   100  SER100     -0.2863
     64  CB       -10.6550   -9.6940    7.8830 C.3   100  SER100      0.2116
     65  OG       -11.9960   -9.7850    7.4710 O.3   100  SER100     -0.2180
     66  N        -11.3720  -14.6590   11.2100 N.3   102  GLY102     -0.1225
     67  CA       -12.6210  -15.3850   11.2670 C.3   102  GLY102      0.1811
     68  C        -12.8900  -16.1340   12.5570 C.2   102  GLY102      0.2280
     69  O        -14.0360  -16.2210   12.9940 O.2   102  GLY102     -0.2866
     70  N        -18.4400  -17.8220   10.3060 N.3   140  GLU140     -0.1231
     71  CA       -17.3430  -17.9890    9.3540 C.3   140  GLU140      0.1684
     72  C        -16.9530  -19.4500    9.2300 C.2   140  GLU140      0.2434
     73  O        -16.9010  -20.1570   10.2300 O.2   140  GLU140     -0.2733
     74  CB       -16.1210  -17.1800    9.7800 C.3   140  GLU140      0.0402
     75  CG       -16.3110  -15.6810    9.7050 C.3   140  GLU140      0.1161
     76  CD       -16.2750  -15.1370    8.2870 C.2   140  GLU140      0.3649
     77  OE1      -16.2070  -15.9270    7.3250 O.co2 140  GLU140     -0.2457
     78  OE2      -16.3180  -13.8920    8.1350 O.co2 140  GLU140     -0.2457
     79  N        -16.6300  -19.9000    8.0070 N.am  141  PRO141     -0.2729
     80  CA       -16.5570  -19.1550    6.7430 C.3   141  PRO141      0.1401
     81  C        -17.8110  -19.2710    5.8700 C.2   141  PRO141      0.2269
     82  O        -17.8680  -18.6670    4.7880 O.2   141  PRO141     -0.2865
     83  CB       -15.3690  -19.8120    6.0380 C.3   141  PRO141      0.0296
     84  CG       -15.4770  -21.2500    6.4600 C.3   141  PRO141      0.0237
     85  CD       -16.0110  -21.2340    7.8880 C.3   141  PRO141      0.0939
     86  N        -19.7520  -16.3710    3.8370 N.3   144  ALA144     -0.1231
     87  CA       -19.1960  -15.7280    2.6410 C.3   144  ALA144      0.1694
     88  C        -19.4570  -16.5020    1.3450 C.2   144  ALA144      0.2591
     89  O        -18.9860  -16.1040    0.2610 O.2   144  ALA144     -0.2718
     90  CB       -17.6940  -15.5090    2.8220 C.3   144  ALA144      0.0304
     91  N        -20.2240  -17.5860    1.4480 N.am  145  ARG145     -0.1980
     92  CA       -20.2550  -18.5790    0.3900 C.3   145  ARG145      0.1597
     93  C        -21.6500  -18.9060   -0.1110 C.2   145  ARG145      0.2287
     94  O        -21.8060  -19.8220   -0.9210 O.2   145  ARG145     -0.2864
     95  CB       -19.5610  -19.8240    0.9070 C.3   145  ARG145      0.0334
     96  CG       -18.1830  -19.4730    1.3910 C.3   145  ARG145      0.0492
     97  CD       -17.5480  -20.6490    2.0570 C.3   145  ARG145      0.2205
     98  NE       -16.5890  -21.1570    1.1070 N.pl3 145  ARG145     -0.0865
     99  CZ       -16.0480  -22.3500    1.1920 C.cat 145  ARG145      0.5346
    100  NH1      -16.3260  -23.1290    2.2200 N.pl3 145  ARG145      0.1354
    101  NH2      -15.2100  -22.7310    0.2650 N.pl3 145  ARG145      0.1354
    102  N         -6.1920   -4.3460    6.0880 N.3   190  THR190     -0.1218
    103  CA        -6.6460   -5.0710    4.8980 C.3   190  THR190      0.1862
    104  C         -7.2470   -4.2050    3.7930 C.2   190  THR190      0.2287
    105  O         -7.6890   -4.7430    2.7800 O.2   190  THR190     -0.2866
    106  CB        -7.7210   -6.1210    5.2640 C.3   190  THR190      0.1770
    107  OG1       -8.9200   -5.4390    5.6540 O.3   190  THR190     -0.2211
    108  CG2       -7.2500   -7.0480    6.3970 C.3   190  THR190      0.0375
    109  N        -14.6030   -6.7810    3.2610 N.3   210  GLY210     -0.1210
    110  CA       -15.2090   -8.1030    3.1630 C.3   210  GLY210      0.1956
    111  C        -14.8020   -8.7440    1.8500 C.2   210  GLY210      0.2613
    112  O        -14.7440   -8.0620    0.8200 O.2   210  GLY210     -0.2717
    113  N        -14.5060  -10.0420    1.8780 N.am  211  THR211     -0.1938
    114  CA       -14.1480  -10.7680    0.6650 C.3   211  THR211      0.2028
    115  C        -14.8380  -12.1310    0.6830 C.2   211  THR211      0.2643
    116  O        -14.9210  -12.7800    1.7300 O.2   211  THR211     -0.2714
    117  CB       -12.6240  -10.9240    0.5410 C.3   211  THR211      0.1808
    118  OG1      -12.0130   -9.6270    0.6470 O.3   211  THR211     -0.2208
    119  CG2      -12.2410  -11.5320   -0.7980 C.3   211  THR211      0.0379
    120  N        -15.3450  -12.5630   -0.4660 N.am  212  GLY212     -0.1939
    121  CA       -16.0810  -13.8150   -0.5040 C.3   212  GLY212      0.2014
    122  C        -15.9800  -14.4990   -1.8420 C.2   212  GLY212      0.2638
    123  O        -15.3190  -14.0260   -2.7660 O.2   212  GLY212     -0.2714
    124  N        -16.6410  -15.6440   -1.9470 N.am  213  ASP213     -0.1971
    125  CA       -16.6740  -16.3390   -3.2160 C.3   213  ASP213      0.1709
    126  C        -17.5920  -15.5910   -4.1770 C.2   213  ASP213      0.2293
    127  O        -18.1750  -14.5660   -3.8180 O.2   213  ASP213     -0.2864
    128  CB       -17.0810  -17.7960   -3.0020 C.3   213  ASP213      0.1436
    129  CG       -16.0500  -18.5450   -2.1690 C.2   213  ASP213      0.3671
    130  OD1      -14.8910  -18.6480   -2.6210 O.co2 213  ASP213     -0.2456
    131  OD2      -16.3920  -19.0150   -1.0670 O.co2 213  ASP213     -0.2456
    132  N        -12.2050  -11.7960   -6.8300 N.3   248  PRO248     -0.2116
    133  CA       -12.6200  -10.4590   -6.3960 C.3   248  PRO248      0.1372
    134  C        -11.7560   -9.3790   -7.0560 C.2   248  PRO248      0.2244
    135  O        -10.5690   -9.6130   -7.3010 O.2   248  PRO248     -0.2868
    136  CB       -12.4020  -10.4980   -4.8790 C.3   248  PRO248      0.0268
    137  CG       -12.4340  -11.9670   -4.5310 C.3   248  PRO248      0.0207
    138  CD       -11.7810  -12.6410   -5.7000 C.3   248  PRO248      0.0892
@<TRIPOS>BOND
     1   135   134    2
     2   134   133    1
     3   132   133    1
     4   132   138    1
     5   133   136    1
     6   138   137    1
     7   136   137    1
     8   126   127    2
     9   126   125    1
    10   125   128    1
    11   125   124    1
    12   128   129    1
    13   123   122    2
    14   130   129   ar
    15   129   131   ar
    16   124   122   am
    17   122   121    1
    18    94    93    2
    19   119   117    1
    20   121   120    1
    21   120   115   am
    22    93    92    1
    23    89    88    2
    24   101    99    1
    25    92    95    1
    26    92    91    1
    27   117   118    1
    28   117   114    1
    29   114   115    1
    30   114   113    1
    31   115   116    2
    32   112   111    2
    33    95    96    1
    34    98    99    2
    35    98    97    1
    36    99   100    1
    37    88    91   am
    38    88    87    1
    39    96    97    1
    40   111   113   am
    41   111   110    1
    42    87    90    1
    43    87    86    1
    44   105   104    2
    45   110   109    1
    46   104   103    1
    47    40    38    1
    48    82    81    2
    49   103   106    1
    50   103   102    1
    51    38    37    1
    52   106   107    1
    53   106   108    1
    54     1     2    1
    55    81    80    1
    56    83    84    1
    57    83    80    1
    58    84    85    1
    59    37    39    1
    60    37    34    1
    61     6     5    1
    62     5     2    1
    63     2     3    1
    64    80    79    1
    65     3     4    2
    66    77    76   ar
    67    65    64    1
    68    34    33    1
    69    34    35    1
    70    33    29   am
    71    64    61    1
    72    85    79    1
    73    79    72   am
    74    78    76   ar
    75    76    75    1
    76    19    18    2
    77    28    29    1
    78    28    31    1
    79    28    27    1
    80    29    30    2
    81    15    14    1
    82    51    50    2
    83    35    36    2
    84    31    32    1
    85    46    47    1
    86    46    45    1
    87    63    62    2
    88    72    71    1
    89    72    73    2
    90    71    74    1
    91    71    70    1
    92    61    60    1
    93    61    62    1
    94    18    27   am
    95    18    17    1
    96    50    60   am
    97    50    49    1
    98    75    74    1
    99    47    41    1
   100    14    13    1
   101    45    42    1
   102    49    52    1
   103    49    48    1
   104    54    56   ar
   105    54    53   ar
   106    13    12    1
   107    56    58   ar
   108    17    20    1
   109    17    16    1
   110    41    42    1
   111     7     8    1
   112    42    43    1
   113    52    53    1
   114    20    21    1
   115    12    11    1
   116    66    67    1
   117    53    55   ar
   118    67    68    1
   119    11     8    1
   120    58    59    1
   121    58    57   ar
   122     8     9    1
   123    21    22    1
   124    43    44    2
   125    22    23    1
   126    55    57   ar
   127    68    69    2
   128     9    10    2
   129    23    24    2
   130    24    25    1
   131    24    26    1
