@<TRIPOS>MOLECULE
tmp/4x6xA00.pdb
 257 253 0 0 0
SMALL
GASTEIGER

@<TRIPOS>ATOM
      1  N         -0.5850    2.4640   25.9400 N.3    38  PHE38      -0.1228
      2  CA        -1.8230    2.8030   25.2540 C.3    38  PHE38       0.1721
      3  C         -1.8780    4.2960   24.9210 C.2    38  PHE38       0.2437
      4  O         -1.5980    5.1290   25.7830 O.2    38  PHE38      -0.2733
      5  CB        -3.0190    2.4520   26.1480 C.3    38  PHE38       0.0547
      6  CG        -4.3490    2.8650   25.5800 C.ar   38  PHE38      -0.0202
      7  CD1       -4.8520    4.1370   25.8150 C.ar   38  PHE38      -0.0042
      8  CD2       -5.1040    1.9830   24.8180 C.ar   38  PHE38      -0.0042
      9  CE1       -6.0740    4.5290   25.2900 C.ar   38  PHE38      -0.0003
     10  CE2       -6.3320    2.3640   24.2960 C.ar   38  PHE38      -0.0003
     11  CZ        -6.8160    3.6390   24.5290 C.ar   38  PHE38      -0.0000
     12  N         -2.2580    4.6480   23.6790 N.am   39  PRO39      -0.2729
     13  CA        -2.4710    3.8370   22.4960 C.3    39  PRO39       0.1401
     14  C         -1.3060    4.0490   21.5450 C.2    39  PRO39       0.2269
     15  O         -1.3070    4.9860   20.7550 O.2    39  PRO39      -0.2865
     16  CB        -3.7650    4.4220   21.9260 C.3    39  PRO39       0.0296
     17  CG        -3.7290    5.8700   22.3310 C.3    39  PRO39       0.0237
     18  CD        -2.7420    6.0230   23.4540 C.3    39  PRO39       0.0939
     19  N          3.8360    2.5340   30.5790 N.3   106  ASP106     -0.1225
     20  CA         2.3730    2.6180   30.6640 C.3   106  ASP106      0.1805
     21  C          1.8050    1.1880   30.8090 C.2   106  ASP106      0.2597
     22  O          2.2750    0.4550   31.6770 O.2   106  ASP106     -0.2718
     23  CB         1.8190    3.4010   29.4670 C.3   106  ASP106      0.1424
     24  CG         0.3390    3.6440   29.5660 C.2   106  ASP106      0.3668
     25  OD1       -0.4250    2.9700   28.8190 O.co2 106  ASP106     -0.2456
     26  OD2       -0.0570    4.5000   30.3920 O.co2 106  ASP106     -0.2456
     27  N          0.8460    0.7670   29.9810 N.am  107  TRP107     -0.1976
     28  CA         0.3420   -0.6060   30.0710 C.3   107  TRP107      0.1640
     29  C          1.4480   -1.6350   29.8340 C.2   107  TRP107      0.2290
     30  O          1.4070   -2.7190   30.4190 O.2   107  TRP107     -0.2864
     31  CB        -0.8110   -0.8540   29.0990 C.3   107  TRP107      0.0576
     32  CG        -2.1530   -0.5490   29.6650 C.ar  107  TRP107      0.0006
     33  CD1       -2.9510    0.5080   29.3520 C.ar  107  TRP107      0.0946
     34  CD2       -2.8690   -1.3220   30.6340 C.ar  107  TRP107      0.0152
     35  NE1       -4.1170    0.4440   30.0670 N.ar  107  TRP107     -0.2442
     36  CE2       -4.0990   -0.6720   30.8580 C.ar  107  TRP107      0.0810
     37  CE3       -2.5950   -2.5060   31.3250 C.ar  107  TRP107      0.0012
     38  CZ2       -5.0510   -1.1590   31.7480 C.ar  107  TRP107      0.0191
     39  CZ3       -3.5430   -2.9900   32.2140 C.ar  107  TRP107      0.0001
     40  CH2       -4.7540   -2.3160   32.4190 C.ar  107  TRP107      0.0015
     41  N          3.0110   -2.1850   33.0960 N.3   110  MET110     -0.1245
     42  CA         2.2420   -3.1180   33.9190 C.3   110  MET110      0.1570
     43  C          2.5940   -4.5480   33.5110 C.2   110  MET110      0.2261
     44  O          2.8350   -5.4030   34.3590 O.2   110  MET110     -0.2867
     45  CB         0.7370   -2.8770   33.7780 C.3   110  MET110      0.0387
     46  CG        -0.1120   -3.5580   34.8400 C.3   110  MET110      0.0595
     47  SD         0.0100   -2.7450   36.4530 S.3   110  MET110     -0.1393
     48  CE         1.5130   -3.4260   37.1510 C.3   110  MET110      0.0692
     49  N          4.9410    3.5310   35.1370 N.3   131  THR131     -0.1204
     50  CA         4.0060    2.6000   35.7600 C.3   131  THR131      0.1979
     51  C          4.6250    1.9500   36.9880 C.2   131  THR131      0.2459
     52  O          5.6700    1.2930   36.8930 O.2   131  THR131     -0.2732
     53  CB         3.5720    1.5140   34.7670 C.3   131  THR131      0.1783
     54  OG1        3.2270    2.1310   33.5260 O.3   131  THR131     -0.2211
     55  CG2        2.3650    0.7390   35.3010 C.3   131  THR131      0.0376
     56  N          3.9860    2.1300   38.1540 N.am  132  PRO132     -0.2728
     57  CA         4.5120    1.5050   39.3580 C.3   132  PRO132      0.1401
     58  C          4.0860    0.0410   39.4390 C.2   132  PRO132      0.2269
     59  O          3.2320   -0.4030   38.6690 O.2   132  PRO132     -0.2865
     60  CB         3.8590    2.3200   40.4740 C.3   132  PRO132      0.0296
     61  CG         2.5380    2.7240   39.9040 C.3   132  PRO132      0.0237
     62  CD         2.7280    2.8580   38.4140 C.3   132  PRO132      0.0939
     63  N          2.3610   -2.0720   42.2920 N.3   134  ILE134     -0.1231
     64  CA         1.7110   -2.1230   43.5970 C.3   134  ILE134      0.1678
     65  C          1.1120   -3.5230   43.7450 C.2   134  ILE134      0.2434
     66  O          0.2800   -3.9190   42.9310 O.2   134  ILE134     -0.2733
     67  CB         0.5520   -1.1070   43.7220 C.3   134  ILE134      0.0265
     68  CG1        0.9050    0.2520   43.1090 C.3   134  ILE134      0.0019
     69  CG2        0.1290   -0.9570   45.1770 C.3   134  ILE134      0.0020
     70  CD1        2.0970    0.9370   43.7240 C.3   134  ILE134      0.0001
     71  N          1.5310   -4.2740   44.7730 N.am  135  PRO135     -0.2718
     72  CA         0.9070   -5.5740   45.0410 C.3   135  PRO135      0.1535
     73  C         -0.6170   -5.4860   45.1350 C.2   135  PRO135      0.2598
     74  O         -1.1480   -4.5360   45.7120 O.2   135  PRO135     -0.2715
     75  CB         1.5020   -5.9680   46.3910 C.3   135  PRO135      0.0310
     76  CG         2.8500   -5.3300   46.3940 C.3   135  PRO135      0.0237
     77  CD         2.7010   -4.0380   45.6340 C.3   135  PRO135      0.0939
     78  N         -1.3060   -6.4680   44.5620 N.am  136  ALA136     -0.1964
     79  CA        -2.7670   -6.5040   44.5880 C.3   136  ALA136      0.1728
     80  C         -3.2930   -6.4760   46.0220 C.2   136  ALA136      0.2616
     81  O         -2.6840   -7.0540   46.9130 O.2   136  ALA136     -0.2715
     82  CB        -3.2720   -7.7480   43.8710 C.3   136  ALA136      0.0334
     83  N         -4.4140   -5.7900   46.2290 N.am  137  ASN137     -0.1972
     84  CA        -5.0880   -5.7530   47.5270 C.3   137  ASN137      0.1688
     85  C         -6.2770   -6.7190   47.5000 C.2   137  ASN137      0.2292
     86  O         -7.3070   -6.4050   46.8970 O.2   137  ASN137     -0.2864
     87  CB        -5.5480   -4.3260   47.8460 C.3   137  ASN137      0.1181
     88  CG        -6.2160   -4.2030   49.2100 C.2   137  ASN137      0.2629
     89  OD1       -6.5010   -5.1960   49.8830 O.2   137  ASN137     -0.2716
     90  ND2       -6.4780   -2.9700   49.6180 N.am  137  ASN137     -0.0877
     91  N         -9.9270   -4.9060   48.4780 N.3   140  MET140     -0.1245
     92  CA       -10.6720   -3.9560   47.6390 C.3   140  MET140      0.1570
     93  C        -10.5570   -4.2630   46.1480 C.2   140  MET140      0.2261
     94  O         -9.4690   -4.5060   45.6180 O.2   140  MET140     -0.2867
     95  CB       -10.3090   -2.4910   47.9550 C.3   140  MET140      0.0387
     96  CG        -9.0450   -1.9300   47.3210 C.3   140  MET140      0.0595
     97  SD        -8.9830   -0.1280   47.4700 S.3   140  MET140     -0.1393
     98  CE        -7.2470    0.1750   47.1400 C.3   140  MET140      0.0692
     99  N        -11.2500    0.9220   43.9890 N.3   145  SER145     -0.1217
    100  CA       -10.0370    1.7440   43.9020 C.3   145  SER145      0.1889
    101  C        -10.2370    2.9800   43.0330 C.2   145  SER145      0.2288
    102  O         -9.7000    4.0500   43.3410 O.2   145  SER145     -0.2866
    103  CB        -8.8580    0.9390   43.3500 C.3   145  SER145      0.2089
    104  OG        -8.4360   -0.0470   44.2680 O.3   145  SER145     -0.2183
    105  N         -8.5100    8.4540   37.8990 N.3   152  PHE152     -0.1241
    106  CA        -8.7550    7.2810   37.0510 C.3   152  PHE152      0.1605
    107  C        -10.2110    7.1500   36.5600 C.2   152  PHE152      0.2264
    108  O        -10.6260    6.0580   36.1610 O.2   152  PHE152     -0.2867
    109  CB        -8.3400    5.9990   37.7920 C.3   152  PHE152      0.0534
    110  CG        -6.8600    5.8980   38.0610 C.ar  152  PHE152     -0.0203
    111  CD1       -5.9440    5.9720   37.0190 C.ar  152  PHE152     -0.0042
    112  CD2       -6.3840    5.7030   39.3500 C.ar  152  PHE152     -0.0042
    113  CE1       -4.5840    5.8710   37.2600 C.ar  152  PHE152     -0.0003
    114  CE2       -5.0240    5.6010   39.5960 C.ar  152  PHE152     -0.0003
    115  CZ        -4.1230    5.6860   38.5510 C.ar  152  PHE152     -0.0000
    116  N        -11.6770    8.3460   33.7710 N.3   154  TYR154     -0.1227
    117  CA       -11.6620    7.9850   32.3470 C.3   154  TYR154      0.1736
    118  C        -11.7010    6.4690   32.0990 C.2   154  TYR154      0.2595
    119  O        -12.1970    6.0140   31.0600 O.2   154  TYR154     -0.2718
    120  CB       -10.4240    8.5760   31.6490 C.3   154  TYR154      0.0548
    121  CG        -9.1130    7.9700   32.1130 C.ar  154  TYR154     -0.0200
    122  CD1       -8.5440    6.8890   31.4430 C.ar  154  TYR154     -0.0009
    123  CD2       -8.4540    8.4630   33.2360 C.ar  154  TYR154     -0.0009
    124  CE1       -7.3570    6.3250   31.8760 C.ar  154  TYR154      0.0417
    125  CE2       -7.2670    7.9050   33.6720 C.ar  154  TYR154      0.0417
    126  CZ        -6.7180    6.8420   32.9870 C.ar  154  TYR154      0.1957
    127  OH        -5.5400    6.2980   33.4460 O.3   154  TYR154     -0.2866
    128  N        -11.1560    5.6890   33.0300 N.am  155  GLN155     -0.1979
    129  CA       -11.1480    4.2350   32.8760 C.3   155  GLN155      0.1601
    130  C        -12.5650    3.6690   32.8450 C.2   155  GLN155      0.2287
    131  O        -12.8130    2.6590   32.1940 O.2   155  GLN155     -0.2864
    132  CB       -10.3180    3.5670   33.9730 C.3   155  GLN155      0.0394
    133  CG        -8.8280    3.8620   33.8510 C.3   155  GLN155      0.0908
    134  CD        -7.9790    3.0990   34.8490 C.2   155  GLN155      0.2608
    135  OE1       -6.8780    3.5280   35.1890 O.2   155  GLN155     -0.2717
    136  NE2       -8.4830    1.9640   35.3220 N.am  155  GLN155     -0.0878
    137  N        -13.9100    3.9780   29.3220 N.3   158  PHE158     -0.1241
    138  CA       -13.3660    2.9450   28.4370 C.3   158  PHE158      0.1605
    139  C        -14.0190    1.5680   28.5940 C.2   158  PHE158      0.2264
    140  O        -13.6950    0.6590   27.8310 O.2   158  PHE158     -0.2867
    141  CB       -11.8550    2.7870   28.6590 C.3   158  PHE158      0.0534
    142  CG       -11.0240    3.9620   28.2060 C.ar  158  PHE158     -0.0203
    143  CD1      -11.5610    4.9980   27.4470 C.ar  158  PHE158     -0.0042
    144  CD2       -9.6670    3.9920   28.4980 C.ar  158  PHE158     -0.0042
    145  CE1      -10.7710    6.0500   27.0260 C.ar  158  PHE158     -0.0003
    146  CE2       -8.8690    5.0400   28.0710 C.ar  158  PHE158     -0.0003
    147  CZ        -9.4250    6.0710   27.3330 C.ar  158  PHE158     -0.0000
    148  N        -12.4860    7.7250   19.5810 N.3   168  LEU168     -0.1245
    149  CA       -11.0660    7.6610   19.2190 C.3   168  LEU168      0.1561
    150  C        -10.8480    7.4010   17.7220 C.2   168  LEU168      0.2260
    151  O         -9.8830    7.8940   17.1450 O.2   168  LEU168     -0.2867
    152  CB       -10.3530    6.5970   20.0600 C.3   168  LEU168      0.0270
    153  CG       -10.3010    6.9430   21.5510 C.3   168  LEU168      0.0019
    154  CD1      -10.0640    5.7000   22.3920 C.3   168  LEU168      0.0001
    155  CD2       -9.2290    7.9860   21.8280 C.3   168  LEU168      0.0001
    156  N         -3.6500   13.8110   21.9850 N.3   179  LEU179     -0.1245
    157  CA        -3.0300   13.0020   23.0370 C.3   179  LEU179      0.1561
    158  C         -1.5410   13.2610   23.1970 C.2   179  LEU179      0.2260
    159  O         -1.0580   13.4590   24.3190 O.2   179  LEU179     -0.2867
    160  CB        -3.2470   11.5080   22.7650 C.3   179  LEU179      0.0270
    161  CG        -4.6860   11.0220   22.9400 C.3   179  LEU179      0.0019
    162  CD1       -4.7930    9.5730   22.5020 C.3   179  LEU179      0.0001
    163  CD2       -5.1450   11.1900   24.3780 C.3   179  LEU179      0.0001
    164  N         -8.8050   14.8470   32.2110 N.3   190  MET190     -0.1245
    165  CA        -9.1430   13.4560   32.5000 C.3   190  MET190      0.1570
    166  C         -9.7610   13.3620   33.8930 C.2   190  MET190      0.2261
    167  O         -9.7030   12.3160   34.5440 O.2   190  MET190     -0.2867
    168  CB        -7.9000   12.5790   32.3800 C.3   190  MET190      0.0387
    169  CG        -7.2810   12.6260   30.9950 C.3   190  MET190      0.0595
    170  SD        -6.0280   11.3620   30.7500 S.3   190  MET190     -0.1393
    171  CE        -5.6840   11.5560   29.0020 C.3   190  MET190      0.0692
    172  N        -13.5120   12.0240   25.8410 N.3   199  LEU199     -0.1245
    173  CA       -12.1900   12.6370   25.9980 C.3   199  LEU199      0.1561
    174  C        -12.0590   13.9960   25.3160 C.2   199  LEU199      0.2260
    175  O        -11.4000   14.8870   25.8440 O.2   199  LEU199     -0.2867
    176  CB       -11.1000   11.7160   25.4260 C.3   199  LEU199      0.0270
    177  CG       -10.3920   10.6560   26.2830 C.3   199  LEU199      0.0019
    178  CD1      -11.1900   10.2060   27.4900 C.3   199  LEU199      0.0001
    179  CD2      -10.0250    9.4600   25.4130 C.3   199  LEU199      0.0001
    180  N         -8.0260   -2.3920   29.0810 N.3   237  TYR237     -0.1241
    181  CA        -8.7170   -1.8070   30.2430 C.3   237  TYR237      0.1605
    182  C         -9.9390   -2.5880   30.7660 C.2   237  TYR237      0.2264
    183  O        -10.5100   -2.2180   31.7930 O.2   237  TYR237     -0.2867
    184  CB        -9.2390   -0.4100   29.8980 C.3   237  TYR237      0.0534
    185  CG        -8.2070    0.6620   29.7250 C.ar  237  TYR237     -0.0201
    186  CD1       -7.8010    1.4300   30.8040 C.ar  237  TYR237     -0.0009
    187  CD2       -7.6660    0.9410   28.4780 C.ar  237  TYR237     -0.0009
    188  CE1       -6.8690    2.4360   30.6510 C.ar  237  TYR237      0.0417
    189  CE2       -6.7300    1.9420   28.3140 C.ar  237  TYR237      0.0417
    190  CZ        -6.3390    2.6930   29.4030 C.ar  237  TYR237      0.1957
    191  OH        -5.4080    3.6950   29.2540 O.3   237  TYR237     -0.2866
    192  N          3.8300   13.5830   34.6660 N.3   267  ASP267     -0.1225
    193  CA         2.7750   12.6280   34.3460 C.3   267  ASP267      0.1805
    194  C          1.7380   12.7490   35.4610 C.2   267  ASP267      0.2598
    195  O          2.0130   12.3800   36.6050 O.2   267  ASP267     -0.2718
    196  CB         3.3220   11.1980   34.2550 C.3   267  ASP267      0.1424
    197  CG         2.2580   10.1890   33.8310 C.2   267  ASP267      0.3668
    198  OD1        1.0600   10.4390   34.0900 O.co2 267  ASP267     -0.2456
    199  OD2        2.6120    9.1410   33.2290 O.co2 267  ASP267     -0.2456
    200  N          0.5580   13.2750   35.1320 N.am  268  PHE268     -0.1962
    201  CA        -0.4330   13.6230   36.1540 C.3   268  PHE268      0.1771
    202  C         -1.3980   12.4920   36.4560 C.2   268  PHE268      0.2619
    203  O         -2.2920   12.6510   37.2790 O.2   268  PHE268     -0.2715
    204  CB        -1.2150   14.8830   35.7570 C.3   268  PHE268      0.0574
    205  CG        -0.3440   16.0820   35.5040 C.ar  268  PHE268     -0.0200
    206  CD1       -0.5210   16.8590   34.3630 C.ar  268  PHE268     -0.0042
    207  CD2        0.6640   16.4310   36.4010 C.ar  268  PHE268     -0.0042
    208  CE1        0.2780   17.9670   34.1310 C.ar  268  PHE268     -0.0003
    209  CE2        1.4690   17.5360   36.1670 C.ar  268  PHE268     -0.0003
    210  CZ         1.2770   18.3000   35.0290 C.ar  268  PHE268     -0.0000
    211  N         -1.2110   11.3540   35.7930 N.am  269  VAL269     -0.1963
    212  CA        -2.0000   10.1620   36.0600 C.3   269  VAL269      0.1727
    213  C         -1.1240    9.1540   36.7930 C.2   269  VAL269      0.2616
    214  O         -1.4270    8.7700   37.9180 O.2   269  VAL269     -0.2715
    215  CB        -2.5630    9.5760   34.7520 C.3   269  VAL269      0.0290
    216  CG1       -3.2360    8.2330   35.0040 C.3   269  VAL269      0.0023
    217  CG2       -3.5460   10.5660   34.1410 C.3   269  VAL269      0.0023
    218  N         -0.0320    8.7430   36.1560 N.am  270  LEU270     -0.1977
    219  CA         0.9610    7.8760   36.7880 C.3   270  LEU270      0.1596
    220  C          1.9980    8.7450   37.5040 C.2   270  LEU270      0.2287
    221  O          3.1500    8.8460   37.0860 O.2   270  LEU270     -0.2864
    222  CB         1.6190    6.9700   35.7470 C.3   270  LEU270      0.0297
    223  CG         0.6490    6.1410   34.8970 C.3   270  LEU270      0.0022
    224  CD1        1.3740    5.4260   33.7640 C.3   270  LEU270      0.0001
    225  CD2       -0.0920    5.1450   35.7720 C.3   270  LEU270      0.0001
    226  N          3.1310    7.4810   43.3270 N.3   274  MET274     -0.1245
    227  CA         2.5440    6.1360   43.2520 C.3   274  MET274      0.1570
    228  C          3.5820    5.0150   43.3830 C.2   274  MET274      0.2261
    229  O          3.2320    3.8920   43.7430 O.2   274  MET274     -0.2867
    230  CB         1.7770    5.9350   41.9480 C.3   274  MET274      0.0387
    231  CG         0.4440    6.6550   41.8830 C.3   274  MET274      0.0595
    232  SD        -0.2370    6.5700   40.2150 S.3   274  MET274     -0.1393
    233  CE        -0.5840    4.8260   40.0590 C.3   274  MET274      0.0692
    234  N          3.6080   12.3930   30.3500 N.3   295  HIS295     -0.1226
    235  CA         3.3050   10.9690   30.2260 C.3   295  HIS295      0.1752
    236  C          4.0890   10.2500   29.1210 C.2   295  HIS295      0.2596
    237  O          4.4420    9.0760   29.2720 O.2   295  HIS295     -0.2718
    238  CB         1.8100   10.7400   29.9980 C.3   295  HIS295      0.0759
    239  CG         1.4710    9.3010   29.8330 C.ar  295  HIS295      0.0818
    240  ND1        1.5180    8.4120   30.8830 N.ar  295  HIS295     -0.2268
    241  CD2        1.1820    8.5720   28.7310 C.ar  295  HIS295      0.1154
    242  CE1        1.2340    7.2010   30.4400 C.ar  295  HIS295      0.1986
    243  NE2        1.0260    7.2710   29.1370 N.ar  295  HIS295     -0.2212
    244  N          4.3500   10.9470   28.0180 N.am  296  TRP296     -0.1976
    245  CA         4.8770   10.3080   26.8050 C.3   296  TRP296      0.1640
    246  C          6.3940   10.3280   26.8530 C.2   296  TRP296      0.2290
    247  O          7.0600   10.9290   26.0140 O.2   296  TRP296     -0.2864
    248  CB         4.3310   11.0160   25.5630 C.3   296  TRP296      0.0576
    249  CG         2.8510   11.1680   25.6350 C.ar  296  TRP296      0.0006
    250  CD1        2.1660   12.3040   25.9320 C.ar  296  TRP296      0.0946
    251  CD2        1.8720   10.1400   25.4600 C.ar  296  TRP296      0.0152
    252  NE1        0.8190   12.0570   25.9320 N.ar  296  TRP296     -0.2442
    253  CE2        0.6100   10.7340   25.6440 C.ar  296  TRP296      0.0810
    254  CE3        1.9380    8.7730   25.1500 C.ar  296  TRP296      0.0012
    255  CZ2       -0.5830   10.0120   25.5390 C.ar  296  TRP296      0.0191
    256  CZ3        0.7480    8.0520   25.0510 C.ar  296  TRP296      0.0001
    257  CH2       -0.4930    8.6740   25.2410 C.ar  296  TRP296      0.0015
@<TRIPOS>BOND
     1   151   150    2
     2   150   149    1
     3   149   148    1
     4   149   152    1
     5   152   153    1
     6    15    14    2
     7    14    13    1
     8   153   155    1
     9   153   154    1
    10    16    17    1
    11    16    13    1
    12   156   157    1
    13    17    18    1
    14    13    12    1
    15   162   161    1
    16   160   161    1
    17   160   157    1
    18   161   163    1
    19   157   158    1
    20   158   159    2
    21    18    12    1
    22    12     3   am
    23    10    11   ar
    24    10     8   ar
    25    11     9   ar
    26     8     6   ar
    27     3     2    1
    28     3     4    2
    29   256   254   ar
    30   256   257   ar
    31   254   251   ar
    32   257   255   ar
    33     2     1    1
    34     2     5    1
    35     9     7   ar
    36   174   175    2
    37   174   173    1
    38   179   177    1
    39   176   173    1
    40   176   177    1
    41   251   249   ar
    42   251   253   ar
    43   255   253   ar
    44   248   249    1
    45   248   245    1
    46     6     7   ar
    47     6     5    1
    48   249   250   ar
    49   253   252   ar
    50   172   173    1
    51   250   252   ar
    52   247   246    2
    53   177   178    1
    54   245   246    1
    55   245   244    1
    56   145   147   ar
    57   145   143   ar
    58   147   146   ar
    59   143   142   ar
    60   140   139    2
    61   244   236   am
    62   146   144   ar
    63   142   144   ar
    64   142   141    1
    65   189   187   ar
    66   189   190   ar
    67   138   139    1
    68   138   141    1
    69   138   137    1
    70   187   185   ar
    71   241   243   ar
    72   241   239   ar
    73    25    24   ar
    74   171   170    1
    75   180   181    1
    76    31    32    1
    77    31    28    1
    78   236   237    2
    79   236   235    1
    80   243   242   ar
    81   191   190    1
    82    33    32   ar
    83    33    35   ar
    84   190   188   ar
    85    23    24    1
    86    23    20    1
    87    24    26   ar
    88    32    34   ar
    89   185   184    1
    90   185   186   ar
    91   239   238    1
    92   239   240   ar
    93    29    28    1
    94    29    30    2
    95   184   181    1
    96    27    28    1
    97    27    21   am
    98   238   235    1
    99    35    36   ar
   100   235   234    1
   101   181   182    1
   102   242   240   ar
   103    19    20    1
   104    34    36   ar
   105    34    37   ar
   106   188   186   ar
   107    20    21    1
   108   170   169    1
   109   182   183    2
   110    21    22    2
   111    36    38   ar
   112   169   168    1
   113   119   118    2
   114    37    39   ar
   115   122   124   ar
   116   122   121   ar
   117   120   121    1
   118   120   117    1
   119    38    40   ar
   120   124   126   ar
   121   118   117    1
   122   118   128   am
   123   121   123   ar
   124   131   130    2
   125   164   165    1
   126    39    40   ar
   127   117   116    1
   128   168   165    1
   129   165   166    1
   130   130   129    1
   131   129   128    1
   132   129   132    1
   133   126   127    1
   134   126   125   ar
   135    41    42    1
   136   199   197   ar
   137   123   125   ar
   138    43    42    1
   139    43    44    2
   140    54    53    1
   141   224   223    1
   142    45    42    1
   143    45    46    1
   144   197   198   ar
   145   197   196    1
   146   133   132    1
   147   133   134    1
   148   166   167    2
   149   208   206   ar
   150   208   210   ar
   151   217   215    1
   152   196   193    1
   153   193   192    1
   154   193   194    1
   155   206   205   ar
   156   215   216    1
   157   215   212    1
   158    53    55    1
   159    53    50    1
   160    46    47    1
   161   134   135    2
   162   134   136   am
   163   223   222    1
   164   223   225    1
   165   210   209   ar
   166   200   194   am
   167   200   201    1
   168    49    50    1
   169   194   195    2
   170   205   204    1
   171   205   207   ar
   172   222   219    1
   173   204   201    1
   174    50    51    1
   175   211   212    1
   176   211   202   am
   177   212   213    1
   178   201   202    1
   179   218   219    1
   180   218   213   am
   181   108   107    2
   182   209   207   ar
   183    47    48    1
   184   202   203    2
   185   107   106    1
   186   219   220    1
   187   213   214    2
   188    52    51    2
   189    51    56   am
   190   111   113   ar
   191   111   110   ar
   192   106   109    1
   193   106   105    1
   194   221   220    2
   195   113   115   ar
   196   109   110    1
   197   110   112   ar
   198    56    62    1
   199    56    57    1
   200    62    61    1
   201   115   114   ar
   202    59    58    2
   203   112   114   ar
   204    57    58    1
   205    57    60    1
   206    61    60    1
   207   233   232    1
   208   232   231    1
   209   231   230    1
   210   230   227    1
   211    63    64    1
   212    66    65    2
   213   101   102    2
   214   101   100    1
   215    68    67    1
   216    68    70    1
   217   227   226    1
   218   227   228    1
   219   103   100    1
   220   103   104    1
   221   228   229    2
   222    64    67    1
   223    64    65    1
   224    67    69    1
   225    65    71   am
   226    82    79    1
   227   100    99    1
   228    78    79    1
   229    78    73   am
   230    79    80    1
   231    71    72    1
   232    71    77    1
   233    72    73    1
   234    72    75    1
   235    73    74    2
   236    94    93    2
   237    77    76    1
   238    80    83   am
   239    80    81    2
   240    93    92    1
   241    83    84    1
   242    75    76    1
   243    86    85    2
   244    98    97    1
   245    96    97    1
   246    96    95    1
   247    85    84    1
   248    84    87    1
   249    92    95    1
   250    92    91    1
   251    87    88    1
   252    88    90   am
   253    88    89    2
