@<TRIPOS>MOLECULE
tmp/4x6yA00.pdb
 212 207 0 0 0
SMALL
GASTEIGER

@<TRIPOS>ATOM
      1  N         -0.6420    2.3750   25.4680 N.3    38  PHE38      -0.1228
      2  CA        -1.8500    2.8020   24.7320 C.3    38  PHE38       0.1721
      3  C         -1.8560    4.3020   24.3820 C.2    38  PHE38       0.2437
      4  O         -1.5240    5.1370   25.2280 O.2    38  PHE38      -0.2733
      5  CB        -3.0990    2.4910   25.5700 C.3    38  PHE38       0.0547
      6  CG        -4.3980    2.9380   24.9410 C.ar   38  PHE38      -0.0202
      7  CD1       -4.8420    4.2420   25.0770 C.ar   38  PHE38      -0.0042
      8  CD2       -5.1980    2.0350   24.2530 C.ar   38  PHE38      -0.0042
      9  CE1       -6.0340    4.6500   24.5010 C.ar   38  PHE38      -0.0003
     10  CE2       -6.4010    2.4260   23.6920 C.ar   38  PHE38      -0.0003
     11  CZ        -6.8170    3.7370   23.8060 C.ar   38  PHE38      -0.0000
     12  N         -2.2460    4.6540   23.1360 N.am   39  PRO39      -0.2729
     13  CA        -2.4600    3.8180   21.9670 C.3    39  PRO39       0.1401
     14  C         -1.2740    3.9590   21.0150 C.2    39  PRO39       0.2269
     15  O         -1.2510    4.8340   20.1630 O.2    39  PRO39      -0.2865
     16  CB        -3.7380    4.3990   21.3680 C.3    39  PRO39       0.0296
     17  CG        -3.7270    5.8510   21.7600 C.3    39  PRO39       0.0237
     18  CD        -2.7260    6.0200   22.8830 C.3    39  PRO39       0.0939
     19  N          3.8350    2.5430   30.1210 N.3   106  ASP106     -0.1225
     20  CA         2.3770    2.6270   30.2320 C.3   106  ASP106      0.1805
     21  C          1.7820    1.2070   30.3970 C.2   106  ASP106      0.2597
     22  O          2.1980    0.4760   31.3040 O.2   106  ASP106     -0.2718
     23  CB         1.8280    3.3950   29.0300 C.3   106  ASP106      0.1424
     24  CG         0.3610    3.6890   29.1460 C.2   106  ASP106      0.3668
     25  OD1       -0.4350    3.0050   28.4520 O.co2 106  ASP106     -0.2456
     26  OD2        0.0060    4.5970   29.9400 O.co2 106  ASP106     -0.2456
     27  N          0.8290    0.7980   29.5570 N.am  107  TRP107     -0.1976
     28  CA         0.2860   -0.5510   29.6620 C.3   107  TRP107      0.1640
     29  C          1.3780   -1.6060   29.4910 C.2   107  TRP107      0.2290
     30  O          1.3190   -2.6650   30.1140 O.2   107  TRP107     -0.2864
     31  CB        -0.8560   -0.7830   28.6680 C.3   107  TRP107      0.0576
     32  CG        -2.1830   -0.4350   29.2430 C.ar  107  TRP107      0.0006
     33  CD1       -2.9920    0.6030   28.8710 C.ar  107  TRP107      0.0946
     34  CD2       -2.8670   -1.1130   30.3160 C.ar  107  TRP107      0.0152
     35  NE1       -4.1290    0.6080   29.6350 N.ar  107  TRP107     -0.2442
     36  CE2       -4.0850   -0.4350   30.5250 C.ar  107  TRP107      0.0810
     37  CE3       -2.5760   -2.2360   31.0990 C.ar  107  TRP107      0.0012
     38  CZ2       -5.0150   -0.8340   31.5010 C.ar  107  TRP107      0.0191
     39  CZ3       -3.4950   -2.6330   32.0820 C.ar  107  TRP107      0.0001
     40  CH2       -4.7020   -1.9340   32.2690 C.ar  107  TRP107      0.0015
     41  N          3.0000   -2.1700   32.7940 N.3   110  MET110     -0.1245
     42  CA         2.2040   -3.0850   33.6280 C.3   110  MET110      0.1570
     43  C          2.5370   -4.5210   33.2120 C.2   110  MET110      0.2261
     44  O          2.7180   -5.4010   34.0530 O.2   110  MET110     -0.2867
     45  CB         0.7110   -2.8110   33.4240 C.3   110  MET110      0.0387
     46  CG        -0.2240   -3.4720   34.4190 C.3   110  MET110      0.0595
     47  SD         0.0140   -2.8370   36.0830 S.3   110  MET110     -0.1393
     48  CE        -0.3340   -1.0970   35.8560 C.3   110  MET110      0.0692
     49  N          4.9170    3.6630   34.6480 N.3   131  THR131     -0.1204
     50  CA         4.0280    2.7550   35.3460 C.3   131  THR131      0.1979
     51  C          4.7180    2.1420   36.5610 C.2   131  THR131      0.2459
     52  O          5.7610    1.4740   36.4250 O.2   131  THR131     -0.2732
     53  CB         3.5830    1.6240   34.4110 C.3   131  THR131      0.1783
     54  OG1        3.2110    2.1790   33.1530 O.3   131  THR131     -0.2211
     55  CG2        2.4210    0.8790   34.9970 C.3   131  THR131      0.0376
     56  N          4.1390    2.3610   37.7560 N.am  132  PRO132     -0.2728
     57  CA         4.6610    1.7560   38.9690 C.3   132  PRO132      0.1401
     58  C          4.1590    0.3280   39.1450 C.2   132  PRO132      0.2269
     59  O          3.2090   -0.0840   38.4830 O.2   132  PRO132     -0.2865
     60  CB         4.0900    2.6520   40.0650 C.3   132  PRO132      0.0296
     61  CG         2.7690    3.0800   39.5210 C.3   132  PRO132      0.0237
     62  CD         2.9510    3.1960   38.0350 C.3   132  PRO132      0.0939
     63  N          2.4010   -1.7540   41.9220 N.3   134  ILE134     -0.1245
     64  CA         1.6980   -1.7530   43.2010 C.3   134  ILE134      0.1561
     65  C          1.1780   -3.1730   43.4240 C.2   134  ILE134      0.2260
     66  O          0.3520   -3.6510   42.6510 O.2   134  ILE134     -0.2867
     67  CB         0.4870   -0.7850   43.2040 C.3   134  ILE134      0.0252
     68  CG1        0.8440    0.5780   42.6040 C.3   134  ILE134      0.0019
     69  CG2       -0.0520   -0.6100   44.6200 C.3   134  ILE134      0.0019
     70  CD1        1.7830    1.4080   43.4520 C.3   134  ILE134      0.0001
     71  N         -9.2840    8.8960   36.7550 N.3   152  PHE152     -0.1241
     72  CA        -9.5870    7.7590   35.8780 C.3   152  PHE152      0.1605
     73  C        -11.0710    7.6880   35.4730 C.2   152  PHE152      0.2264
     74  O        -11.6300    6.5880   35.3630 O.2   152  PHE152     -0.2867
     75  CB        -9.2080    6.4350   36.5620 C.3   152  PHE152      0.0534
     76  CG        -7.8070    6.3960   37.1170 C.ar  152  PHE152     -0.0203
     77  CD1       -6.7040    6.5730   36.2900 C.ar  152  PHE152     -0.0042
     78  CD2       -7.5900    6.1400   38.4650 C.ar  152  PHE152     -0.0042
     79  CE1       -5.4150    6.5110   36.8040 C.ar  152  PHE152     -0.0003
     80  CE2       -6.3070    6.0790   38.9810 C.ar  152  PHE152     -0.0003
     81  CZ        -5.2170    6.2650   38.1500 C.ar  152  PHE152     -0.0000
     82  N        -12.0730    8.7280   32.4780 N.3   154  TYR154     -0.1227
     83  CA       -11.9640    8.2670   31.0950 C.3   154  TYR154      0.1736
     84  C        -11.9310    6.7390   31.0150 C.2   154  TYR154      0.2595
     85  O        -12.5040    6.1690   30.0920 O.2   154  TYR154     -0.2718
     86  CB       -10.7490    8.8740   30.3750 C.3   154  TYR154      0.0548
     87  CG        -9.4160    8.3580   30.8500 C.ar  154  TYR154     -0.0200
     88  CD1       -8.8160    7.2660   30.2330 C.ar  154  TYR154     -0.0009
     89  CD2       -8.7580    8.9490   31.9290 C.ar  154  TYR154     -0.0009
     90  CE1       -7.6000    6.7780   30.6710 C.ar  154  TYR154      0.0417
     91  CE2       -7.5370    8.4670   32.3740 C.ar  154  TYR154      0.0417
     92  CZ        -6.9670    7.3830   31.7350 C.ar  154  TYR154      0.1957
     93  OH        -5.7650    6.8940   32.1620 O.3   154  TYR154     -0.2866
     94  N        -11.2770    6.0850   31.9780 N.am  155  GLN155     -0.1979
     95  CA       -11.2480    4.6200   32.0170 C.3   155  GLN155      0.1601
     96  C        -12.6440    4.0120   32.0750 C.2   155  GLN155      0.2287
     97  O        -12.8770    2.9710   31.4810 O.2   155  GLN155     -0.2864
     98  CB       -10.3920    4.0960   33.1760 C.3   155  GLN155      0.0394
     99  CG        -8.8960    4.2220   32.9320 C.3   155  GLN155      0.0908
    100  CD        -8.0460    3.6280   34.0400 C.2   155  GLN155      0.2608
    101  OE1       -7.1790    4.2970   34.6000 O.2   155  GLN155     -0.2717
    102  NE2       -8.2810    2.3650   34.3550 N.am  155  GLN155     -0.0878
    103  N        -13.9680    4.1190   28.6860 N.3   158  PHE158     -0.1241
    104  CA       -13.3690    3.0750   27.8460 C.3   158  PHE158      0.1605
    105  C        -13.9680    1.6720   28.0340 C.2   158  PHE158      0.2264
    106  O        -13.6390    0.7670   27.2750 O.2   158  PHE158     -0.2867
    107  CB       -11.8580    2.9940   28.1020 C.3   158  PHE158      0.0534
    108  CG       -11.0600    4.1730   27.5800 C.ar  158  PHE158     -0.0203
    109  CD1      -11.6270    5.1520   26.7770 C.ar  158  PHE158     -0.0042
    110  CD2       -9.6960    4.2520   27.8470 C.ar  158  PHE158     -0.0042
    111  CE1      -10.8600    6.1990   26.2860 C.ar  158  PHE158     -0.0003
    112  CE2       -8.9250    5.2870   27.3480 C.ar  158  PHE158     -0.0003
    113  CZ        -9.5130    6.2690   26.5710 C.ar  158  PHE158     -0.0000
    114  N        -12.5440    7.4690   18.7480 N.3   168  LEU168     -0.1245
    115  CA       -11.1150    7.4230   18.4530 C.3   168  LEU168      0.1561
    116  C        -10.8290    7.1290   16.9750 C.2   168  LEU168      0.2260
    117  O         -9.8630    7.6570   16.4160 O.2   168  LEU168     -0.2867
    118  CB       -10.4180    6.3870   19.3460 C.3   168  LEU168      0.0270
    119  CG       -10.4660    6.7190   20.8390 C.3   168  LEU168      0.0019
    120  CD1      -10.1090    5.4920   21.6510 C.3   168  LEU168      0.0001
    121  CD2       -9.5430    7.8840   21.1680 C.3   168  LEU168      0.0001
    122  N         -3.6820   13.5750   21.2580 N.3   179  LEU179     -0.1245
    123  CA        -3.0600   12.7980   22.3330 C.3   179  LEU179      0.1561
    124  C         -1.5670   13.0580   22.4790 C.2   179  LEU179      0.2260
    125  O         -1.0910   13.3070   23.5760 O.2   179  LEU179     -0.2867
    126  CB        -3.2940   11.3040   22.1000 C.3   179  LEU179      0.0270
    127  CG        -4.7390   10.8730   22.3030 C.3   179  LEU179      0.0019
    128  CD1       -4.9530    9.4650   21.7680 C.3   179  LEU179      0.0001
    129  CD2       -5.1130   10.9720   23.7760 C.3   179  LEU179      0.0001
    130  N         -8.9260   14.5490   30.9810 N.3   190  MET190     -0.1245
    131  CA        -9.3540   13.2610   31.5320 C.3   190  MET190      0.1570
    132  C         -9.9110   13.4380   32.9530 C.2   190  MET190      0.2261
    133  O         -9.2340   13.1150   33.9380 O.2   190  MET190     -0.2867
    134  CB        -8.1820   12.2680   31.5410 C.3   190  MET190      0.0387
    135  CG        -8.0010   11.4860   30.2480 C.3   190  MET190      0.0595
    136  SD        -7.3690   12.4920   28.9030 S.3   190  MET190     -0.1393
    137  CE        -5.6330   12.5770   29.3490 C.3   190  MET190      0.0692
    138  N        -14.0540   12.0210   24.8480 N.3   199  LEU199     -0.1245
    139  CA       -12.7180   12.5480   25.1280 C.3   199  LEU199      0.1561
    140  C        -12.4250   13.8590   24.3860 C.2   199  LEU199      0.2260
    141  O        -11.7180   14.7220   24.8930 O.2   199  LEU199     -0.2867
    142  CB       -11.6850   11.4930   24.7230 C.3   199  LEU199      0.0270
    143  CG       -10.5170   11.1160   25.6320 C.3   199  LEU199      0.0019
    144  CD1      -10.7430   11.4250   27.1050 C.3   199  LEU199      0.0001
    145  CD2      -10.2260    9.6330   25.4310 C.3   199  LEU199      0.0001
    146  N         -7.9930   -2.2410   28.7470 N.3   237  TYR237     -0.1241
    147  CA        -8.6540   -1.6120   29.8970 C.3   237  TYR237      0.1605
    148  C         -9.8260   -2.3980   30.4910 C.2   237  TYR237      0.2264
    149  O        -10.3170   -2.0580   31.5730 O.2   237  TYR237     -0.2867
    150  CB        -9.2340   -0.2500   29.4920 C.3   237  TYR237      0.0534
    151  CG        -8.2230    0.8220   29.2010 C.ar  237  TYR237     -0.0201
    152  CD1       -7.8400    1.7150   30.1860 C.ar  237  TYR237     -0.0009
    153  CD2       -7.6760    0.9700   27.9340 C.ar  237  TYR237     -0.0009
    154  CE1       -6.9320    2.7280   29.9200 C.ar  237  TYR237      0.0417
    155  CE2       -6.7620    1.9750   27.6640 C.ar  237  TYR237      0.0417
    156  CZ        -6.4000    2.8520   28.6600 C.ar  237  TYR237      0.1957
    157  OH        -5.4880    3.8450   28.4180 O.3   237  TYR237     -0.2866
    158  N        -10.1380   -5.4160   34.2630 N.3   240  MET240     -0.1245
    159  CA        -9.5920   -4.9910   35.5540 C.3   240  MET240      0.1570
    160  C         -9.8310   -6.0470   36.6390 C.2   240  MET240      0.2261
    161  O         -8.9200   -6.3520   37.4070 O.2   240  MET240     -0.2867
    162  CB       -10.1270   -3.6130   35.9820 C.3   240  MET240      0.0387
    163  CG        -9.7000   -2.4390   35.0980 C.3   240  MET240      0.0595
    164  SD        -7.9110   -2.1840   34.8160 S.3   240  MET240     -0.1393
    165  CE        -7.9580   -0.8200   33.6640 C.3   240  MET240      0.0692
    166  N         -1.4280   11.1900   34.5000 N.3   269  VAL269     -0.1231
    167  CA        -2.1220    9.9740   34.9080 C.3   269  VAL269      0.1692
    168  C         -1.2000    9.0660   35.7450 C.2   269  VAL269      0.2591
    169  O         -1.5700    8.6490   36.8380 O.2   269  VAL269     -0.2718
    170  CB        -2.8060    9.2380   33.7290 C.3   269  VAL269      0.0266
    171  CG1       -1.8140    8.7170   32.7020 C.3   269  VAL269      0.0020
    172  CG2       -3.6480    8.0910   34.2570 C.3   269  VAL269      0.0020
    173  N         -0.0060    8.7730   35.2500 N.am  270  LEU270     -0.1980
    174  CA         0.9430    7.9600   36.0080 C.3   270  LEU270      0.1596
    175  C          1.9350    8.8750   36.7190 C.2   270  LEU270      0.2287
    176  O          3.0590    9.1070   36.2610 O.2   270  LEU270     -0.2864
    177  CB         1.6600    6.9780   35.1100 C.3   270  LEU270      0.0297
    178  CG         0.7680    5.9570   34.4120 C.3   270  LEU270      0.0022
    179  CD1        1.6280    5.1150   33.4730 C.3   270  LEU270      0.0001
    180  CD2        0.0210    5.0890   35.4110 C.3   270  LEU270      0.0001
    181  N          2.9340    7.9240   42.7530 N.3   274  MET274     -0.1245
    182  CA         2.3540    6.5670   42.7100 C.3   274  MET274      0.1570
    183  C          3.3970    5.4490   42.8870 C.2   274  MET274      0.2261
    184  O          3.0490    4.3430   43.3100 O.2   274  MET274     -0.2867
    185  CB         1.6280    6.3020   41.3870 C.3   274  MET274      0.0387
    186  CG         0.2790    6.9720   41.2140 C.3   274  MET274      0.0595
    187  SD        -0.4070    6.6160   39.5760 S.3   274  MET274     -0.1393
    188  CE        -0.5670    4.8300   39.5870 C.3   274  MET274      0.0692
    189  N          3.4860   12.4590   29.6330 N.3   295  HIS295     -0.1226
    190  CA         3.1980   11.0350   29.5350 C.3   295  HIS295      0.1752
    191  C          3.9430   10.3010   28.4000 C.2   295  HIS295      0.2596
    192  O          4.3150    9.1280   28.5530 O.2   295  HIS295     -0.2718
    193  CB         1.7030   10.7880   29.3880 C.3   295  HIS295      0.0759
    194  CG         1.3850    9.3440   29.2610 C.ar  295  HIS295      0.0818
    195  ND1        1.5270    8.4740   30.3150 N.ar  295  HIS295     -0.2268
    196  CD2        1.0450    8.5920   28.1910 C.ar  295  HIS295      0.1154
    197  CE1        1.2470    7.2500   29.9110 C.ar  295  HIS295      0.1986
    198  NE2        0.9420    7.2940   28.6290 N.ar  295  HIS295     -0.2212
    199  N          4.1690   10.9890   27.2800 N.am  296  TRP296     -0.1976
    200  CA         4.7260   10.3520   26.0750 C.3   296  TRP296      0.1640
    201  C          6.2550   10.3630   26.1350 C.2   296  TRP296      0.2290
    202  O          6.9440   10.9470   25.2960 O.2   296  TRP296     -0.2864
    203  CB         4.1630   11.0330   24.8150 C.3   296  TRP296      0.0576
    204  CG         2.6720   11.2030   24.9160 C.ar  296  TRP296      0.0006
    205  CD1        1.9940   12.3640   25.1680 C.ar  296  TRP296      0.0946
    206  CD2        1.6770   10.1720   24.8280 C.ar  296  TRP296      0.0152
    207  NE1        0.6430   12.1200   25.2220 N.ar  296  TRP296     -0.2442
    208  CE2        0.4220   10.7840   25.0200 C.ar  296  TRP296      0.0810
    209  CE3        1.7240    8.7950   24.5720 C.ar  296  TRP296      0.0012
    210  CZ2       -0.7820   10.0620   24.9880 C.ar  296  TRP296      0.0191
    211  CZ3        0.5210    8.0760   24.5380 C.ar  296  TRP296      0.0001
    212  CH2       -0.7090    8.7130   24.7510 C.ar  296  TRP296      0.0015
@<TRIPOS>BOND
     1   117   116    2
     2   116   115    1
     3   115   114    1
     4   115   118    1
     5   118   119    1
     6    15    14    2
     7   119   121    1
     8   119   120    1
     9    14    13    1
    10   122   123    1
    11    16    17    1
    12    16    13    1
    13    17    18    1
    14   128   127    1
    15    13    12    1
    16   126   127    1
    17   126   123    1
    18   127   129    1
    19   123   124    1
    20   124   125    2
    21    18    12    1
    22    12     3   am
    23    10    11   ar
    24    10     8   ar
    25    11     9   ar
    26     8     6   ar
    27     3     2    1
    28     3     4    2
    29   140   141    2
    30   140   139    1
    31     9     7   ar
    32   211   209   ar
    33   211   212   ar
    34   209   206   ar
    35   142   139    1
    36   142   143    1
    37     2     1    1
    38     2     5    1
    39   212   210   ar
    40   203   204    1
    41   203   200    1
    42   206   204   ar
    43   206   208   ar
    44   138   139    1
    45   204   205   ar
    46     6     7   ar
    47     6     5    1
    48   210   208   ar
    49   208   207   ar
    50   205   207   ar
    51   202   201    2
    52   145   143    1
    53   143   144    1
    54   200   201    1
    55   200   199    1
    56   111   113   ar
    57   111   109   ar
    58   113   112   ar
    59   109   108   ar
    60   106   105    2
    61   199   191   am
    62   112   110   ar
    63   108   110   ar
    64   108   107    1
    65   155   153   ar
    66   155   156   ar
    67   104   105    1
    68   104   107    1
    69   104   103    1
    70   153   151   ar
    71   196   198   ar
    72   196   194   ar
    73   191   192    2
    74   191   190    1
    75   157   156    1
    76    25    24   ar
    77   198   197   ar
    78   156   154   ar
    79    31    32    1
    80    31    28    1
    81   146   147    1
    82    33    32   ar
    83    33    35   ar
    84   136   137    1
    85   136   135    1
    86    23    24    1
    87    23    20    1
    88    24    26   ar
    89   151   150    1
    90   151   152   ar
    91    32    34   ar
    92   194   193    1
    93   194   195   ar
    94   193   190    1
    95    29    28    1
    96    29    30    2
    97   150   147    1
    98   190   189    1
    99    27    28    1
   100    27    21   am
   101    35    36   ar
   102   147   148    1
   103   197   195   ar
   104   154   152   ar
   105    85    84    2
   106    19    20    1
   107    20    21    1
   108    88    90   ar
   109    88    87   ar
   110   135   134    1
   111    34    36   ar
   112    34    37   ar
   113    86    87    1
   114    86    83    1
   115    21    22    2
   116   148   149    2
   117    36    38   ar
   118    90    92   ar
   119    87    89   ar
   120   130   131    1
   121    84    83    1
   122    84    94   am
   123    83    82    1
   124    37    39   ar
   125    97    96    2
   126    38    40   ar
   127   131   134    1
   128   131   132    1
   129    92    93    1
   130    92    91   ar
   131    89    91   ar
   132    94    95    1
   133    95    96    1
   134    95    98    1
   135    39    40   ar
   136   171   170    1
   137    41    42    1
   138    99    98    1
   139    99   100    1
   140   132   133    2
   141    54    53    1
   142    43    42    1
   143    43    44    2
   144    45    42    1
   145    45    46    1
   146   179   178    1
   147   165   164    1
   148   170   172    1
   149   170   167    1
   150   100   102   am
   151   100   101    2
   152   158   159    1
   153    53    55    1
   154    53    50    1
   155   178   177    1
   156   178   180    1
   157    46    47    1
   158   166   167    1
   159    49    50    1
   160   164   163    1
   161   167   168    1
   162   163   162    1
   163   177   174    1
   164   173   168   am
   165   173   174    1
   166    50    51    1
   167    74    73    2
   168    73    72    1
   169   159   162    1
   170   159   160    1
   171   168   169    2
   172    48    47    1
   173    72    75    1
   174    72    71    1
   175   174   175    1
   176   176   175    2
   177    77    79   ar
   178    77    76   ar
   179    52    51    2
   180    51    56   am
   181    75    76    1
   182   160   161    2
   183    79    81   ar
   184    76    78   ar
   185    56    62    1
   186    56    57    1
   187    62    61    1
   188    81    80   ar
   189    78    80   ar
   190    59    58    2
   191    57    58    1
   192    57    60    1
   193    61    60    1
   194   187   188    1
   195   187   186    1
   196   186   185    1
   197   185   182    1
   198    63    64    1
   199    68    67    1
   200    68    70    1
   201    66    65    2
   202   182   181    1
   203   182   183    1
   204   183   184    2
   205    64    67    1
   206    64    65    1
   207    67    69    1
