@<TRIPOS>MOLECULE
tmp/4x6zN00.pdb
 72 68 0 0 0
SMALL
GASTEIGER

@<TRIPOS>ATOM
      1  N         13.2310   15.4370   10.7370 N.3    46  ALA46      -0.1231
      2  CA        13.8110   14.1090   11.0060 C.3    46  ALA46       0.1694
      3  C         14.8370   14.2190   12.1360 C.2    46  ALA46       0.2592
      4  O         15.3100   15.3160   12.4270 O.2    46  ALA46      -0.2718
      5  CB        14.4410   13.5910    9.7390 C.3    46  ALA46       0.0304
      6  N         15.2120   13.1090   12.7530 N.am   47  GLY47      -0.1957
      7  CA        15.9860   13.1480   14.0160 C.3    47  GLY47       0.1869
      8  C         15.0590   13.5610   15.1470 C.2    47  GLY47       0.2309
      9  O         13.9250   13.1220   15.2040 O.2    47  GLY47      -0.2863
     10  N         19.5820   16.9420   17.6810 N.3    96  SER96      -0.1202
     11  CA        19.4810   15.9180   16.6590 C.3    96  SER96       0.2020
     12  C         18.5290   16.3700   15.5980 C.2    96  SER96       0.2619
     13  O         17.3180   16.4300   15.8400 O.2    96  SER96      -0.2717
     14  CB        18.9630   14.6200   17.2510 C.3    96  SER96       0.2103
     15  OG        18.9230   13.6060   16.2560 O.3    96  SER96      -0.2182
     16  N         19.0470   16.7240   14.4320 N.am   97  MET97      -0.1965
     17  CA        18.1450   17.0430   13.3520 C.3    97  MET97       0.1736
     18  C         18.7730   16.8660   12.0130 C.2    97  MET97       0.2617
     19  O         19.9670   17.0610   11.8480 O.2    97  MET97      -0.2715
     20  CB        17.5280   18.4370   13.4850 C.3    97  MET97       0.0427
     21  CG        18.4310   19.4830   14.0770 C.3    97  MET97       0.0599
     22  SD        17.6150   21.1020   14.3120 S.3    97  MET97      -0.1393
     23  CE        17.4400   21.6060   12.5920 C.3    97  MET97       0.0692
     24  N         17.9090   16.4640   11.0810 N.am   98  GLY98      -0.1955
     25  CA        18.1900   16.4200    9.6500 C.3    98  GLY98       0.1869
     26  C         17.0090   16.9530    8.8190 C.2    98  GLY98       0.2309
     27  O         15.9290   16.3330    8.7010 O.2    98  GLY98      -0.2863
     28  N         19.9660   21.0650    2.5650 N.3   114  TYR114     -0.1241
     29  CA        19.9490   20.0660    3.6450 C.3   114  TYR114      0.1605
     30  C         20.7740   20.6030    4.8420 C.2   114  TYR114      0.2264
     31  O         21.9180   21.0370    4.6690 O.2   114  TYR114     -0.2867
     32  CB        20.5300   18.7380    3.1450 C.3   114  TYR114      0.0534
     33  CG        20.8940   17.7740    4.2530 C.ar  114  TYR114     -0.0201
     34  CD1       19.9460   16.8870    4.7690 C.ar  114  TYR114     -0.0009
     35  CD2       22.1860   17.7310    4.7660 C.ar  114  TYR114     -0.0009
     36  CE1       20.2570   15.9850    5.7820 C.ar  114  TYR114      0.0417
     37  CE2       22.4990   16.8500    5.7920 C.ar  114  TYR114      0.0417
     38  CZ        21.5220   15.9700    6.3050 C.ar  114  TYR114      0.1957
     39  OH        21.8400   15.1010    7.3380 O.3   114  TYR114     -0.2866
     40  N         21.9180   19.7430    9.0180 N.3   116  ASP116     -0.1225
     41  CA        21.8350   18.8080   10.1160 C.3   116  ASP116      0.1805
     42  C         22.6120   19.3250   11.2970 C.2   116  ASP116      0.2598
     43  O         23.3140   20.3260   11.1980 O.2   116  ASP116     -0.2718
     44  CB        22.2840   17.3720    9.7110 C.3   116  ASP116      0.1424
     45  CG        23.7990   17.2480    9.5140 C.2   116  ASP116      0.3668
     46  OD1       24.4770   18.2370    9.8220 O.co2 116  ASP116     -0.2456
     47  OD2       24.3210   16.1700    9.0700 O.co2 116  ASP116     -0.2456
     48  N         22.4660   18.6160   12.4150 N.am  117  SER117     -0.1938
     49  CA        23.0330   19.0250   13.6760 C.3   117  SER117      0.2055
     50  C         24.5310   18.7930   13.7860 C.2   117  SER117      0.2643
     51  O         25.1340   19.2640   14.7240 O.2   117  SER117     -0.2714
     52  CB        22.2730   18.3740   14.8510 C.3   117  SER117      0.2130
     53  OG        22.0570   16.9730   14.7160 O.3   117  SER117     -0.2179
     54  N         25.1190   18.0730   12.8380 N.am  118  ASP118     -0.1971
     55  CA        26.5880   18.0020   12.6790 C.3   118  ASP118      0.1709
     56  C         27.1880   19.4020   12.4150 C.2   118  ASP118      0.2293
     57  O         28.3700   19.6210   12.6070 O.2   118  ASP118     -0.2864
     58  CB        26.9880   17.1000   11.4640 C.3   118  ASP118      0.1436
     59  CG        27.0660   15.5740   11.7870 C.2   118  ASP118      0.3671
     60  OD1       27.2520   15.2530   12.9960 O.co2 118  ASP118     -0.2456
     61  OD2       26.9640   14.7180   10.8090 O.co2 118  ASP118     -0.2456
     62  N         15.8240   11.8200    3.7400 N.3   129  VAL129     -0.1231
     63  CA        16.3480   11.7170    5.0640 C.3   129  VAL129      0.1692
     64  C         15.4380   10.8950    5.9160 C.2   129  VAL129      0.2592
     65  O         14.2270   11.0580    5.8580 O.2   129  VAL129     -0.2718
     66  CB        16.4490   13.0970    5.7060 C.3   129  VAL129      0.0266
     67  CG1       16.9870   12.9860    7.1220 C.3   129  VAL129      0.0020
     68  CG2       17.3470   13.9820    4.8620 C.3   129  VAL129      0.0020
     69  N         16.0440   10.0200    6.7130 N.am  130  GLY130     -0.1957
     70  CA        15.3350    9.2340    7.7070 C.3   130  GLY130      0.1869
     71  C         15.6240    7.7630    7.5210 C.2   130  GLY130      0.2309
     72  O         16.2800    7.3930    6.5600 O.2   130  GLY130     -0.2863
@<TRIPOS>BOND
     1    28    29    1
     2    32    29    1
     3    32    33    1
     4    29    30    1
     5    62    63    1
     6    33    35   ar
     7    33    34   ar
     8    31    30    2
     9    35    37   ar
    10    34    36   ar
    11    68    66    1
    12    63    66    1
    13    63    64    1
    14    66    67    1
    15    36    38   ar
    16    37    38   ar
    17    65    64    2
    18    64    69   am
    19    38    39    1
    20    72    71    2
    21    69    70    1
    22    71    70    1
    23    27    26    2
    24    26    25    1
    25    40    41    1
    26    47    45   ar
    27    45    44    1
    28    45    46   ar
    29    25    24    1
    30    44    41    1
    31     5     2    1
    32    41    42    1
    33     1     2    1
    34    61    59   ar
    35     2     3    1
    36    24    18   am
    37    43    42    2
    38    42    48   am
    39    58    59    1
    40    58    55    1
    41    59    60   ar
    42    19    18    2
    43    18    17    1
    44     3     4    2
    45     3     6   am
    46    48    49    1
    47    56    57    2
    48    56    55    1
    49    23    22    1
    50    55    54    1
    51     6     7    1
    52    54    50   am
    53    17    20    1
    54    17    16    1
    55    20    21    1
    56    49    50    1
    57    49    52    1
    58    50    51    2
    59     7     8    1
    60    21    22    1
    61    16    12   am
    62    53    52    1
    63     8     9    2
    64    12    13    2
    65    12    11    1
    66    15    14    1
    67    11    14    1
    68    11    10    1
