@<TRIPOS>MOLECULE
tmp/4x7gA00.pdb
 165 159 0 0 0
SMALL
GASTEIGER

@<TRIPOS>ATOM
      1  N         29.8600    1.4970    2.4120 N.3     6  LEU6       -0.1231
      2  CA        31.1420    2.1350    2.5990 C.3     6  LEU6        0.1693
      3  C         32.1050    1.0490    3.0350 C.2     6  LEU6        0.2593
      4  O         31.8650    0.4070    4.0740 O.2     6  LEU6       -0.2718
      5  CB        31.0560    3.2870    3.6160 C.3     6  LEU6        0.0284
      6  CG        29.9860    4.3510    3.2940 C.3     6  LEU6        0.0019
      7  CD1       29.9190    5.3360    4.4910 C.3     6  LEU6        0.0001
      8  CD2       30.2850    5.0400    2.0070 C.3     6  LEU6        0.0001
      9  N         33.1700    0.8060    2.2620 N.am    7  GLY7       -0.1942
     10  CA        33.9750   -0.3730    2.4240 C.3     7  GLY7        0.2014
     11  C         35.3330   -0.1520    2.9930 C.2     7  GLY7        0.2639
     12  O         35.5660    0.8450    3.6800 O.2     7  GLY7       -0.2714
     13  N         36.1980   -1.1140    2.7590 N.am    8  GLY8       -0.1939
     14  CA        37.5650   -1.0760    3.2400 C.3     8  GLY8        0.2014
     15  C         37.9500   -2.0830    4.2560 C.2     8  GLY8        0.2639
     16  O         39.0820   -2.0760    4.7460 O.2     8  GLY8       -0.2714
     17  N         37.0410   -2.9300    4.7220 N.am    9  THR9       -0.1950
     18  CA        37.2450   -4.0030    5.6400 C.3     9  THR9        0.1897
     19  C         36.9380   -5.3280    5.1220 C.2     9  THR9        0.2313
     20  O         36.1790   -5.4880    4.1180 O.2     9  THR9       -0.2863
     21  CB        36.4560   -3.7650    6.9410 C.3     9  THR9        0.1794
     22  OG1       35.0730   -3.7990    6.5940 O.3     9  THR9       -0.2208
     23  CG2       36.7640   -2.4610    7.6310 C.3     9  THR9        0.0378
     24  N         31.8300    1.4260   -2.0120 N.3    29  SER29      -0.1202
     25  CA        32.6590    2.5980   -2.0550 C.3    29  SER29       0.2020
     26  C         34.0050    2.3740   -1.3820 C.2    29  SER29       0.2619
     27  O         34.0460    2.0730   -0.1620 O.2    29  SER29      -0.2717
     28  CB        31.9670    3.7510   -1.4030 C.3    29  SER29       0.2103
     29  OG        32.7330    4.9550   -1.4550 O.3    29  SER29      -0.2182
     30  N         35.0950    2.6590   -2.1100 N.am   30  TYR30      -0.1961
     31  CA        36.4350    2.8190   -1.5430 C.3    30  TYR30       0.1771
     32  C         36.7980    4.3100   -1.5000 C.2    30  TYR30       0.2619
     33  O         36.4360    5.0610   -2.3670 O.2    30  TYR30      -0.2715
     34  CB        37.4460    2.1270   -2.4240 C.3    30  TYR30       0.0574
     35  CG        37.5070    0.6320   -2.3940 C.ar   30  TYR30      -0.0198
     36  CD1       37.8740   -0.0960   -1.2400 C.ar   30  TYR30      -0.0009
     37  CD2       37.3110   -0.1720   -3.5590 C.ar   30  TYR30      -0.0009
     38  CE1       38.0170   -1.4700   -1.2350 C.ar   30  TYR30       0.0417
     39  CE2       37.4360   -1.5340   -3.5480 C.ar   30  TYR30       0.0417
     40  CZ        37.8820   -2.1620   -2.4170 C.ar   30  TYR30       0.1957
     41  OH        38.1390   -3.5550   -2.3780 O.3    30  TYR30      -0.2866
     42  N         37.6180    4.6290   -0.5290 N.am   31  ALA31      -0.1977
     43  CA        38.1980    5.9710   -0.4490 C.3    31  ALA31       0.1597
     44  C         39.2330    6.2430   -1.5430 C.2    31  ALA31       0.2287
     45  O         39.4350    7.4270   -1.8760 O.2    31  ALA31      -0.2864
     46  CB        38.9420    6.0940    0.8790 C.3    31  ALA31       0.0319
     47  N         42.4830    5.0840   -0.9820 N.3    33  ARG33      -0.1245
     48  CA        43.7330    5.2250   -0.1970 C.3    33  ARG33       0.1563
     49  C         44.8290    4.3600   -0.7750 C.2    33  ARG33       0.2260
     50  O         46.0460    4.6380   -0.4720 O.2    33  ARG33      -0.2867
     51  CB        43.4510    4.8810    1.2690 C.3    33  ARG33       0.0307
     52  CG        44.4580    5.4420    2.2670 C.3    33  ARG33       0.0489
     53  CD        44.3980    6.9810    2.4080 C.3    33  ARG33       0.2205
     54  NE        43.1610    7.4670    3.0150 N.pl3  33  ARG33      -0.0865
     55  CZ        42.1740    8.1030    2.3640 C.cat  33  ARG33       0.5346
     56  NH1       42.2830    8.4500    1.0740 N.pl3  33  ARG33       0.1354
     57  NH2       41.0920    8.4160    3.0370 N.pl3  33  ARG33       0.1354
     58  N         36.9880    7.0340   -4.3600 N.3    47  GLY47      -0.1210
     59  CA        37.2780    8.4550   -4.1010 C.3    47  GLY47       0.1956
     60  C         36.4810    8.9600   -2.9670 C.2    47  GLY47       0.2612
     61  O         35.4520    8.4040   -2.5750 O.2    47  GLY47      -0.2717
     62  N         36.9090   10.0770   -2.3720 N.am   48  GLY48      -0.1942
     63  CA        36.0750   10.7160   -1.3860 C.3    48  GLY48       0.2014
     64  C         34.7790   11.3090   -1.9480 C.2    48  GLY48       0.2639
     65  O         34.6100   11.3370   -3.1350 O.2    48  GLY48      -0.2714
     66  N         33.8750   11.6800   -1.0730 N.am   49  PHE49      -0.1959
     67  CA        32.6400   12.3200   -1.4820 C.3    49  PHE49       0.1771
     68  C         32.7350   13.8780   -1.4740 C.2    49  PHE49       0.2620
     69  O         31.8100   14.5100   -2.0270 O.2    49  PHE49      -0.2715
     70  CB        31.4590   11.9100   -0.5850 C.3    49  PHE49       0.0574
     71  CG        31.1850   10.4310   -0.6210 C.ar   49  PHE49      -0.0200
     72  CD1       30.3680    9.9150   -1.6310 C.ar   49  PHE49      -0.0042
     73  CD2       31.7200    9.5780    0.2950 C.ar   49  PHE49      -0.0042
     74  CE1       30.1060    8.5490   -1.6490 C.ar   49  PHE49      -0.0003
     75  CE2       31.4320    8.2210    0.2880 C.ar   49  PHE49      -0.0003
     76  CZ        30.6490    7.7160   -0.6780 C.ar   49  PHE49      -0.0000
     77  N         33.7390   14.4500   -0.8400 N.am   50  GLY50      -0.1940
     78  CA        33.6880   15.9620   -0.6070 C.3    50  GLY50       0.2014
     79  C         33.0240   16.3210    0.6650 C.2    50  GLY50       0.2639
     80  O         32.1360   17.1840    0.7260 O.2    50  GLY50      -0.2714
     81  N         33.3660   15.6230    1.7360 N.am   51  GLY51      -0.1954
     82  CA        32.8670   15.9170    3.0290 C.3    51  GLY51       0.1869
     83  C         31.3540   15.5800    3.2020 C.2    51  GLY51       0.2309
     84  O         30.7190   14.8180    2.3930 O.2    51  GLY51      -0.2863
     85  N         28.6560   14.0520    0.4300 N.3    55  LEU55      -0.1245
     86  CA        28.0130   12.7540    0.5990 C.3    55  LEU55       0.1561
     87  C         26.4840   12.9650    0.5510 C.2    55  LEU55       0.2260
     88  O         25.7370   12.1880   -0.0080 O.2    55  LEU55      -0.2867
     89  CB        28.4240   12.1500    1.9290 C.3    55  LEU55       0.0270
     90  CG        27.7140   10.7950    2.2560 C.3    55  LEU55       0.0019
     91  CD1       27.8950    9.7910    1.1360 C.3    55  LEU55       0.0001
     92  CD2       28.3050   10.2560    3.5740 C.3    55  LEU55       0.0001
     93  N         33.1740    0.6840    7.0240 N.3    71  THR71      -0.1203
     94  CA        34.5760    1.1740    7.0670 C.3    71  THR71       0.1994
     95  C         35.2720    0.6610    8.3490 C.2    71  THR71       0.2617
     96  O         34.6960    0.2270    9.3080 O.2    71  THR71      -0.2717
     97  CB        34.6250    2.6830    6.9970 C.3    71  THR71       0.1784
     98  OG1       34.0860    3.2980    8.2060 O.3    71  THR71      -0.2211
     99  CG2       33.9620    3.2550    5.7670 C.3    71  THR71       0.0376
    100  N         36.5690    0.8380    8.3120 N.am   72  HIS72      -0.1975
    101  CA        37.3640    0.5160    9.4500 C.3    72  HIS72       0.1656
    102  C         36.8960    1.3010   10.6640 C.2    72  HIS72       0.2291
    103  O         36.6240    2.5030   10.5540 O.2    72  HIS72      -0.2864
    104  CB        38.8250    0.8210    9.1480 C.3    72  HIS72       0.0771
    105  CG        39.7900    0.1270   10.0440 C.ar   72  HIS72       0.0820
    106  ND1       40.0810    0.5570   11.3300 N.ar   72  HIS72      -0.2267
    107  CD2       40.4180   -1.0710    9.8840 C.ar   72  HIS72       0.1154
    108  CE1       40.9310   -0.3130   11.8730 C.ar   72  HIS72       0.1986
    109  NE2       41.1680   -1.2860   11.0130 N.ar   72  HIS72      -0.2212
    110  N         38.6570    2.6790   12.8010 N.3    74  PHE74      -0.1227
    111  CA        39.5200    3.8390   12.9550 C.3    74  PHE74       0.1736
    112  C         39.3880    4.8440   11.8730 C.2    74  PHE74       0.2595
    113  O         39.9560    5.9710   11.9340 O.2    74  PHE74      -0.2718
    114  CB        40.9950    3.4130   13.1410 C.3    74  PHE74       0.0547
    115  CG        41.2600    2.8870   14.5200 C.ar   74  PHE74      -0.0202
    116  CD1       40.7220    1.7230   14.9680 C.ar   74  PHE74      -0.0042
    117  CD2       42.1110    3.6300   15.3970 C.ar   74  PHE74      -0.0042
    118  CE1       40.9420    1.2620   16.2630 C.ar   74  PHE74      -0.0003
    119  CE2       42.3820    3.1080   16.6440 C.ar   74  PHE74      -0.0003
    120  CZ        41.7650    2.0080   17.0790 C.ar   74  PHE74      -0.0000
    121  N         38.5360    4.6050   10.8570 N.am   75  ALA75      -0.1966
    122  CA        38.1670    5.5820    9.8140 C.3    75  ALA75       0.1728
    123  C         37.0080    6.3740   10.3700 C.2    75  ALA75       0.2616
    124  O         35.8520    6.2410    9.9730 O.2    75  ALA75      -0.2715
    125  CB        37.8360    4.8770    8.5030 C.3    75  ALA75       0.0334
    126  N         37.3420    7.2530   11.3610 N.am   76  ALA76      -0.1963
    127  CA        36.3040    7.8590   12.1540 C.3    76  ALA76       0.1728
    128  C         35.7310    9.0950   11.4900 C.2    76  ALA76       0.2616
    129  O         34.5700    9.4060   11.7690 O.2    76  ALA76      -0.2715
    130  CB        36.8320    8.2270   13.5650 C.3    76  ALA76       0.0334
    131  N         36.4500    9.7140   10.6060 N.am   77  GLN77      -0.1977
    132  CA        35.9370   10.8740    9.8700 C.3    77  GLN77       0.1601
    133  C         34.8450   10.4240    8.8880 C.2    77  GLN77       0.2287
    134  O         33.7570   11.0270    8.7890 O.2    77  GLN77      -0.2864
    135  CB        37.0020   11.6300    9.0490 C.3    77  GLN77       0.0394
    136  CG        36.4990   12.9730    8.5450 C.3    77  GLN77       0.0908
    137  CD        36.0980   13.8880    9.6820 C.2    77  GLN77       0.2608
    138  OE1       36.9240   14.2770   10.5530 O.2    77  GLN77      -0.2717
    139  NE2       34.8410   14.2640    9.6800 N.am   77  GLN77      -0.0878
    140  N         31.0160   11.4590    9.1310 N.3    80  ASN80      -0.1240
    141  CA        30.4120   12.1030    7.9520 C.3    80  ASN80       0.1653
    142  C         29.1570   11.3670    7.5450 C.2    80  ASN80       0.2266
    143  O         28.1350   11.9740    7.1750 O.2    80  ASN80      -0.2867
    144  CB        31.3160   12.2120    6.7660 C.3    80  ASN80       0.1155
    145  CG        32.4110   13.2410    6.9710 C.2    80  ASN80       0.2627
    146  OD1       32.4880   13.8950    8.0210 O.2    80  ASN80      -0.2716
    147  ND2       33.2240   13.3920    6.0220 N.am   80  ASN80      -0.0877
    148  N         49.3260    5.4940    7.3230 N.3   135  GLN135     -0.1245
    149  CA        48.9900    6.9310    7.4890 C.3   135  GLN135      0.1566
    150  C         49.6750    7.5370    8.6710 C.2   135  GLN135      0.2260
    151  O         49.9130    8.7760    8.6550 O.2   135  GLN135     -0.2867
    152  CB        47.4820    7.1340    7.5550 C.3   135  GLN135      0.0367
    153  CG        46.7300    6.7700    6.2560 C.3   135  GLN135      0.0905
    154  CD        45.2280    6.9370    6.3760 C.2   135  GLN135      0.2608
    155  OE1       44.6360    7.7900    5.6530 O.2   135  GLN135     -0.2717
    156  NE2       44.6030    6.2500    7.3080 N.am  135  GLN135     -0.0878
    157  N         46.0010   -1.3590   16.2590 N.3   194  LYS194     -0.1245
    158  CA        44.7120   -0.7140   16.5200 C.3   194  LYS194      0.1561
    159  C         43.6740   -1.7720   16.7910 C.2   194  LYS194      0.2260
    160  O         43.7030   -2.8440   16.1490 O.2   194  LYS194     -0.2867
    161  CB        44.2610    0.0610   15.2830 C.3   194  LYS194      0.0271
    162  CG        45.2240    1.1330   14.7320 C.3   194  LYS194      0.0035
    163  CD        44.6440    1.7890   13.3690 C.3   194  LYS194      0.0206
    164  CE        45.6420    2.2220   12.2900 C.3   194  LYS194      0.1093
    165  NZ        44.9480    3.0120   11.3200 N.3   194  LYS194     -0.1314
@<TRIPOS>BOND
     1    58    59    1
     2    59    60    1
     3    37    39   ar
     4    37    35   ar
     5    39    40   ar
     6    65    64    2
     7    60    61    2
     8    60    62   am
     9    34    35    1
    10    34    31    1
    11    40    41    1
    12    40    38   ar
    13    35    36   ar
    14    62    63    1
    15    33    32    2
    16    30    31    1
    17    30    26   am
    18    25    24    1
    19    25    28    1
    20    25    26    1
    21    69    68    2
    22    64    63    1
    23    64    66   am
    24    45    44    2
    25    74    72   ar
    26    74    76   ar
    27    72    71   ar
    28    31    32    1
    29    44    43    1
    30    32    42   am
    31    67    68    1
    32    67    66    1
    33    67    70    1
    34    68    77   am
    35    29    28    1
    36    26    27    2
    37    36    38   ar
    38    47    48    1
    39    77    78    1
    40    49    50    2
    41    49    48    1
    42    76    75   ar
    43    71    70    1
    44    71    73   ar
    45    78    79    1
    46    42    43    1
    47    43    46    1
    48    48    51    1
    49    88    87    2
    50    75    73   ar
    51    85    86    1
    52    87    86    1
    53    86    89    1
    54    79    80    2
    55    79    81   am
    56    56    55    1
    57    91    90    1
    58    51    52    1
    59    81    82    1
    60    89    90    1
    61     8     6    1
    62    90    92    1
    63     9    10    1
    64     9     3   am
    65    52    53    1
    66    55    54    2
    67    55    57    1
    68    84    83    2
    69    53    54    1
    70     1     2    1
    71    10    11    1
    72     2     3    1
    73     2     5    1
    74    13    11   am
    75    13    14    1
    76    11    12    2
    77    82    83    1
    78     3     4    2
    79    14    15    1
    80     6     5    1
    81     6     7    1
    82    20    19    2
    83    15    17   am
    84    15    16    2
    85    17    18    1
    86    19    18    1
    87    18    21    1
    88   155   154    2
    89    99    97    1
    90   147   145   am
    91   153   154    1
    92   153   152    1
    93   154   156   am
    94    22    21    1
    95   144   145    1
    96   144   141    1
    97    21    23    1
    98   145   146    2
    99    97    94    1
   100    97    98    1
   101    93    94    1
   102    94    95    1
   103   143   142    2
   104   148   149    1
   105   149   152    1
   106   149   150    1
   107   142   141    1
   108   141   140    1
   109   100    95   am
   110   100   101    1
   111    95    96    2
   112   125   122    1
   113   136   135    1
   114   136   137    1
   115   151   150    2
   116   134   133    2
   117   133   132    1
   118   135   132    1
   119   104   101    1
   120   104   105    1
   121   101   102    1
   122   139   137   am
   123   137   138    2
   124   122   123    1
   125   122   121    1
   126   132   131    1
   127   107   105   ar
   128   107   109   ar
   129   124   123    2
   130   105   106   ar
   131   123   126   am
   132   103   102    2
   133   131   128   am
   134   121   112   am
   135   109   108   ar
   136   165   164    1
   137   106   108   ar
   138   126   127    1
   139   128   129    2
   140   128   127    1
   141   112   113    2
   142   112   111    1
   143   127   130    1
   144   164   163    1
   145   110   111    1
   146   111   114    1
   147   114   115    1
   148   163   162    1
   149   115   116   ar
   150   115   117   ar
   151   162   161    1
   152   116   118   ar
   153   161   158    1
   154   117   119   ar
   155   160   159    2
   156   157   158    1
   157   118   120   ar
   158   158   159    1
   159   119   120   ar
