@<TRIPOS>MOLECULE
tmp/4x7iA00.pdb
 199 192 0 0 0
SMALL
GASTEIGER

@<TRIPOS>ATOM
      1  N         36.0710   50.6730   86.0510 N.3    14  LYS14      -0.1231
      2  CA        36.7340   51.4230   87.1270 C.3    14  LYS14       0.1693
      3  C         35.7240   52.3930   87.7370 C.2    14  LYS14       0.2593
      4  O         34.6620   52.6530   87.1430 O.2    14  LYS14      -0.2718
      5  CB        37.9710   52.1610   86.5990 C.3    14  LYS14       0.0285
      6  CG        37.6720   53.2040   85.5180 C.3    14  LYS14       0.0035
      7  CD        38.9620   53.6090   84.8110 C.3    14  LYS14       0.0206
      8  CE        38.7430   54.8260   83.9190 C.3    14  LYS14       0.1093
      9  NZ        40.0570   55.3290   83.4150 N.3    14  LYS14      -0.1314
     10  N         36.0530   52.9540   88.8990 N.am   15  SER15      -0.1938
     11  CA        35.0660   53.7560   89.6420 C.3    15  SER15       0.2055
     12  C         34.6170   55.0090   88.8720 C.2    15  SER15       0.2644
     13  O         33.5030   55.4540   89.0640 O.2    15  SER15      -0.2714
     14  CB        35.5710   54.1470   91.0350 C.3    15  SER15       0.2130
     15  OG        36.7070   54.9820   90.8990 O.3    15  SER15      -0.2179
     16  N         35.4750   55.5530   88.0150 N.am   16  GLY16      -0.1939
     17  CA        35.1280   56.7820   87.2510 C.3    16  GLY16       0.2014
     18  C         33.9850   56.5790   86.2570 C.2    16  GLY16       0.2639
     19  O         33.1490   57.4650   86.0780 O.2    16  GLY16      -0.2714
     20  N         33.9320   55.3890   85.6680 N.am   17  GLN17      -0.1963
     21  CA        33.0750   55.1420   84.4970 C.3    17  GLN17       0.1733
     22  C         32.1150   53.9540   84.6600 C.2    17  GLN17       0.2617
     23  O         31.1730   53.7910   83.8620 O.2    17  GLN17      -0.2715
     24  CB        33.9580   54.9430   83.2770 C.3    17  GLN17       0.0408
     25  CG        34.7380   56.2060   82.9100 C.3    17  GLN17       0.0908
     26  CD        35.5320   56.0470   81.6170 C.2    17  GLN17       0.2608
     27  OE1       36.1220   54.9850   81.3430 O.2    17  GLN17      -0.2717
     28  NE2       35.5410   57.1040   80.8030 N.am   17  GLN17      -0.0878
     29  N         32.3590   53.1260   85.6710 N.am   18  GLY18      -0.1940
     30  CA        31.4640   52.0190   86.0080 C.3    18  GLY18       0.2014
     31  C         32.0740   50.6560   85.7510 C.2    18  GLY18       0.2638
     32  O         32.9960   50.5180   84.9190 O.2    18  GLY18      -0.2714
     33  N         31.5540   49.6510   86.4540 N.am   19  TYR19      -0.1973
     34  CA        31.9510   48.2510   86.2440 C.3    19  TYR19       0.1639
     35  C         30.8900   47.5420   85.4290 C.2    19  TYR19       0.2290
     36  O         29.6920   47.6550   85.7320 O.2    19  TYR19      -0.2864
     37  CB        32.1280   47.5770   87.6010 C.3    19  TYR19       0.0560
     38  CG        33.3810   48.0750   88.3010 C.ar   19  TYR19      -0.0198
     39  CD1       34.6040   47.4620   88.0680 C.ar   19  TYR19      -0.0009
     40  CD2       33.3390   49.1850   89.1710 C.ar   19  TYR19      -0.0009
     41  CE1       35.7760   47.9210   88.6760 C.ar   19  TYR19       0.0417
     42  CE2       34.4850   49.6450   89.7940 C.ar   19  TYR19       0.0417
     43  CZ        35.7010   48.9970   89.5540 C.ar   19  TYR19       0.1957
     44  OH        36.8380   49.4550   90.1930 O.3    19  TYR19      -0.2866
     45  N         26.5700   47.8270   82.2920 N.3    35  LEU35      -0.1245
     46  CA        26.9020   48.3510   83.6480 C.3    35  LEU35       0.1561
     47  C         26.1570   47.5920   84.7470 C.2    35  LEU35       0.2260
     48  O         24.9400   47.4410   84.6720 O.2    35  LEU35      -0.2867
     49  CB        26.5000   49.8320   83.7180 C.3    35  LEU35       0.0270
     50  CG        26.7500   50.5400   85.0620 C.3    35  LEU35       0.0019
     51  CD1       28.2270   50.8960   85.2200 C.3    35  LEU35       0.0001
     52  CD2       25.8790   51.7820   85.1150 C.3    35  LEU35       0.0001
     53  N         24.4520   47.6250   88.0910 N.3    37  ASP37      -0.1239
     54  CA        23.8620   48.7550   88.8130 C.3    37  ASP37       0.1674
     55  C         22.9090   48.2890   89.9080 C.2    37  ASP37       0.2266
     56  O         21.7200   48.0390   89.6410 O.2    37  ASP37      -0.2867
     57  CB        23.1320   49.6890   87.8300 C.3    37  ASP37       0.1410
     58  CG        22.5580   50.9330   88.5110 C.2    37  ASP37       0.3668
     59  OD1       22.8680   51.1710   89.7150 O.co2  37  ASP37      -0.2456
     60  OD2       21.8000   51.6740   87.8400 O.co2  37  ASP37      -0.2456
     61  N         21.6510   50.0770   92.1100 N.3    39  GLY39      -0.1210
     62  CA        20.8290   51.2170   92.5250 C.3    39  GLY39       0.1956
     63  C         19.6720   51.5170   91.5820 C.2    39  GLY39       0.2612
     64  O         19.0350   52.5770   91.6940 O.2    39  GLY39      -0.2717
     65  N         19.3870   50.6060   90.6540 N.am   40  SER40      -0.1952
     66  CA        18.1710   50.7480   89.8040 C.3    40  SER40       0.1924
     67  C         17.6650   49.3580   89.4300 C.2    40  SER40       0.2314
     68  O         18.2860   48.3430   89.7980 O.2    40  SER40      -0.2863
     69  CB        18.4670   51.5550   88.5470 C.3    40  SER40       0.2116
     70  OG        19.3440   50.8320   87.6790 O.3    40  SER40      -0.2180
     71  N         12.6710   57.8840   81.6890 N.3    74  VAL74      -0.1245
     72  CA        13.3880   57.7710   82.9630 C.3    74  VAL74       0.1561
     73  C         14.3310   58.9560   83.1640 C.2    74  VAL74       0.2260
     74  O         15.5360   58.8600   82.8960 O.2    74  VAL74      -0.2867
     75  CB        14.1430   56.4110   83.1150 C.3    74  VAL74       0.0252
     76  CG1       14.8620   56.3200   84.4570 C.3    74  VAL74       0.0019
     77  CG2       13.1750   55.2430   83.0020 C.3    74  VAL74       0.0019
     78  N         16.4850   61.3290   85.5960 N.3    76  TYR76      -0.1241
     79  CA        17.0750   61.2370   86.9380 C.3    76  TYR76       0.1605
     80  C         17.9660   62.4710   87.1130 C.2    76  TYR76       0.2264
     81  O         18.0920   63.2740   86.1860 O.2    76  TYR76      -0.2867
     82  CB        17.8310   59.9010   87.1540 C.3    76  TYR76       0.0534
     83  CG        18.8720   59.6360   86.1040 C.ar   76  TYR76      -0.0201
     84  CD1       18.5220   59.0560   84.8780 C.ar   76  TYR76      -0.0009
     85  CD2       20.2090   59.9730   86.3260 C.ar   76  TYR76      -0.0009
     86  CE1       19.4710   58.8500   83.8990 C.ar   76  TYR76       0.0417
     87  CE2       21.1710   59.7520   85.3630 C.ar   76  TYR76       0.0417
     88  CZ        20.7940   59.2010   84.1540 C.ar   76  TYR76       0.1957
     89  OH        21.7440   59.0020   83.1970 O.3    76  TYR76      -0.2866
     90  N         21.1940   63.3480   87.1440 N.3    78  GLN78      -0.1245
     91  CA        22.3380   63.6440   86.2830 C.3    78  GLN78       0.1566
     92  C         22.0230   63.5790   84.7850 C.2    78  GLN78       0.2260
     93  O         22.8570   63.9650   83.9640 O.2    78  GLN78      -0.2867
     94  CB        23.4960   62.6820   86.5970 C.3    78  GLN78       0.0367
     95  CG        23.3450   61.8840   87.8920 C.3    78  GLN78       0.0905
     96  CD        23.7200   62.6840   89.1270 C.2    78  GLN78       0.2608
     97  OE1       24.7480   63.3640   89.1560 O.2    78  GLN78      -0.2717
     98  NE2       22.8890   62.5980   90.1610 N.am   78  GLN78      -0.0878
     99  N         17.0570   58.8320   80.2430 N.3    81  TRP81      -0.1241
    100  CA        16.9560   57.9160   79.1150 C.3    81  TRP81       0.1605
    101  C         15.4870   57.6000   78.8910 C.2    81  TRP81       0.2264
    102  O         14.6780   57.6140   79.8210 O.2    81  TRP81      -0.2867
    103  CB        17.7910   56.6350   79.3130 C.3    81  TRP81       0.0550
    104  CG        17.3490   55.6900   80.4160 C.ar   81  TRP81       0.0003
    105  CD1       17.8070   55.6590   81.7170 C.ar   81  TRP81       0.0946
    106  CD2       16.3890   54.6190   80.3100 C.ar   81  TRP81       0.0152
    107  NE1       17.1810   54.6450   82.4220 N.ar   81  TRP81      -0.2442
    108  CE2       16.3100   53.9930   81.5810 C.ar   81  TRP81       0.0810
    109  CE3       15.5810   54.1390   79.2690 C.ar   81  TRP81       0.0012
    110  CZ2       15.4610   52.9020   81.8300 C.ar   81  TRP81       0.0191
    111  CZ3       14.7330   53.0550   79.5220 C.ar   81  TRP81       0.0001
    112  CH2       14.6700   52.4600   80.7810 C.ar   81  TRP81       0.0015
    113  N         23.1670   62.4970   78.6780 N.3   112  LYS112     -0.1231
    114  CA        24.2260   62.2680   79.6690 C.3   112  LYS112      0.1693
    115  C         24.0550   60.9090   80.3500 C.2   112  LYS112      0.2592
    116  O         24.2970   60.7500   81.5600 O.2   112  LYS112     -0.2718
    117  CB        24.2820   63.4230   80.6810 C.3   112  LYS112      0.0285
    118  CG        24.6120   64.7720   80.0350 C.3   112  LYS112      0.0035
    119  CD        24.5060   65.9290   81.0210 C.3   112  LYS112      0.0206
    120  CE        23.0530   66.2660   81.3400 C.3   112  LYS112      0.1093
    121  NZ        22.8810   67.6920   81.7450 N.3   112  LYS112     -0.1314
    122  N         23.6190   59.9280   79.5530 N.am  113  PHE113     -0.1976
    123  CA        23.4630   58.5620   80.0260 C.3   113  PHE113      0.1639
    124  C         24.7350   57.7990   79.6770 C.2   113  PHE113      0.2290
    125  O         25.4570   57.3210   80.5740 O.2   113  PHE113     -0.2864
    126  CB        22.2030   57.9230   79.4080 C.3   113  PHE113      0.0560
    127  CG        21.9470   56.5080   79.8390 C.ar  113  PHE113     -0.0200
    128  CD1       21.2810   56.2350   81.0240 C.ar  113  PHE113     -0.0042
    129  CD2       22.3280   55.4430   79.0250 C.ar  113  PHE113     -0.0042
    130  CE1       21.0140   54.9250   81.4060 C.ar  113  PHE113     -0.0003
    131  CE2       22.0840   54.1310   79.4080 C.ar  113  PHE113     -0.0003
    132  CZ        21.4140   53.8770   80.5910 C.ar  113  PHE113     -0.0000
    133  N         28.5650   57.1880   78.5890 N.3   115  ILE115     -0.1245
    134  CA        29.8250   57.8490   78.9550 C.3   115  ILE115      0.1561
    135  C         30.8280   57.5510   77.8450 C.2   115  ILE115      0.2260
    136  O         31.1310   56.3800   77.5840 O.2   115  ILE115     -0.2867
    137  CB        30.3700   57.3370   80.3230 C.3   115  ILE115      0.0252
    138  CG1       29.4110   57.7200   81.4700 C.3   115  ILE115      0.0019
    139  CG2       31.7860   57.8630   80.5830 C.3   115  ILE115      0.0019
    140  CD1       29.7510   57.1400   82.8380 C.3   115  ILE115      0.0001
    141  N         30.6510   50.4960   77.9500 N.3   120  TRP120     -0.1241
    142  CA        29.3620   49.8190   78.1430 C.3   120  TRP120      0.1605
    143  C         28.2400   50.4580   77.3360 C.2   120  TRP120      0.2264
    144  O         28.2690   51.6540   77.0260 O.2   120  TRP120     -0.2867
    145  CB        28.9620   49.6320   79.6270 C.3   120  TRP120      0.0550
    146  CG        28.9960   50.8590   80.4910 C.ar  120  TRP120      0.0003
    147  CD1       30.0270   51.2340   81.3420 C.ar  120  TRP120      0.0946
    148  CD2       27.9580   51.8330   80.6610 C.ar  120  TRP120      0.0152
    149  NE1       29.6780   52.3900   82.0080 N.ar  120  TRP120     -0.2442
    150  CE2       28.4300   52.7870   81.6020 C.ar  120  TRP120      0.0810
    151  CE3       26.6790   52.0190   80.0870 C.ar  120  TRP120      0.0012
    152  CZ2       27.6680   53.8990   81.9920 C.ar  120  TRP120      0.0191
    153  CZ3       25.9170   53.1140   80.4800 C.ar  120  TRP120      0.0001
    154  CH2       26.4190   54.0540   81.4210 C.ar  120  TRP120      0.0015
    155  N         22.6140   49.1480   80.9030 N.3   123  ILE123     -0.1245
    156  CA        22.7190   49.0010   82.3560 C.3   123  ILE123      0.1561
    157  C         21.8290   47.8820   82.8370 C.2   123  ILE123      0.2260
    158  O         20.7400   47.6410   82.2740 O.2   123  ILE123     -0.2867
    159  CB        22.4390   50.3210   83.1320 C.3   123  ILE123      0.0252
    160  CG1       20.9680   50.7350   83.0950 C.3   123  ILE123      0.0019
    161  CG2       23.3170   51.4540   82.6150 C.3   123  ILE123      0.0019
    162  CD1       20.7090   51.9010   84.0510 C.3   123  ILE123      0.0001
    163  N         25.0180   51.0190   96.3210 N.3   233  ASP233     -0.1225
    164  CA        24.7760   51.3820   94.9100 C.3   233  ASP233      0.1805
    165  C         26.0230   51.3160   94.0400 C.2   233  ASP233      0.2598
    166  O         26.7950   52.2990   93.9570 O.2   233  ASP233     -0.2718
    167  CB        24.1780   52.7980   94.8240 C.3   233  ASP233      0.1424
    168  CG        23.7320   53.1760   93.3980 C.2   233  ASP233      0.3668
    169  OD1       23.8220   52.3480   92.4810 O.co2 233  ASP233     -0.2456
    170  OD2       23.2720   54.3200   93.1850 O.co2 233  ASP233     -0.2456
    171  N         26.1970   50.1940   93.3330 N.am  234  SER234     -0.1938
    172  CA        27.3160   50.0530   92.3890 C.3   234  SER234      0.2055
    173  C         27.2270   50.9810   91.1850 C.2   234  SER234      0.2644
    174  O         28.2110   51.1100   90.4520 O.2   234  SER234     -0.2714
    175  CB        27.4460   48.5920   91.9010 C.3   234  SER234      0.2130
    176  OG        26.2690   48.2260   91.1740 O.3   234  SER234     -0.2179
    177  N         26.0660   51.6190   90.9760 N.am  235  GLY235     -0.1939
    178  CA        25.8520   52.5020   89.8400 C.3   235  GLY235      0.2014
    179  C         26.0810   53.9760   90.1730 C.2   235  GLY235      0.2640
    180  O         25.6520   54.8450   89.4240 O.2   235  GLY235     -0.2714
    181  N         26.7610   54.2270   91.2980 N.am  236  THR236     -0.1936
    182  CA        27.2200   55.5660   91.6960 C.3   236  THR236      0.2028
    183  C         28.7170   55.4720   92.0170 C.2   236  THR236      0.2642
    184  O         29.1570   54.5040   92.6390 O.2   236  THR236     -0.2714
    185  CB        26.4710   56.0070   92.9740 C.3   236  THR236      0.1808
    186  OG1       25.1420   56.3640   92.6200 O.3   236  THR236     -0.2208
    187  CG2       27.1250   57.2030   93.6470 C.3   236  THR236      0.0379
    188  N         29.4920   56.4790   91.6210 N.am  237  THR237     -0.1950
    189  CA        30.9390   56.4750   91.9340 C.3   237  THR237      0.1897
    190  C         31.2280   56.6720   93.4220 C.2   237  THR237      0.2313
    191  O         31.9420   55.8600   94.0380 O.2   237  THR237     -0.2863
    192  CB        31.6760   57.5620   91.1290 C.3   237  THR237      0.1794
    193  OG1       31.6200   57.2280   89.7340 O.3   237  THR237     -0.2208
    194  CG2       33.1690   57.6620   91.5620 C.3   237  THR237      0.0378
    195  N         30.6440   52.9790   94.3090 N.3   340  ALA340     -0.1245
    196  CA        31.7240   52.1090   93.8680 C.3   340  ALA340      0.1562
    197  C         33.0090   52.2630   94.6830 C.2   340  ALA340      0.2260
    198  O         33.6590   51.2680   94.9790 O.2   340  ALA340     -0.2867
    199  CB        31.9830   52.3060   92.3870 C.3   340  ALA340      0.0290
@<TRIPOS>BOND
     1   144   143    2
     2   143   142    1
     3   136   135    2
     4   135   134    1
     5   141   142    1
     6   142   145    1
     7   133   134    1
     8   113   114    1
     9   101   100    1
    10   101   102    2
    11   134   137    1
    12   129   131   ar
    13   129   127   ar
    14   100   103    1
    15   100    99    1
    16   109   111   ar
    17   109   106   ar
    18   103   104    1
    19   131   132   ar
    20   126   127    1
    21   126   123    1
    22   111   112   ar
    23   122   123    1
    24   122   115   am
    25   145   146    1
    26   114   115    1
    27   114   117    1
    28   124   123    1
    29   124   125    2
    30   127   128   ar
    31   118   117    1
    32   118   119    1
    33   151   153   ar
    34   151   148   ar
    35   106   104   ar
    36   106   108   ar
    37   137   139    1
    38   137   138    1
    39   115   116    2
    40   104   105   ar
    41   153   154   ar
    42   146   148   ar
    43   146   147   ar
    44   132   130   ar
    45   148   150   ar
    46   112   110   ar
    47    28    26   am
    48   155   156    1
    49   119   120    1
    50   128   130   ar
    51   120   121    1
    52   147   149   ar
    53    27    26    2
    54   154   152   ar
    55   138   140    1
    56   108   110   ar
    57   108   107   ar
    58   150   152   ar
    59   150   149   ar
    60    26    25    1
    61    71    72    1
    62   105   107   ar
    63   158   157    2
    64    45    46    1
    65   156   157    1
    66   156   159    1
    67   161   159    1
    68    74    73    2
    69    25    24    1
    70    72    75    1
    71    72    73    1
    72    77    75    1
    73   160   159    1
    74   160   162    1
    75    75    76    1
    76    89    88    1
    77    24    21    1
    78     9     8    1
    79    46    49    1
    80    46    47    1
    81    49    50    1
    82    23    22    2
    83    86    88   ar
    84    86    84   ar
    85     8     7    1
    86    93    92    2
    87    88    87   ar
    88    21    22    1
    89    21    20    1
    90    22    29   am
    91    48    47    2
    92    92    91    1
    93     7     6    1
    94    84    83   ar
    95    32    31    2
    96    50    52    1
    97    50    51    1
    98    87    85   ar
    99    35    36    2
   100    35    34    1
   101     6     5    1
   102    78    79    1
   103    20    18   am
   104    29    30    1
   105    31    30    1
   106    31    33   am
   107     1     2    1
   108    19    18    2
   109    83    85   ar
   110    83    82    1
   111    81    80    2
   112    34    33    1
   113    34    37    1
   114    18    17    1
   115    91    94    1
   116    91    90    1
   117    94    95    1
   118     5     2    1
   119    79    80    1
   120    79    82    1
   121     2     3    1
   122     4     3    2
   123    17    16    1
   124    37    38    1
   125    70    69    1
   126     3    10   am
   127    57    58    1
   128    57    54    1
   129    60    58   ar
   130    95    96    1
   131    16    12   am
   132    39    38   ar
   133    39    41   ar
   134    53    54    1
   135    38    40   ar
   136    58    59   ar
   137    69    66    1
   138    41    43   ar
   139    54    55    1
   140    12    13    2
   141    12    11    1
   142    10    11    1
   143    96    97    2
   144    96    98   am
   145    40    42   ar
   146   180   179    2
   147    67    68    2
   148    67    66    1
   149    43    42   ar
   150    43    44    1
   151    56    55    2
   152    11    14    1
   153   193   192    1
   154    66    65    1
   155   178   179    1
   156   178   177    1
   157   179   181   am
   158   174   173    2
   159    65    63   am
   160    15    14    1
   161   177   173   am
   162   192   194    1
   163   192   189    1
   164   176   175    1
   165   173   172    1
   166   181   182    1
   167    63    64    2
   168    63    62    1
   169   188   189    1
   170   188   183   am
   171   182   183    1
   172   182   185    1
   173   175   172    1
   174   189   190    1
   175   183   184    2
   176    61    62    1
   177   199   196    1
   178   172   171    1
   179   169   168   ar
   180   186   185    1
   181   185   187    1
   182   170   168   ar
   183   171   165   am
   184   168   167    1
   185   190   191    2
   186   196   195    1
   187   196   197    1
   188   166   165    2
   189   165   164    1
   190   197   198    2
   191   167   164    1
   192   164   163    1
