@<TRIPOS>MOLECULE
tmp/4x7jA00.pdb
 224 213 0 0 0
SMALL
GASTEIGER

@<TRIPOS>ATOM
      1  N         27.3740    0.7250   -4.8490 N.3    15  LEU15      -0.1245
      2  CA        28.5820    1.5230   -4.6720 C.3    15  LEU15       0.1561
      3  C         29.5030    0.9180   -3.6130 C.2    15  LEU15       0.2260
      4  O         30.7020    1.1970   -3.5930 O.2    15  LEU15      -0.2867
      5  CB        28.2300    2.9730   -4.3180 C.3    15  LEU15       0.0270
      6  CG        27.4860    3.8100   -5.3690 C.3    15  LEU15       0.0019
      7  CD1       27.0320    5.1370   -4.7770 C.3    15  LEU15       0.0001
      8  CD2       28.3440    4.0360   -6.6050 C.3    15  LEU15       0.0001
      9  N         25.2960    0.6790    0.1750 N.3    23  VAL23      -0.1245
     10  CA        25.1060    1.9400   -0.5490 C.3    23  VAL23       0.1561
     11  C         24.8900    1.7040   -2.0450 C.2    23  VAL23       0.2260
     12  O         25.6800    1.0180   -2.6930 O.2    23  VAL23      -0.2867
     13  CB        26.2840    2.9210   -0.3340 C.3    23  VAL23       0.0252
     14  CG1       26.0400    4.2410   -1.0660 C.3    23  VAL23       0.0019
     15  CG2       26.5170    3.1740    1.1520 C.3    23  VAL23       0.0019
     16  N         23.1820    8.9560   -4.0440 N.3    36  ALA36      -0.1231
     17  CA        23.7230    7.8810   -3.2280 C.3    36  ALA36       0.1694
     18  C         22.7280    7.5730   -2.1090 C.2    36  ALA36       0.2592
     19  O         22.3340    8.4600   -1.3490 O.2    36  ALA36      -0.2718
     20  CB        25.0770    8.2680   -2.6590 C.3    36  ALA36       0.0304
     21  N         22.3110    6.3140   -2.0360 N.am   37  ILE37      -0.1966
     22  CA        21.3110    5.8760   -1.0770 C.3    37  ILE37       0.1727
     23  C         21.9190    4.7920   -0.2080 C.2    37  ILE37       0.2616
     24  O         22.3430    3.7530   -0.7170 O.2    37  ILE37      -0.2715
     25  CB        20.0540    5.2760   -1.7530 C.3    37  ILE37       0.0290
     26  CG1       19.6350    6.0760   -2.9980 C.3    37  ILE37       0.0022
     27  CG2       18.9240    5.1320   -0.7380 C.3    37  ILE37       0.0023
     28  CD1       18.5510    7.1020   -2.7680 C.3    37  ILE37       0.0001
     29  N         21.9530    5.0390    1.0980 N.am   38  LYS38      -0.1977
     30  CA        22.4310    4.0510    2.0610 C.3    38  LYS38       0.1596
     31  C         21.2520    3.3320    2.7050 C.2    38  LYS38       0.2287
     32  O         20.3540    3.9670    3.2610 O.2    38  LYS38      -0.2864
     33  CB        23.3120    4.7100    3.1310 C.3    38  LYS38       0.0298
     34  CG        23.7300    3.7900    4.2700 C.3    38  LYS38       0.0038
     35  CD        25.1390    4.0920    4.7610 C.3    38  LYS38       0.0206
     36  CE        25.2510    5.4390    5.4560 C.3    38  LYS38       0.1093
     37  NZ        26.6750    5.8510    5.6490 N.3    38  LYS38      -0.1314
     38  N         21.5540   10.0290   14.8560 N.3    55  GLU55      -0.1245
     39  CA        22.5440   10.5510   13.9180 C.3    55  GLU55       0.1567
     40  C         21.9300   11.0470   12.6020 C.2    55  GLU55       0.2260
     41  O         22.4010   12.0390   12.0400 O.2    55  GLU55      -0.2867
     42  CB        23.6820    9.5490   13.6860 C.3    55  GLU55       0.0388
     43  CG        24.6490    9.4830   14.8720 C.3    55  GLU55       0.1160
     44  CD        25.9150    8.6850   14.6000 C.2    55  GLU55       0.3649
     45  OE1       25.9640    7.9290   13.6030 O.co2  55  GLU55      -0.2457
     46  OE2       26.8740    8.8180   15.3930 O.co2  55  GLU55      -0.2457
     47  N         20.5750   14.4470   13.3980 N.3    58  ALA58      -0.1231
     48  CA        21.6580   15.4260   13.4850 C.3    58  ALA58       0.1694
     49  C         22.1710   15.8170   12.0930 C.2    58  ALA58       0.2591
     50  O         22.3510   17.0040   11.8020 O.2    58  ALA58      -0.2718
     51  CB        22.7940   14.9090   14.3680 C.3    58  ALA58       0.0304
     52  N         22.3950   14.8130   11.2450 N.am   59  LEU59      -0.1980
     53  CA        22.7960   15.0240    9.8500 C.3    59  LEU59       0.1596
     54  C         21.8370   15.9530    9.1000 C.2    59  LEU59       0.2287
     55  O         22.2720   16.8900    8.4440 O.2    59  LEU59      -0.2864
     56  CB        22.9160   13.6820    9.1160 C.3    59  LEU59       0.0297
     57  CG        23.1590   13.6830    7.6020 C.3    59  LEU59       0.0022
     58  CD1       24.4960   14.3270    7.2450 C.3    59  LEU59       0.0001
     59  CD2       23.0730   12.2620    7.0560 C.3    59  LEU59       0.0001
     60  N         22.3190   19.7490    9.1580 N.3    62  LEU62      -0.1245
     61  CA        23.6100   20.2910    8.7530 C.3    62  LEU62       0.1561
     62  C         23.6090   20.8100    7.3290 C.2    62  LEU62       0.2260
     63  O         23.1510   20.1290    6.4070 O.2    62  LEU62      -0.2867
     64  CB        24.7100   19.2390    8.9120 C.3    62  LEU62       0.0270
     65  CG        24.9680   18.6540   10.3000 C.3    62  LEU62       0.0019
     66  CD1       26.1130   17.6620   10.2040 C.3    62  LEU62       0.0001
     67  CD2       25.2650   19.7290   11.3430 C.3    62  LEU62       0.0001
     68  N         30.3170   19.4550    3.7290 N.3    67  ILE67      -0.1231
     69  CA        29.5480   18.3210    4.2420 C.3    67  ILE67       0.1692
     70  C         28.6320   17.8300    3.1220 C.2    67  ILE67       0.2591
     71  O         27.9620   18.6390    2.4750 O.2    67  ILE67      -0.2718
     72  CB        28.7100   18.7320    5.4810 C.3    67  ILE67       0.0266
     73  CG1       29.6080   19.2540    6.6260 C.3    67  ILE67       0.0019
     74  CG2       27.7810   17.6060    5.9350 C.3    67  ILE67       0.0020
     75  CD1       30.4920   18.2200    7.2990 C.3    67  ILE67       0.0001
     76  N         28.6170   16.5180    2.8900 N.am   68  VAL68      -0.1980
     77  CA        27.7600   15.8990    1.8670 C.3    68  VAL68       0.1595
     78  C         26.3180   16.3330    2.0620 C.2    68  VAL68       0.2287
     79  O         25.8080   16.3180    3.1860 O.2    68  VAL68      -0.2864
     80  CB        27.8270   14.3540    1.8900 C.3    68  VAL68       0.0276
     81  CG1       27.1080   13.7550    0.6790 C.3    68  VAL68       0.0022
     82  CG2       29.2680   13.8840    1.8950 C.3    68  VAL68       0.0022
     83  N         18.9140    6.3500    3.6650 N.3    85  ILE85      -0.1245
     84  CA        19.3940    7.7330    3.7100 C.3    85  ILE85       0.1561
     85  C         19.8490    8.1450    2.3080 C.2    85  ILE85       0.2260
     86  O         20.7580    7.5310    1.7360 O.2    85  ILE85      -0.2867
     87  CB        20.5520    7.9310    4.7290 C.3    85  ILE85       0.0252
     88  CG1       20.1910    7.3420    6.1010 C.3    85  ILE85       0.0019
     89  CG2       20.9190    9.4070    4.8520 C.3    85  ILE85       0.0019
     90  CD1       21.3000    7.4290    7.1360 C.3    85  ILE85       0.0001
     91  N         21.4720   10.8360   -0.2250 N.3    87  MET87      -0.1230
     92  CA        22.4580   11.9120   -0.2620 C.3    87  MET87       0.1702
     93  C         22.8830   12.2470   -1.6850 C.2    87  MET87       0.2592
     94  O         22.6780   11.4700   -2.6110 O.2    87  MET87      -0.2718
     95  CB        23.7110   11.5200    0.5220 C.3    87  MET87       0.0401
     96  CG        23.4370   10.9460    1.9060 C.3    87  MET87       0.0596
     97  SD        22.8470   12.1880    3.0620 S.3    87  MET87      -0.1393
     98  CE        24.3650   13.1030    3.3430 C.3    87  MET87       0.0692
     99  N         23.4850   13.4240   -1.8180 N.am   88  GLN88      -0.1966
    100  CA        24.1980   13.8640   -3.0050 C.3    88  GLN88       0.1733
    101  C         25.2200   12.8080   -3.4430 C.2    88  GLN88       0.2616
    102  O         25.9600   12.2560   -2.6130 O.2    88  GLN88      -0.2715
    103  CB        24.8820   15.1880   -2.6580 C.3    88  GLN88       0.0408
    104  CG        25.9230   15.7170   -3.6240 C.3    88  GLN88       0.0908
    105  CD        26.6710   16.9080   -3.0500 C.2    88  GLN88       0.2608
    106  OE1       26.9830   16.9480   -1.8580 O.2    88  GLN88      -0.2717
    107  NE2       26.9590   17.8850   -3.8920 N.am   88  GLN88      -0.0878
    108  N         25.2370   12.5180   -4.7430 N.am   89  LEU89      -0.1963
    109  CA        26.1770   11.5630   -5.3110 C.3    89  LEU89       0.1728
    110  C         27.5200   12.2320   -5.5790 C.2    89  LEU89       0.2616
    111  O         27.6000   13.2260   -6.3050 O.2    89  LEU89      -0.2715
    112  CB        25.6220   10.9480   -6.6010 C.3    89  LEU89       0.0311
    113  CG        26.4870    9.9060   -7.3200 C.3    89  LEU89       0.0022
    114  CD1       26.6700    8.6500   -6.4750 C.3    89  LEU89       0.0001
    115  CD2       25.9020    9.5630   -8.6890 C.3    89  LEU89       0.0001
    116  N         28.5700   11.6850   -4.9800 N.am   90  CYS90      -0.1954
    117  CA        29.9180   12.1710   -5.2050 C.3    90  CYS90       0.1843
    118  C         30.6410   11.2660   -6.1970 C.2    90  CYS90       0.2625
    119  O         30.1460   10.1920   -6.5470 O.2    90  CYS90      -0.2714
    120  CB        30.6870   12.2400   -3.8860 C.3    90  CYS90       0.0997
    121  SG        29.9650   13.3970   -2.6980 S.3    90  CYS90      -0.0797
    122  N         31.8110   11.7110   -6.6410 N.am   91  ARG91      -0.1963
    123  CA        32.6770   10.9100   -7.4990 C.3    91  ARG91       0.1729
    124  C         33.1230    9.6250   -6.7990 C.2    91  ARG91       0.2616
    125  O         33.2440    9.5810   -5.5690 O.2    91  ARG91      -0.2715
    126  CB        33.8780   11.7420   -7.9510 C.3    91  ARG91       0.0348
    127  CG        33.5860   12.6110   -9.1710 C.3    91  ARG91       0.0492
    128  CD        34.6590   13.6620   -9.4680 C.3    91  ARG91       0.2205
    129  NE        35.9050   13.4520   -8.7330 N.pl3  91  ARG91      -0.0865
    130  CZ        36.8760   12.6100   -9.0850 C.cat  91  ARG91       0.5346
    131  NH1       36.7690   11.8700  -10.1850 N.pl3  91  ARG91       0.1354
    132  NH2       37.9590   12.5000   -8.3130 N.pl3  91  ARG91       0.1354
    133  N         33.3350    8.5800   -7.5950 N.am   92  LYS92      -0.1977
    134  CA        33.7090    7.2570   -7.0990 C.3    92  LYS92       0.1596
    135  C         35.0730    7.2580   -6.4180 C.2    92  LYS92       0.2287
    136  O         35.3000    6.5300   -5.4520 O.2    92  LYS92      -0.2864
    137  CB        33.7360    6.2620   -8.2580 C.3    92  LYS92       0.0298
    138  CG        33.4250    4.8270   -7.8620 C.3    92  LYS92       0.0038
    139  CD        31.9240    4.5630   -7.8450 C.3    92  LYS92       0.0206
    140  CE        31.3320    4.5380   -9.2490 C.3    92  LYS92       0.1093
    141  NZ        31.7940    3.3640  -10.0410 N.3    92  LYS92      -0.1314
    142  N         31.7040   21.3490   11.9560 N.3   127  LEU127     -0.1245
    143  CA        31.1760   20.2960   12.8130 C.3   127  LEU127      0.1561
    144  C         31.3920   20.6240   14.2920 C.2   127  LEU127      0.2260
    145  O         30.4640   20.5210   15.0880 O.2   127  LEU127     -0.2867
    146  CB        31.7940   18.9400   12.4540 C.3   127  LEU127      0.0270
    147  CG        31.3930   18.2830   11.1270 C.3   127  LEU127      0.0019
    148  CD1       32.2280   17.0360   10.8850 C.3   127  LEU127      0.0001
    149  CD2       29.9050   17.9470   11.0820 C.3   127  LEU127      0.0001
    150  N         29.5470   19.0190   17.3370 N.3   132  LEU132     -0.1231
    151  CA        29.7100   17.6830   16.7780 C.3   132  LEU132      0.1693
    152  C         31.1780   17.3710   16.5490 C.2   132  LEU132      0.2592
    153  O         31.9920   18.2690   16.3370 O.2   132  LEU132     -0.2718
    154  CB        28.9370   17.5540   15.4600 C.3   132  LEU132      0.0284
    155  CG        27.4940   17.0330   15.4300 C.3   132  LEU132      0.0019
    156  CD1       26.5780   17.7140   16.4390 C.3   132  LEU132      0.0001
    157  CD2       26.9300   17.1820   14.0280 C.3   132  LEU132      0.0001
    158  N         31.5180   16.0920   16.6060 N.am  133  MET133     -0.1965
    159  CA        32.8460   15.6490   16.2130 C.3   133  MET133      0.1736
    160  C         32.7310   14.4450   15.2920 C.2   133  MET133      0.2616
    161  O         31.8420   13.6050   15.4630 O.2   133  MET133     -0.2715
    162  CB        33.7260   15.3510   17.4310 C.3   133  MET133      0.0427
    163  CG        33.1470   14.3680   18.4340 C.3   133  MET133      0.0599
    164  SD        34.2390   14.1830   19.8530 S.3   133  MET133     -0.1393
    165  CE        33.4420   15.2560   21.0490 C.3   133  MET133      0.0692
    166  N         33.6240   14.3780   14.3090 N.am  134  HIS134     -0.1973
    167  CA        33.5990   13.3100   13.3170 C.3   134  HIS134      0.1656
    168  C         33.9820   11.9670   13.9330 C.2   134  HIS134      0.2291
    169  O         33.2550   10.9830   13.7760 O.2   134  HIS134     -0.2864
    170  CB        34.5200   13.6370   12.1420 C.3   134  HIS134      0.0771
    171  CG        34.2720   12.7870   10.9360 C.ar  134  HIS134      0.0820
    172  ND1       34.6730   11.4710   10.8580 N.ar  134  HIS134     -0.2267
    173  CD2       33.6520   13.0620    9.7640 C.ar  134  HIS134      0.1154
    174  CE1       34.3180   10.9730    9.6870 C.ar  134  HIS134      0.1986
    175  NE2       33.6970   11.9180    9.0040 N.ar  134  HIS134     -0.2212
    176  N         35.4300   12.5730    0.2160 N.3   143  PHE143     -0.1241
    177  CA        35.1110   12.4190   -1.2080 C.3   143  PHE143      0.1605
    178  C         35.1030   13.7740   -1.9190 C.2   143  PHE143      0.2264
    179  O         35.2860   14.8240   -1.2880 O.2   143  PHE143     -0.2867
    180  CB        33.7560   11.7060   -1.3930 C.3   143  PHE143      0.0534
    181  CG        33.8050   10.2100   -1.1710 C.ar  143  PHE143     -0.0203
    182  CD1       34.1960    9.6720    0.0590 C.ar  143  PHE143     -0.0042
    183  CD2       33.4390    9.3340   -2.1880 C.ar  143  PHE143     -0.0042
    184  CE1       34.2340    8.2970    0.2590 C.ar  143  PHE143     -0.0003
    185  CE2       33.4750    7.9570   -1.9940 C.ar  143  PHE143     -0.0003
    186  CZ        33.8700    7.4380   -0.7670 C.ar  143  PHE143     -0.0000
    187  N         33.3370   15.9290    3.3650 N.3   152  VAL152     -0.1231
    188  CA        33.6200   15.1340    4.5380 C.3   152  VAL152      0.1692
    189  C         32.3060   14.4920    4.9840 C.2   152  VAL152      0.2593
    190  O         31.2410   15.1040    4.8840 O.2   152  VAL152     -0.2718
    191  CB        34.2250   16.0320    5.6430 C.3   152  VAL152      0.0266
    192  CG1       34.2160   15.3450    6.9990 C.3   152  VAL152      0.0020
    193  CG2       35.6330   16.4700    5.2550 C.3   152  VAL152      0.0020
    194  N         32.3740   13.2510    5.4520 N.am  153  GLY153     -0.1942
    195  CA        31.1820   12.5520    5.9130 C.3   153  GLY153      0.2014
    196  C         31.4850   11.1790    6.4740 C.2   153  GLY153      0.2639
    197  O         32.6410   10.8500    6.7370 O.2   153  GLY153     -0.2714
    198  N         30.4280   10.3890    6.6540 N.am  154  ASP154     -0.1957
    199  CA        30.5180    9.0150    7.1300 C.3   154  ASP154      0.1840
    200  C         30.0460    8.0900    6.0080 C.2   154  ASP154      0.2622
    201  O         28.8840    7.6850    5.9640 O.2   154  ASP154     -0.2715
    202  CB        29.6660    8.8470    8.4020 C.3   154  ASP154      0.1450
    203  CG        29.5690    7.4030    8.8660 C.2   154  ASP154      0.3671
    204  OD1       30.5200    6.6260    8.6380 O.co2 154  ASP154     -0.2456
    205  OD2       28.5290    7.0440    9.4570 O.co2 154  ASP154     -0.2456
    206  N         30.9560    7.7680    5.0940 N.am  155  PHE155     -0.1974
    207  CA        30.5720    7.1040    3.8510 C.3   155  PHE155      0.1639
    208  C         30.2580    5.6200    4.0010 C.2   155  PHE155      0.2290
    209  O         29.2870    5.1300    3.4180 O.2   155  PHE155     -0.2864
    210  CB        31.6020    7.3840    2.7460 C.3   155  PHE155      0.0560
    211  CG        31.5860    8.8110    2.2720 C.ar  155  PHE155     -0.0200
    212  CD1       32.2580    9.8040    2.9820 C.ar  155  PHE155     -0.0042
    213  CD2       30.8700    9.1720    1.1300 C.ar  155  PHE155     -0.0042
    214  CE1       32.2300   11.1210    2.5580 C.ar  155  PHE155     -0.0003
    215  CE2       30.8380   10.4890    0.7020 C.ar  155  PHE155     -0.0003
    216  CZ        31.5190   11.4640    1.4150 C.ar  155  PHE155     -0.0000
    217  N         31.9960    2.9480    3.0010 N.3   157  LEU157     -0.1245
    218  CA        32.3800    2.1070    1.8660 C.3   157  LEU157      0.1561
    219  C         33.7010    1.4160    2.1970 C.2   157  LEU157      0.2260
    220  O         34.7760    1.8920    1.8210 O.2   157  LEU157     -0.2867
    221  CB        32.5100    2.9320    0.5760 C.3   157  LEU157      0.0270
    222  CG        31.3030    3.6920    0.0120 C.3   157  LEU157      0.0019
    223  CD1       31.6530    4.3230   -1.3300 C.3   157  LEU157      0.0001
    224  CD2       30.0860    2.7910   -0.1360 C.3   157  LEU157      0.0001
@<TRIPOS>BOND
     1   131   130    1
     2   141   140    1
     3   128   127    1
     4   128   129    1
     5   140   139    1
     6   127   126    1
     7   130   129    2
     8   130   132    1
     9   115   113    1
    10   137   138    1
    11   137   134    1
    12   126   123    1
    13   138   139    1
    14   133   134    1
    15   133   124   am
    16   123   124    1
    17   123   122    1
    18   113   112    1
    19   113   114    1
    20   134   135    1
    21   124   125    2
    22   122   118   am
    23     8     6    1
    24   112   109    1
    25   119   118    2
    26   135   136    2
    27   111   110    2
    28   118   117    1
    29   110   109    1
    30   110   116   am
    31     6     7    1
    32     6     5    1
    33   109   108    1
    34   117   116    1
    35   117   120    1
    36     1     2    1
    37   108   101   am
    38     2     5    1
    39     2     3    1
    40    16    17    1
    41   107   105   am
    42   120   121    1
    43   104   105    1
    44   104   103    1
    45     3     4    2
    46   101   100    1
    47   101   102    2
    48    17    20    1
    49    17    18    1
    50   105   106    2
    51   100   103    1
    52   100    99    1
    53    26    28    1
    54    26    25    1
    55    12    11    2
    56    94    93    2
    57   183   185   ar
    58   183   181   ar
    59    18    21   am
    60    18    19    2
    61    11    10    1
    62    21    22    1
    63   185   186   ar
    64   178   179    2
    65   178   177    1
    66    99    93   am
    67    25    22    1
    68    25    27    1
    69    93    92    1
    70   180   177    1
    71   180   181    1
    72   223   222    1
    73   177   176    1
    74   181   182   ar
    75    22    23    1
    76    14    13    1
    77   186   184   ar
    78    24    23    2
    79    10    13    1
    80    10     9    1
    81    13    15    1
    82    92    91    1
    83    92    95    1
    84    23    29   am
    85   224   222    1
    86   222   221    1
    87   182   184   ar
    88    95    96    1
    89   221   218    1
    90    81    80    1
    91   215   213   ar
    92   215   216   ar
    93    29    30    1
    94   213   211   ar
    95   216   214   ar
    96    86    85    2
    97   220   219    2
    98   218   219    1
    99   218   217    1
   100    77    80    1
   101    77    78    1
   102    77    76    1
   103    80    82    1
   104    96    97    1
   105    30    31    1
   106    30    33    1
   107    78    79    2
   108   211   210    1
   109   211   212   ar
   110    85    84    1
   111    71    70    2
   112   214   212   ar
   113    31    32    2
   114   210   207    1
   115    76    70   am
   116    97    98    1
   117    70    69    1
   118    33    34    1
   119   187   188    1
   120   209   208    2
   121    83    84    1
   122    84    87    1
   123    68    69    1
   124   207   208    1
   125   207   206    1
   126    69    72    1
   127    34    35    1
   128   188   189    1
   129   188   191    1
   130    87    89    1
   131    87    88    1
   132    35    36    1
   133   190   189    2
   134   189   194   am
   135   206   200   am
   136   193   191    1
   137   194   195    1
   138    36    37    1
   139    72    74    1
   140    72    73    1
   141   191   192    1
   142   195   196    1
   143   201   200    2
   144   200   199    1
   145    88    90    1
   146    63    62    2
   147   196   198   am
   148   196   197    2
   149    73    75    1
   150   198   199    1
   151    59    57    1
   152   199   202    1
   153    58    57    1
   154    62    61    1
   155    57    56    1
   156   202   203    1
   157    55    54    2
   158   204   203   ar
   159    61    64    1
   160    61    60    1
   161   203   205   ar
   162    64    65    1
   163   175   174   ar
   164   175   173   ar
   165    54    53    1
   166    56    53    1
   167   174   172   ar
   168   173   171   ar
   169    53    52    1
   170    66    65    1
   171    65    67    1
   172   172   171   ar
   173   148   147    1
   174   171   170    1
   175   149   147    1
   176   147   146    1
   177    52    49   am
   178    50    49    2
   179   142   143    1
   180    41    40    2
   181    49    48    1
   182   170   167    1
   183   146   143    1
   184    40    39    1
   185   143   144    1
   186   167   168    1
   187   167   166    1
   188    47    48    1
   189    48    51    1
   190    45    44   ar
   191    42    39    1
   192    42    43    1
   193   169   168    2
   194    39    38    1
   195   157   155    1
   196   144   145    2
   197   166   160   am
   198    44    43    1
   199    44    46   ar
   200   160   161    2
   201   160   159    1
   202   155   154    1
   203   155   156    1
   204   154   151    1
   205   159   158    1
   206   159   162    1
   207   153   152    2
   208   152   158   am
   209   152   151    1
   210   151   150    1
   211   162   163    1
   212   163   164    1
   213   164   165    1
