@<TRIPOS>MOLECULE
tmp/4x7qA00.pdb
 159 149 0 0 0
SMALL
GASTEIGER

@<TRIPOS>ATOM
      1  N         58.4640   18.5400   10.1360 N.3    12  LEU12      -0.1231
      2  CA        58.0790   19.9170    9.7880 C.3    12  LEU12       0.1693
      3  C         56.5760   20.1880   10.0320 C.2    12  LEU12       0.2592
      4  O         56.1630   21.3270   10.2410 O.2    12  LEU12      -0.2718
      5  CB        58.4120   20.1900    8.3290 C.3    12  LEU12       0.0284
      6  CG        59.8910   20.2100    7.9900 C.3    12  LEU12       0.0019
      7  CD1       60.0640   20.3650    6.4910 C.3    12  LEU12       0.0001
      8  CD2       60.6000   21.3450    8.6990 C.3    12  LEU12       0.0001
      9  N         55.7560   19.1430    9.9910 N.am   13  GLY13      -0.1957
     10  CA        54.3480   19.2750   10.3270 C.3    13  GLY13       0.1869
     11  C         53.6730   17.9360   10.1880 C.2    13  GLY13       0.2309
     12  O         54.0640   17.1480    9.3260 O.2    13  GLY13      -0.2863
     13  N         47.2090   16.1960    6.4090 N.3    16  PHE16      -0.1241
     14  CA        47.9520   15.7360    5.2310 C.3    16  PHE16       0.1605
     15  C         48.5820   14.3470    5.4070 C.2    16  PHE16       0.2264
     16  O         48.7540   13.5820    4.4470 O.2    16  PHE16      -0.2867
     17  CB        49.0530   16.7470    4.9020 C.3    16  PHE16       0.0534
     18  CG        49.6320   17.4600    6.1060 C.ar   16  PHE16      -0.0203
     19  CD1       50.7330   16.9460    6.7850 C.ar   16  PHE16      -0.0042
     20  CD2       49.0990   18.6720    6.5380 C.ar   16  PHE16      -0.0042
     21  CE1       51.2740   17.6160    7.8880 C.ar   16  PHE16      -0.0003
     22  CE2       49.6440   19.3470    7.6340 C.ar   16  PHE16      -0.0003
     23  CZ        50.7320   18.8130    8.3130 C.ar   16  PHE16      -0.0000
     24  N         55.0150   15.6080    7.1780 N.3    19  VAL19      -0.1245
     25  CA        56.0930   16.1030    6.3390 C.3    19  VAL19       0.1561
     26  C         57.3900   16.3010    7.1190 C.2    19  VAL19       0.2260
     27  O         57.3820   16.8360    8.2400 O.2    19  VAL19      -0.2867
     28  CB        55.7550   17.4660    5.7230 C.3    19  VAL19       0.0252
     29  CG1       56.8310   17.8650    4.6980 C.3    19  VAL19       0.0019
     30  CG2       54.3820   17.4180    5.0920 C.3    19  VAL19       0.0019
     31  N         61.8160   17.4560    1.0430 N.3    32  ALA32      -0.1245
     32  CA        60.8330   17.2460    2.0720 C.3    32  ALA32       0.1562
     33  C         60.2170   15.9070    1.7140 C.2    32  ALA32       0.2260
     34  O         60.0970   15.5540    0.5710 O.2    32  ALA32      -0.2867
     35  CB        59.8030   18.3500    2.0270 C.3    32  ALA32       0.0290
     36  N         57.0190   13.4780    2.4820 N.3    34  LYS34      -0.1245
     37  CA        55.6760   13.5300    3.0350 C.3    34  LYS34       0.1561
     38  C         55.1930   12.1110    3.1500 C.2    34  LYS34       0.2260
     39  O         55.1510   11.3790    2.1810 O.2    34  LYS34      -0.2867
     40  CB        54.7410   14.3590    2.1540 C.3    34  LYS34       0.0271
     41  CG        53.2730   14.0550    2.3880 C.3    34  LYS34       0.0035
     42  CD        52.4100   14.9670    1.5620 C.3    34  LYS34       0.0206
     43  CE        50.9470   14.8070    1.8730 C.3    34  LYS34       0.1093
     44  NZ        50.2220   15.8420    1.0800 N.3    34  LYS34      -0.1314
     45  N         47.3900   12.2650   -5.0050 N.3    42  GLU42      -0.1245
     46  CA        48.3550   13.3340   -4.8950 C.3    42  GLU42       0.1567
     47  C         49.5450   13.1290   -5.8110 C.2    42  GLU42       0.2260
     48  O         50.0320   14.0930   -6.3970 O.2    42  GLU42      -0.2867
     49  CB        48.8500   13.4700   -3.4610 C.3    42  GLU42       0.0388
     50  CG        49.8940   14.5510   -3.3170 C.3    42  GLU42       0.1160
     51  CD        50.0080   15.1170   -1.8990 C.2    42  GLU42       0.3649
     52  OE1       49.3720   14.5320   -0.9810 O.co2  42  GLU42      -0.2457
     53  OE2       50.7300   16.1570   -1.7170 O.co2  42  GLU42      -0.2457
     54  N         55.4350   23.2970   -5.8460 N.3    59  ILE59      -0.1245
     55  CA        56.5110   22.4560   -5.3340 C.3    59  ILE59       0.1561
     56  C         56.4910   21.2120   -6.2280 C.2    59  ILE59       0.2260
     57  O         55.4470   20.6580   -6.5010 O.2    59  ILE59      -0.2867
     58  CB        56.3460   22.1620   -3.8080 C.3    59  ILE59       0.0252
     59  CG1       56.7910   23.3750   -2.9570 C.3    59  ILE59       0.0019
     60  CG2       57.1470   20.9730   -3.3180 C.3    59  ILE59       0.0019
     61  CD1       58.2710   23.6190   -2.8810 C.3    59  ILE59       0.0001
     62  N         59.5700   15.5860   -2.0540 N.3    72  LEU72      -0.1231
     63  CA        59.2280   16.8660   -2.6470 C.3    72  LEU72       0.1693
     64  C         60.4210   17.7950   -2.6980 C.2    72  LEU72       0.2592
     65  O         61.3070   17.7030   -1.8410 O.2    72  LEU72      -0.2718
     66  CB        58.1570   17.4860   -1.7730 C.3    72  LEU72       0.0284
     67  CG        56.8460   16.7230   -1.8420 C.3    72  LEU72       0.0019
     68  CD1       56.0860   16.8950   -0.5470 C.3    72  LEU72       0.0001
     69  CD2       56.0310   17.1950   -3.0380 C.3    72  LEU72       0.0001
     70  N         60.4450   18.7560   -3.6070 N.am   73  GLU73      -0.1966
     71  CA        61.4910   19.7470   -3.4390 C.3    73  GLU73       0.1733
     72  C         61.3430   20.4890   -2.1080 C.2    73  GLU73       0.2616
     73  O         60.2420   20.6190   -1.5340 O.2    73  GLU73      -0.2715
     74  CB        61.5800   20.7280   -4.5750 C.3    73  GLU73       0.0429
     75  CG        60.4190   21.6870   -4.6640 C.3    73  GLU73       0.1163
     76  CD        60.6210   22.7230   -5.7500 C.2    73  GLU73       0.3649
     77  OE1       61.6210   23.4800   -5.6250 O.co2  73  GLU73      -0.2457
     78  OE2       59.7830   22.7830   -6.6890 O.co2  73  GLU73      -0.2457
     79  N         62.4730   20.9620   -1.6130 N.am   74  ARG74      -0.1964
     80  CA        62.4780   21.8250   -0.4460 C.3    74  ARG74       0.1714
     81  C         63.3540   23.0380   -0.7000 C.2    74  ARG74       0.2458
     82  O         64.5580   22.9570   -0.7010 O.2    74  ARG74      -0.2730
     83  CB        62.9520   21.0550    0.7690 C.3    74  ARG74       0.0347
     84  CG        63.3270   21.9630    1.9260 C.3    74  ARG74       0.0492
     85  CD        63.1560   21.2480    3.2520 C.3    74  ARG74       0.2205
     86  NE        64.1600   20.1920    3.4090 N.pl3  74  ARG74      -0.0865
     87  CZ        65.3390   20.3890    3.9850 C.cat  74  ARG74       0.5346
     88  NH1       66.2060   19.3890    4.0970 N.pl3  74  ARG74       0.1354
     89  NH2       65.6600   21.5970    4.4370 N.pl3  74  ARG74       0.1354
     90  N         62.7410   24.1810   -0.9380 N.am   75  PRO75      -0.2727
     91  CA        63.5850   25.3530   -1.1130 C.3    75  PRO75       0.1402
     92  C         64.2580   25.6840    0.1880 C.2    75  PRO75       0.2269
     93  O         63.7140   25.4440    1.2590 O.2    75  PRO75      -0.2865
     94  CB        62.5900   26.4460   -1.4890 C.3    75  PRO75       0.0296
     95  CG        61.3870   25.6980   -2.0320 C.3    75  PRO75       0.0237
     96  CD        61.3250   24.4440   -1.2390 C.3    75  PRO75       0.0939
     97  N         63.0240   28.2940    3.4640 N.3    78  ALA78      -0.1231
     98  CA        61.6140   28.4020    3.1310 C.3    78  ALA78       0.1694
     99  C         60.7600   28.4550    4.3780 C.2    78  ALA78       0.2592
    100  O         61.1240   27.9570    5.4570 O.2    78  ALA78      -0.2718
    101  CB        61.2130   27.2200    2.3020 C.3    78  ALA78       0.0304
    102  N         59.5940   29.0470    4.2220 N.am   79  GLN79      -0.1966
    103  CA        58.6810   29.1680    5.3280 C.3    79  GLN79       0.1733
    104  C         57.3230   29.2220    4.7310 C.2    79  GLN79       0.2616
    105  O         57.1280   29.9270    3.7560 O.2    79  GLN79      -0.2715
    106  CB        58.9640   30.4730    6.0900 C.3    79  GLN79       0.0408
    107  CG        58.2960   30.5670    7.4520 C.3    79  GLN79       0.0908
    108  CD        58.6070   31.8750    8.1890 C.2    79  GLN79       0.2608
    109  OE1       59.2880   32.7570    7.6770 O.2    79  GLN79      -0.2717
    110  NE2       58.0840   32.0000    9.3850 N.am   79  GLN79      -0.0878
    111  N         56.3590   28.5160    5.2960 N.am   80  ASP80      -0.1971
    112  CA        55.0380   28.7770    4.8390 C.3    80  ASP80       0.1709
    113  C         54.5360   30.1500    5.2650 C.2    80  ASP80       0.2293
    114  O         55.0520   30.7800    6.1950 O.2    80  ASP80      -0.2864
    115  CB        54.0570   27.6310    5.0950 C.3    80  ASP80       0.1436
    116  CG        53.5750   27.5350    6.4960 C.2    80  ASP80       0.3671
    117  OD1       53.6870   28.4860    7.2930 O.co2  80  ASP80      -0.2456
    118  OD2       53.0250   26.4640    6.7870 O.co2  80  ASP80      -0.2456
    119  N         48.6380   28.1550    4.9940 N.3   123  GLU123     -0.1231
    120  CA        49.4610   26.9960    5.3870 C.3   123  GLU123      0.1699
    121  C         50.0320   26.2380    4.1940 C.2   123  GLU123      0.2592
    122  O         51.0020   25.4970    4.3570 O.2   123  GLU123     -0.2718
    123  CB        48.6680   26.0340    6.2650 C.3   123  GLU123      0.0402
    124  CG        48.7210   26.4970    7.7070 C.3   123  GLU123      0.1161
    125  CD        47.5570   26.0640    8.5990 C.2   123  GLU123      0.3649
    126  OE1       46.3750   26.2800    8.1950 O.co2 123  GLU123     -0.2457
    127  OE2       47.8380   25.5740    9.7480 O.co2 123  GLU123     -0.2457
    128  N         49.4130   26.4190    3.0160 N.am  124  ASN124     -0.1974
    129  CA        49.7510   25.6860    1.8230 C.3   124  ASN124      0.1688
    130  C         50.4180   26.4840    0.7540 C.2   124  ASN124      0.2292
    131  O         50.4430   26.0870   -0.4010 O.2   124  ASN124     -0.2864
    132  CB        48.4920   25.0290    1.2920 C.3   124  ASN124      0.1181
    133  CG        48.1190   23.8630    2.1180 C.2   124  ASN124      0.2629
    134  OD1       48.9110   23.4700    2.9550 O.2   124  ASN124     -0.2716
    135  ND2       46.9350   23.3350    1.9530 N.am  124  ASN124     -0.0877
    136  N         54.1300   27.9990    0.2230 N.3   126  LEU126     -0.1245
    137  CA        55.4520   28.0240    0.7510 C.3   126  LEU126      0.1561
    138  C         56.1390   29.2220    0.1930 C.2   126  LEU126      0.2260
    139  O         56.0830   29.4110   -0.9920 O.2   126  LEU126     -0.2867
    140  CB        56.1730   26.7740    0.3070 C.3   126  LEU126      0.0270
    141  CG        57.4110   26.4890    1.1000 C.3   126  LEU126      0.0019
    142  CD1       56.9820   26.2240    2.5290 C.3   126  LEU126      0.0001
    143  CD2       58.0970   25.2720    0.5020 C.3   126  LEU126      0.0001
    144  N         51.7680   24.0160   -2.1460 N.3   137  ILE137     -0.1231
    145  CA        52.0610   22.6990   -1.6230 C.3   137  ILE137      0.1692
    146  C         50.7830   22.0430   -1.2310 C.2   137  ILE137      0.2592
    147  O         49.7120   22.6930   -1.2190 O.2   137  ILE137     -0.2718
    148  CB        52.9950   22.7170   -0.4230 C.3   137  ILE137      0.0266
    149  CG1       52.5270   23.6880    0.6550 C.3   137  ILE137      0.0019
    150  CG2       54.3990   23.0860   -0.8830 C.3   137  ILE137      0.0020
    151  CD1       53.2260   23.4670    1.9880 C.3   137  ILE137      0.0001
    152  N         50.8990   20.7470   -0.9680 N.am  138  ASP138     -0.1974
    153  CA        49.8280   19.8880   -0.4380 C.3   138  ASP138      0.1709
    154  C         48.6550   19.6060   -1.3680 C.2   138  ASP138      0.2293
    155  O         47.5540   20.0680   -1.1240 O.2   138  ASP138     -0.2864
    156  CB        49.2650   20.4070    0.8730 C.3   138  ASP138      0.1436
    157  CG        48.3060   19.3970    1.5460 C.2   138  ASP138      0.3671
    158  OD1       48.1040   18.2810    1.0150 O.co2 138  ASP138     -0.2456
    159  OD2       47.7540   19.7170    2.6270 O.co2 138  ASP138     -0.2456
@<TRIPOS>BOND
     1    78    76   ar
     2    57    56    2
     3    48    47    2
     4    56    55    1
     5    54    55    1
     6    47    46    1
     7    76    77   ar
     8    76    75    1
     9    55    58    1
    10    45    46    1
    11    46    49    1
    12    75    74    1
    13    74    71    1
    14    58    60    1
    15    58    59    1
    16    70    71    1
    17    70    64   am
    18    49    50    1
    19    71    72    1
    20    50    51    1
    21    69    67    1
    22    59    61    1
    23    64    63    1
    24    64    65    2
    25    63    62    1
    26    63    66    1
    27   144   145    1
    28    72    79   am
    29    72    73    2
    30    95    94    1
    31    95    96    1
    32    51    53   ar
    33    51    52   ar
    34    67    66    1
    35    67    68    1
    36   145   146    1
    37   145   148    1
    38    79    80    1
    39    94    91    1
    40   154   155    2
    41   154   153    1
    42    96    90    1
    43   146   147    2
    44   146   152   am
    45    91    90    1
    46    91    92    1
    47   139   138    2
    48   152   153    1
    49    90    81   am
    50   150   148    1
    51    82    81    2
    52    81    80    1
    53    80    83    1
    54   153   156    1
    55   148   149    1
    56   131   130    2
    57    92    93    2
    58   138   137    1
    59   136   137    1
    60   140   137    1
    61   140   141    1
    62   143   141    1
    63    34    33    2
    64   149   151    1
    65   130   129    1
    66    83    84    1
    67   156   157    1
    68   158   157   ar
    69    31    32    1
    70    44    43    1
    71   141   142    1
    72   132   129    1
    73   132   133    1
    74   157   159   ar
    75    42    43    1
    76    42    41    1
    77    33    32    1
    78   129   128    1
    79    84    85    1
    80   135   133   am
    81    35    32    1
    82   133   134    2
    83    40    41    1
    84    40    37    1
    85    39    38    2
    86   101    98    1
    87    36    37    1
    88   128   121   am
    89    37    38    1
    90    98    97    1
    91    98    99    1
    92    85    86    1
    93    86    87    2
    94   105   104    2
    95    87    88    1
    96    87    89    1
    97   121   122    2
    98   121   120    1
    99   102    99   am
   100   102   103    1
   101    99   100    2
   102    16    15    2
   103    29    28    1
   104   104   111   am
   105   104   103    1
   106   112   115    1
   107   112   113    1
   108   112   111    1
   109    17    14    1
   110    17    18    1
   111   119   120    1
   112    30    28    1
   113   115   116    1
   114    14    15    1
   115    14    13    1
   116   113   114    2
   117   103   106    1
   118   120   123    1
   119    28    25    1
   120   106   107    1
   121    18    20   ar
   122    18    19   ar
   123   123   124    1
   124    25    26    1
   125    25    24    1
   126     7     6    1
   127   116   118   ar
   128   116   117   ar
   129    20    22   ar
   130    19    21   ar
   131    26    27    2
   132   107   108    1
   133    22    23   ar
   134   109   108    2
   135   124   125    1
   136    21    23   ar
   137     6     5    1
   138     6     8    1
   139   108   110   am
   140   126   125   ar
   141     5     2    1
   142   125   127   ar
   143    12    11    2
   144     2     3    1
   145     2     1    1
   146     9     3   am
   147     9    10    1
   148     3     4    2
   149    11    10    1
