@<TRIPOS>MOLECULE
tmp/4x7rA01.pdb
 181 174 0 0 0
SMALL
GASTEIGER

@<TRIPOS>ATOM
      1  N          6.3430  -10.6370  -90.2430 N.3     8  VAL8       -0.1231
      2  CA         7.0930   -9.3890  -90.0610 C.3     8  VAL8        0.1692
      3  C          7.7920   -9.4410  -88.6870 C.2     8  VAL8        0.2592
      4  O          7.3870  -10.2140  -87.8080 O.2     8  VAL8       -0.2718
      5  CB         6.1430   -8.1630  -90.2370 C.3     8  VAL8        0.0266
      6  CG1        5.1260   -8.0170  -89.0880 C.3     8  VAL8        0.0020
      7  CG2        6.9110   -6.8740  -90.4530 C.3     8  VAL8        0.0020
      8  N          8.8370   -8.6320  -88.5030 N.am    9  HIS9       -0.1962
      9  CA         9.5490   -8.5620  -87.2390 C.3     9  HIS9        0.1787
     10  C          8.6010   -8.2690  -86.0620 C.2     9  HIS9        0.2620
     11  O          8.5450   -9.0570  -85.1160 O.2     9  HIS9       -0.2715
     12  CB        10.6360   -7.4780  -87.3330 C.3     9  HIS9        0.0785
     13  CG        11.2790   -7.1640  -86.0270 C.ar    9  HIS9        0.0821
     14  ND1       11.7770   -8.1670  -85.2100 N.ar    9  HIS9       -0.2267
     15  CD2       11.5240   -5.9630  -85.4520 C.ar    9  HIS9        0.1154
     16  CE1       12.2590   -7.5510  -84.1460 C.ar    9  HIS9        0.1986
     17  NE2       12.1440   -6.2260  -84.2490 N.ar    9  HIS9       -0.2212
     18  N          7.8630   -7.1460  -86.1300 N.am   10  GLU10      -0.1977
     19  CA         6.9810   -6.6650  -85.0600 C.3    10  GLU10       0.1602
     20  C          5.8550   -5.8260  -85.6100 C.2    10  GLU10       0.2287
     21  O          5.8840   -5.4150  -86.7810 O.2    10  GLU10      -0.2864
     22  CB         7.7840   -5.7460  -84.1100 C.3    10  GLU10       0.0415
     23  CG         8.1470   -4.3800  -84.7050 C.3    10  GLU10       0.1163
     24  CD         8.7560   -3.3690  -83.7520 C.2    10  GLU10       0.3649
     25  OE1        8.1980   -3.1390  -82.6550 O.co2  10  GLU10      -0.2457
     26  OE2        9.7600   -2.7440  -84.1490 O.co2  10  GLU10      -0.2457
     27  N          4.0260    3.1880  -87.1790 N.3    15  LYS15      -0.1231
     28  CA         4.7460    2.6230  -88.3270 C.3    15  LYS15       0.1693
     29  C          4.3320    3.1710  -89.7070 C.2    15  LYS15       0.2593
     30  O          3.3720    3.9340  -89.8270 O.2    15  LYS15      -0.2718
     31  CB         4.7120    1.0720  -88.2890 C.3    15  LYS15       0.0285
     32  CG         5.3490    0.4380  -87.0440 C.3    15  LYS15       0.0035
     33  CD         6.8670    0.3880  -87.1330 C.3    15  LYS15       0.0206
     34  CE         7.5370    0.1380  -85.8070 C.3    15  LYS15       0.1093
     35  NZ         7.4490    1.3270  -84.9100 N.3    15  LYS15      -0.1314
     36  N          5.0860    2.7640  -90.7270 N.am   16  GLY16      -0.1942
     37  CA         4.9180    3.1610  -92.1150 C.3    16  GLY16       0.2014
     38  C          4.1820    2.1690  -92.9910 C.2    16  GLY16       0.2639
     39  O          3.3130    1.4200  -92.5260 O.2    16  GLY16      -0.2714
     40  N          4.5390    2.1830  -94.2740 N.am   17  GLY17      -0.1939
     41  CA         3.8450    1.4570  -95.3290 C.3    17  GLY17       0.2014
     42  C          3.8260   -0.0410  -95.2870 C.2    17  GLY17       0.2639
     43  O          2.8450   -0.6260  -95.7320 O.2    17  GLY17      -0.2714
     44  N          4.8970   -0.6850  -94.8260 N.am   18  MET18      -0.1963
     45  CA         4.9240   -2.1480  -94.8350 C.3    18  MET18       0.1736
     46  C          3.8460   -2.7470  -93.9760 C.2    18  MET18       0.2617
     47  O          3.1420   -3.6330  -94.4540 O.2    18  MET18      -0.2715
     48  CB         6.3190   -2.7300  -94.4990 C.3    18  MET18       0.0427
     49  CG         6.3160   -4.2630  -94.2340 C.3    18  MET18       0.0599
     50  SD         7.9520   -5.0060  -94.0680 S.3    18  MET18      -0.1393
     51  CE         8.4980   -4.2640  -92.5050 C.3    18  MET18       0.0692
     52  N          3.6870   -2.2690  -92.7190 N.am   19  THR19      -0.1951
     53  CA         2.6430   -2.8300  -91.8510 C.3    19  THR19       0.1897
     54  C          1.2890   -2.3360  -92.2650 C.2    19  THR19       0.2313
     55  O          0.3320   -3.0950  -92.2100 O.2    19  THR19      -0.2863
     56  CB         2.9550   -2.7180  -90.3510 C.3    19  THR19       0.1794
     57  OG1        3.1700   -1.3500  -90.0320 O.3    19  THR19      -0.2208
     58  CG2        4.1660   -3.5490  -89.9390 C.3    19  THR19       0.0378
     59  N          7.8880  -11.7550  -84.3190 N.3    41  PHE41      -0.1227
     60  CA         8.9610  -12.4800  -83.6480 C.3    41  PHE41       0.1736
     61  C          9.6570  -11.6930  -82.5460 C.2    41  PHE41       0.2595
     62  O         10.4940  -12.2500  -81.8600 O.2    41  PHE41      -0.2718
     63  CB         9.9810  -13.0170  -84.6990 C.3    41  PHE41       0.0547
     64  CG         9.3300  -13.8420  -85.7950 C.ar   41  PHE41      -0.0202
     65  CD1        9.0040  -15.1780  -85.5830 C.ar   41  PHE41      -0.0042
     66  CD2        9.0400  -13.2750  -87.0400 C.ar   41  PHE41      -0.0042
     67  CE1        8.3780  -15.9360  -86.5870 C.ar   41  PHE41      -0.0003
     68  CE2        8.4080  -14.0250  -88.0360 C.ar   41  PHE41      -0.0003
     69  CZ         8.0720  -15.3520  -87.8030 C.ar   41  PHE41      -0.0000
     70  N          9.2950  -10.4300  -82.3300 N.am   42  ASP42      -0.1974
     71  CA         9.9430   -9.6550  -81.2820 C.3    42  ASP42       0.1709
     72  C          9.2990   -9.9210  -79.9140 C.2    42  ASP42       0.2293
     73  O          8.2020  -10.4900  -79.8080 O.2    42  ASP42      -0.2864
     74  CB         9.8320   -8.1440  -81.5990 C.3    42  ASP42       0.1436
     75  CG         8.4000   -7.6530  -81.5340 C.2    42  ASP42       0.3671
     76  OD1        7.5060   -8.3610  -82.0460 O.co2  42  ASP42      -0.2456
     77  OD2        8.1750   -6.5510  -80.9910 O.co2  42  ASP42      -0.2456
     78  N         25.0280  -13.1900  -76.7570 N.3   182  ASN182     -0.1240
     79  CA        26.4290  -12.9320  -77.1050 C.3   182  ASN182      0.1653
     80  C         26.6010  -11.4230  -76.9160 C.2   182  ASN182      0.2266
     81  O         26.0930  -10.6510  -77.7200 O.2   182  ASN182     -0.2867
     82  CB        26.6700  -13.3560  -78.5780 C.3   182  ASN182      0.1155
     83  CG        28.0540  -13.1120  -79.1390 C.2   182  ASN182      0.2627
     84  OD1       28.9460  -12.5550  -78.5030 O.2   182  ASN182     -0.2716
     85  ND2       28.2490  -13.5220  -80.3750 N.am  182  ASN182     -0.0877
     86  N         27.8560   -8.8030  -79.8700 N.3   185  ASN185     -0.1225
     87  CA        26.9680   -8.3580  -80.9500 C.3   185  ASN185      0.1785
     88  C         25.4750   -8.3510  -80.6050 C.2   185  ASN185      0.2598
     89  O         24.6520   -8.0440  -81.4800 O.2   185  ASN185     -0.2718
     90  CB        27.2180   -9.1810  -82.2290 C.3   185  ASN185      0.1169
     91  CG        26.9700  -10.6700  -82.1100 C.2   185  ASN185      0.2627
     92  OD1       26.3330  -11.1610  -81.1790 O.2   185  ASN185     -0.2716
     93  ND2       27.4720  -11.4320  -83.0640 N.am  185  ASN185     -0.0877
     94  N         25.1320   -8.7470  -79.3760 N.am  186  GLY186     -0.1942
     95  CA        23.7450   -8.8230  -78.9130 C.3   186  GLY186      0.2014
     96  C         22.9150   -9.9220  -79.5500 C.2   186  GLY186      0.2639
     97  O         21.6920   -9.9160  -79.4140 O.2   186  GLY186     -0.2714
     98  N         23.5550  -10.8870  -80.2400 N.am  187  ALA187     -0.1963
     99  CA        22.8410  -11.9930  -80.8860 C.3   187  ALA187      0.1728
    100  C         22.4120  -13.0280  -79.8410 C.2   187  ALA187      0.2616
    101  O         23.1100  -13.2470  -78.8500 O.2   187  ALA187     -0.2715
    102  CB        23.7140  -12.6600  -81.9300 C.3   187  ALA187      0.0334
    103  N         21.2870  -13.6880  -80.1050 N.am  188  VAL188     -0.1977
    104  CA        20.7290  -14.7060  -79.2350 C.3   188  VAL188      0.1596
    105  C         21.4000  -16.0560  -79.5130 C.2   188  VAL188      0.2287
    106  O         21.4620  -16.5110  -80.6550 O.2   188  VAL188     -0.2864
    107  CB        19.1770  -14.7540  -79.3460 C.3   188  VAL188      0.0276
    108  CG1       18.5810  -15.8410  -78.4570 C.3   188  VAL188      0.0022
    109  CG2       18.5560  -13.4000  -79.0250 C.3   188  VAL188      0.0022
    110  N         19.6910  -21.1780  -81.3900 N.3   202  ASN202     -0.1225
    111  CA        19.5930  -19.7170  -81.5260 C.3   202  ASN202      0.1785
    112  C         18.1290  -19.3230  -81.7760 C.2   202  ASN202      0.2597
    113  O         17.2680  -20.1910  -81.8200 O.2   202  ASN202     -0.2718
    114  CB        20.5560  -19.1830  -82.6340 C.3   202  ASN202      0.1169
    115  CG        20.3910  -19.8630  -83.9800 C.2   202  ASN202      0.2627
    116  OD1       19.3460  -20.4310  -84.3100 O.2   202  ASN202     -0.2716
    117  ND2       21.4430  -19.8840  -84.7690 N.am  202  ASN202     -0.0877
    118  N         17.8510  -18.0250  -81.8920 N.am  203  ASN203     -0.1960
    119  CA        16.5040  -17.4750  -82.1170 C.3   203  ASN203      0.1819
    120  C         15.8560  -17.9380  -83.4340 C.2   203  ASN203      0.2621
    121  O         14.6540  -18.2020  -83.4650 O.2   203  ASN203     -0.2715
    122  CB        16.5270  -15.9460  -82.0510 C.3   203  ASN203      0.1195
    123  CG        15.1710  -15.3470  -81.9770 C.2   203  ASN203      0.2630
    124  OD1       14.3880  -15.6290  -81.0610 O.2   203  ASN203     -0.2716
    125  ND2       14.8130  -14.5950  -82.9870 N.am  203  ASN203     -0.0877
    126  N         16.6450  -18.0570  -84.5080 N.am  204  LEU204     -0.1977
    127  CA        16.1250  -18.5090  -85.8060 C.3   204  LEU204      0.1596
    128  C         15.5860  -19.9250  -85.6560 C.2   204  LEU204      0.2287
    129  O         14.4750  -20.1680  -86.0820 O.2   204  LEU204     -0.2864
    130  CB        17.2300  -18.4050  -86.8860 C.3   204  LEU204      0.0297
    131  CG        17.0140  -19.0910  -88.2310 C.3   204  LEU204      0.0022
    132  CD1       15.8540  -18.4340  -89.0180 C.3   204  LEU204      0.0001
    133  CD2       18.3100  -19.0600  -89.0490 C.3   204  LEU204      0.0001
    134  N          8.4750   -9.0040  -93.9050 N.3   227  GLY227     -0.1210
    135  CA         9.7150   -8.4650  -93.3490 C.3   227  GLY227      0.1940
    136  C         10.8920   -9.1530  -94.0040 C.2   227  GLY227      0.2454
    137  O         11.0040  -10.3760  -93.9090 O.2   227  GLY227     -0.2732
    138  N         11.7400   -8.4360  -94.7640 N.am  228  PRO228     -0.2717
    139  CA        12.8400   -9.1270  -95.4850 C.3   228  PRO228      0.1536
    140  C         13.8320   -9.8840  -94.6070 C.2   228  PRO228      0.2599
    141  O         14.2800  -10.9790  -94.9740 O.2   228  PRO228     -0.2715
    142  CB        13.5040   -8.0010  -96.2920 C.3   228  PRO228      0.0310
    143  CG        13.1240   -6.7230  -95.5780 C.3   228  PRO228      0.0237
    144  CD        11.7400   -6.9780  -95.0320 C.3   228  PRO228      0.0939
    145  N         14.1740   -9.3060  -93.4530 N.am  229  GLY229     -0.1941
    146  CA        15.0980   -9.9490  -92.5290 C.3   229  GLY229      0.2014
    147  C         14.5000  -11.2060  -91.9120 C.2   229  GLY229      0.2639
    148  O         15.2400  -12.0560  -91.4020 O.2   229  GLY229     -0.2714
    149  N         13.1450  -11.3450  -91.9780 N.am  230  SER230     -0.1949
    150  CA        12.4290  -12.5190  -91.4680 C.3   230  SER230      0.1924
    151  C         12.3740  -13.6850  -92.4430 C.2   230  SER230      0.2314
    152  O         11.9400  -14.7640  -92.0490 O.2   230  SER230     -0.2863
    153  CB        11.0080  -12.1490  -91.0430 C.3   230  SER230      0.2116
    154  OG        11.0950  -11.6410  -89.7230 O.3   230  SER230     -0.2180
    155  N         13.3790  -17.3710  -91.4470 N.3   233  LYS233     -0.1245
    156  CA        12.4360  -18.0860  -90.5530 C.3   233  LYS233      0.1561
    157  C         11.4550  -18.9110  -91.3430 C.2   233  LYS233      0.2260
    158  O         11.2680  -20.0880  -91.0170 O.2   233  LYS233     -0.2867
    159  CB        11.7130  -17.1420  -89.5920 C.3   233  LYS233      0.0271
    160  CG        12.6830  -16.3980  -88.6910 C.3   233  LYS233      0.0035
    161  CD        12.0120  -15.2700  -87.9870 C.3   233  LYS233      0.0206
    162  CE        12.9320  -14.6880  -86.9530 C.3   233  LYS233      0.1093
    163  NZ        13.6520  -13.5040  -87.4740 N.3   233  LYS233     -0.1314
    164  N          7.3720    8.2060  -92.8860 N.3   326  ARG326     -0.1245
    165  CA         8.3350    7.8580  -91.8470 C.3   326  ARG326      0.1563
    166  C          9.4500    8.8860  -92.1320 C.2   326  ARG326      0.2260
    167  O          9.7690    9.1150  -93.3130 O.2   326  ARG326     -0.2867
    168  CB         8.9220    6.4580  -92.0850 C.3   326  ARG326      0.0307
    169  CG         7.9950    5.3050  -91.8010 C.3   326  ARG326      0.0489
    170  CD         8.7120    3.9730  -92.0160 C.3   326  ARG326      0.2205
    171  NE         9.0880    3.7740  -93.4200 N.pl3 326  ARG326     -0.0865
    172  CZ        10.3140    3.4870  -93.8440 C.cat 326  ARG326      0.5346
    173  NH1       11.3050    3.3350  -92.9770 N.pl3 326  ARG326      0.1354
    174  NH2       10.5570    3.3400  -95.1390 N.pl3 326  ARG326      0.1354
    175  N         12.7030    9.3140  -92.5510 N.3   328  VAL328     -0.1245
    176  CA        13.9190    8.5340  -92.7740 C.3   328  VAL328      0.1561
    177  C         14.7560    9.0660  -93.9370 C.2   328  VAL328      0.2260
    178  O         14.2040    9.7330  -94.8110 O.2   328  VAL328     -0.2867
    179  CB        13.6370    6.9970  -92.8860 C.3   328  VAL328      0.0252
    180  CG1       13.1570    6.4120  -91.5660 C.3   328  VAL328      0.0019
    181  CG2       12.6850    6.6590  -94.0350 C.3   328  VAL328      0.0019
@<TRIPOS>BOND
     1   142   143    1
     2   142   139    1
     3    43    42    2
     4   143   144    1
     5   139   138    1
     6   139   140    1
     7    41    42    1
     8    41    40    1
     9    42    44   am
    10   174   172    1
    11   144   138    1
    12   141   140    2
    13    45    44    1
    14    45    48    1
    15    45    46    1
    16   178   177    2
    17   138   136   am
    18   140   145   am
    19    48    49    1
    20    47    46    2
    21    40    38   am
    22    49    50    1
    23    50    51    1
    24   181   179    1
    25   136   137    2
    26   136   135    1
    27    46    52   am
    28   177   176    1
    29   134   135    1
    30   172   171    2
    31   172   173    1
    32   145   146    1
    33   171   170    1
    34   167   166    2
    35    38    39    2
    36    38    37    1
    37   164   165    1
    38   179   176    1
    39   179   180    1
    40   176   175    1
    41    52    53    1
    42   146   147    1
    43   151   152    2
    44   151   150    1
    45    54    55    2
    46    54    53    1
    47   166   165    1
    48    37    36    1
    49   168   165    1
    50   168   169    1
    51   170   169    1
    52   149   147   am
    53   149   150    1
    54   147   148    2
    55    53    56    1
    56   150   153    1
    57   155   156    1
    58   157   158    2
    59   157   156    1
    60   153   154    1
    61    36    29   am
    62   156   159    1
    63     7     5    1
    64    56    57    1
    65    56    58    1
    66     1     2    1
    67     5     2    1
    68     5     6    1
    69     2     3    1
    70    30    29    2
    71    29    28    1
    72   159   160    1
    73   133   131    1
    74   132   131    1
    75   160   161    1
    76     3     8   am
    77     3     4    2
    78     8     9    1
    79    28    31    1
    80    28    27    1
    81    31    32    1
    82   131   130    1
    83    68    69   ar
    84    68    66   ar
    85   161   162    1
    86    69    67   ar
    87   163   162    1
    88    12     9    1
    89    12    13    1
    90     9    10    1
    91    33    32    1
    92    33    34    1
    93    66    64   ar
    94   130   127    1
    95    21    20    2
    96    67    65   ar
    97    18    10   am
    98    18    19    1
    99   129   128    2
   100    10    11    2
   101    13    15   ar
   102    13    14   ar
   103    34    35    1
   104   127   128    1
   105   127   126    1
   106    64    65   ar
   107    64    63    1
   108    20    19    1
   109    15    17   ar
   110    14    16   ar
   111    19    22    1
   112   117   115   am
   113    23    22    1
   114    23    24    1
   115    63    60    1
   116   126   120   am
   117    59    60    1
   118   116   115    2
   119    17    16   ar
   120    26    24   ar
   121   115   114    1
   122    24    25   ar
   123    60    61    1
   124   121   120    2
   125   120   119    1
   126    93    91   am
   127   125   123   am
   128   114   111    1
   129    61    70   am
   130    61    62    2
   131    70    71    1
   132    90    91    1
   133    90    87    1
   134   119   122    1
   135   119   118    1
   136    91    92    2
   137   122   123    1
   138    76    75   ar
   139   123   124    2
   140   102    99    1
   141   118   112   am
   142   113   112    2
   143   112   111    1
   144    74    75    1
   145    74    71    1
   146    75    77   ar
   147   111   110    1
   148    89    88    2
   149    71    72    1
   150    87    88    1
   151    87    86    1
   152    99    98    1
   153    99   100    1
   154   106   105    2
   155    88    94   am
   156    85    83   am
   157    98    96   am
   158   103   100   am
   159   103   104    1
   160    72    73    2
   161   100   101    2
   162    96    97    2
   163    96    95    1
   164   105   104    1
   165    94    95    1
   166   107   104    1
   167   107   109    1
   168   107   108    1
   169    83    82    1
   170    83    84    2
   171    82    79    1
   172    81    80    2
   173    79    80    1
   174    79    78    1
