@<TRIPOS>MOLECULE
tmp/4x7rA00.pdb
 140 131 0 0 0
SMALL
GASTEIGER

@<TRIPOS>ATOM
      1  N          4.0260    3.1880  -87.1790 N.3    15  LYS15      -0.1231
      2  CA         4.7460    2.6230  -88.3270 C.3    15  LYS15       0.1693
      3  C          4.3320    3.1710  -89.7070 C.2    15  LYS15       0.2593
      4  O          3.3720    3.9340  -89.8270 O.2    15  LYS15      -0.2718
      5  CB         4.7120    1.0720  -88.2890 C.3    15  LYS15       0.0285
      6  CG         5.3490    0.4380  -87.0440 C.3    15  LYS15       0.0035
      7  CD         6.8670    0.3880  -87.1330 C.3    15  LYS15       0.0206
      8  CE         7.5370    0.1380  -85.8070 C.3    15  LYS15       0.1093
      9  NZ         7.4490    1.3270  -84.9100 N.3    15  LYS15      -0.1314
     10  N          5.0860    2.7640  -90.7270 N.am   16  GLY16      -0.1942
     11  CA         4.9180    3.1610  -92.1150 C.3    16  GLY16       0.2014
     12  C          4.1820    2.1690  -92.9910 C.2    16  GLY16       0.2639
     13  O          3.3130    1.4200  -92.5260 O.2    16  GLY16      -0.2714
     14  N          4.5390    2.1830  -94.2740 N.am   17  GLY17      -0.1939
     15  CA         3.8450    1.4570  -95.3290 C.3    17  GLY17       0.2014
     16  C          3.8260   -0.0410  -95.2870 C.2    17  GLY17       0.2638
     17  O          2.8450   -0.6260  -95.7320 O.2    17  GLY17      -0.2714
     18  N          4.8970   -0.6850  -94.8260 N.am   18  MET18      -0.1976
     19  CA         4.9240   -2.1480  -94.8350 C.3    18  MET18       0.1605
     20  C          3.8460   -2.7470  -93.9760 C.2    18  MET18       0.2287
     21  O          3.1420   -3.6330  -94.4540 O.2    18  MET18      -0.2864
     22  CB         6.3190   -2.7300  -94.4990 C.3    18  MET18       0.0413
     23  CG         6.3160   -4.2630  -94.2340 C.3    18  MET18       0.0598
     24  SD         7.9520   -5.0060  -94.0680 S.3    18  MET18      -0.1393
     25  CE         8.4980   -4.2640  -92.5050 C.3    18  MET18       0.0692
     26  N          1.2180   -1.0910  -92.7250 N.3    20  SER20      -0.1217
     27  CA        -0.0030   -0.4990  -93.2720 C.3    20  SER20       0.1889
     28  C         -0.5290   -1.4240  -94.4200 C.2    20  SER20       0.2288
     29  O         -1.6820   -1.7980  -94.4070 O.2    20  SER20      -0.2866
     30  CB         0.2990    0.9020  -93.8090 C.3    20  SER20       0.2089
     31  OG        -0.8330    1.5740  -94.3280 O.3    20  SER20      -0.2183
     32  N         -6.4850    1.0580  -87.7780 N.3    59  LYS59      -0.1245
     33  CA        -5.3440    0.6840  -88.6320 C.3    59  LYS59       0.1561
     34  C         -5.4050   -0.8200  -88.8800 C.2    59  LYS59       0.2260
     35  O         -5.3730   -1.2820  -90.0200 O.2    59  LYS59      -0.2867
     36  CB        -3.9940    1.0280  -87.9730 C.3    59  LYS59       0.0271
     37  CG        -3.6780    2.5140  -87.9480 C.3    59  LYS59       0.0035
     38  CD        -2.2460    2.7980  -88.3750 C.3    59  LYS59       0.0206
     39  CE        -2.0950    4.2670  -88.7120 C.3    59  LYS59       0.1093
     40  NZ        -0.7280    4.5910  -89.1690 N.3    59  LYS59      -0.1314
     41  N          3.3280   13.2250  -95.7190 N.3   324  ILE324     -0.1231
     42  CA         3.0570   12.2400  -94.6660 C.3   324  ILE324      0.1692
     43  C          3.9310   11.0140  -94.9030 C.2   324  ILE324      0.2593
     44  O          3.6800   10.2710  -95.8540 O.2   324  ILE324     -0.2718
     45  CB         1.5410   11.8490  -94.5870 C.3   324  ILE324      0.0266
     46  CG1        0.6040   13.0800  -94.4750 C.3   324  ILE324      0.0019
     47  CG2        1.2900   10.8730  -93.4360 C.3   324  ILE324      0.0020
     48  CD1       -0.8980   12.7640  -94.8070 C.3   324  ILE324      0.0001
     49  N          4.9520   10.7910  -94.0460 N.am  325  SER325     -0.1938
     50  CA         5.8490    9.6360  -94.1670 C.3   325  SER325      0.2055
     51  C          6.5990    9.3230  -92.8700 C.2   325  SER325      0.2642
     52  O          6.5240   10.0850  -91.8980 O.2   325  SER325     -0.2714
     53  CB         6.8760    9.8830  -95.2740 C.3   325  SER325      0.2130
     54  OG         7.9000   10.7730  -94.8570 O.3   325  SER325     -0.2179
     55  N          7.3720    8.2060  -92.8860 N.am  326  ARG326     -0.1977
     56  CA         8.3350    7.8580  -91.8470 C.3   326  ARG326      0.1597
     57  C          9.4500    8.8860  -92.1320 C.2   326  ARG326      0.2287
     58  O          9.7690    9.1150  -93.3130 O.2   326  ARG326     -0.2864
     59  CB         8.9220    6.4580  -92.0850 C.3   326  ARG326      0.0334
     60  CG         7.9950    5.3050  -91.8010 C.3   326  ARG326      0.0492
     61  CD         8.7120    3.9730  -92.0160 C.3   326  ARG326      0.2205
     62  NE         9.0880    3.7740  -93.4200 N.pl3 326  ARG326     -0.0865
     63  CZ        10.3140    3.4870  -93.8440 C.cat 326  ARG326      0.5346
     64  NH1       11.3050    3.3350  -92.9770 N.pl3 326  ARG326      0.1354
     65  NH2       10.5570    3.3400  -95.1390 N.pl3 326  ARG326      0.1354
     66  N         13.5750    9.2470  -97.8300 N.3   331  LYS331     -0.1245
     67  CA        12.4900   10.1840  -98.1240 C.3   331  LYS331      0.1561
     68  C         13.0230   11.5500  -98.5240 C.2   331  LYS331      0.2260
     69  O         12.2860   12.3460  -99.1150 O.2   331  LYS331     -0.2867
     70  CB        11.5040   10.2770  -96.9430 C.3   331  LYS331      0.0271
     71  CG        10.8910    8.9350  -96.5220 C.3   331  LYS331      0.0035
     72  CD         9.9100    8.3510  -97.5410 C.3   331  LYS331      0.0206
     73  CE         9.5570    6.9440  -97.1410 C.3   331  LYS331      0.1093
     74  NZ         8.6570    6.2960  -98.1310 N.3   331  LYS331     -0.1314
     75  N          4.8300   12.7850  -89.3860 N.3   356  GLY356     -0.1225
     76  CA         5.6220   11.5920  -89.1300 C.3   356  GLY356      0.1811
     77  C          6.6930   11.7860  -88.0830 C.2   356  GLY356      0.2280
     78  O          6.8330   12.8760  -87.5190 O.2   356  GLY356     -0.2866
     79  N          3.6010   12.5290  -85.8110 N.3   382  TYR382     -0.1227
     80  CA         2.9050   11.3810  -86.3940 C.3   382  TYR382      0.1736
     81  C          1.3970   11.5700  -86.3940 C.2   382  TYR382      0.2596
     82  O          0.8360   12.0910  -85.4280 O.2   382  TYR382     -0.2718
     83  CB         3.2830   10.0660  -85.6730 C.3   382  TYR382      0.0548
     84  CG         2.8300    8.8220  -86.4130 C.ar  382  TYR382     -0.0200
     85  CD1        3.6470    8.2150  -87.3620 C.ar  382  TYR382     -0.0009
     86  CD2        1.5780    8.2690  -86.1820 C.ar  382  TYR382     -0.0009
     87  CE1        3.2330    7.0770  -88.0480 C.ar  382  TYR382      0.0417
     88  CE2        1.1510    7.1330  -86.8650 C.ar  382  TYR382      0.0417
     89  CZ         1.9780    6.5490  -87.8070 C.ar  382  TYR382      0.1957
     90  OH         1.5620    5.4300  -88.4810 O.3   382  TYR382     -0.2866
     91  N          0.7410   11.1330  -87.4750 N.am  383  THR383     -0.1953
     92  CA        -0.7120   11.1900  -87.5880 C.3   383  THR383      0.1897
     93  C         -1.3170    9.7870  -87.6920 C.2   383  THR383      0.2313
     94  O         -0.8820    8.9840  -88.5300 O.2   383  THR383     -0.2863
     95  CB        -1.1710   12.1780  -88.6660 C.3   383  THR383      0.1794
     96  OG1       -2.5910   12.2720  -88.6140 O.3   383  THR383     -0.2208
     97  CG2       -0.7060   11.8030  -90.0900 C.3   383  THR383      0.0378
     98  N         -4.1970    9.9750  -91.2510 N.3   386  PRO386     -0.2116
     99  CA        -3.6420   10.6770  -92.4320 C.3   386  PRO386      0.1372
    100  C         -4.7010   11.1650  -93.4150 C.2   386  PRO386      0.2244
    101  O         -4.5300   12.2410  -93.9800 O.2   386  PRO386     -0.2868
    102  CB        -2.6800    9.6580  -93.0490 C.3   386  PRO386      0.0268
    103  CG        -3.1360    8.3340  -92.5550 C.3   386  PRO386      0.0207
    104  CD        -3.7150    8.5780  -91.1860 C.3   386  PRO386      0.0892
    105  N         11.5760    3.8320 -103.6430 N.3   403  GLU403     -0.1245
    106  CA        10.2990    3.2830 -103.2050 C.3   403  GLU403      0.1567
    107  C         10.0970    1.9130 -103.8460 C.2   403  GLU403      0.2260
    108  O         10.6910    1.6010 -104.8900 O.2   403  GLU403     -0.2867
    109  CB         9.0980    4.2010 -103.5900 C.3   403  GLU403      0.0388
    110  CG         9.0210    5.5770 -102.9450 C.3   403  GLU403      0.1160
    111  CD         8.8280    5.5930 -101.4390 C.2   403  GLU403      0.3649
    112  OE1        8.3550    4.5790 -100.8760 O.co2 403  GLU403     -0.2457
    113  OE2        9.1590    6.6290 -100.8190 O.co2 403  GLU403     -0.2457
    114  N          4.7990    3.3100 -102.9550 N.3   406  GLY406     -0.1210
    115  CA         4.4730    4.6270 -102.4010 C.3   406  GLY406      0.1956
    116  C          3.0160    4.8330 -102.0710 C.2   406  GLY406      0.2612
    117  O          2.3000    5.5380 -102.7800 O.2   406  GLY406     -0.2717
    118  N          2.5840    4.2590 -100.9600 N.am  407  LEU407     -0.1965
    119  CA         1.2010    4.3630 -100.5260 C.3   407  LEU407      0.1728
    120  C          0.7610    5.7770 -100.1920 C.2   407  LEU407      0.2616
    121  O         -0.3880    6.0880 -100.4510 O.2   407  LEU407     -0.2715
    122  CB         0.8800    3.3900  -99.3800 C.3   407  LEU407      0.0311
    123  CG         0.9660    1.8750  -99.7050 C.3   407  LEU407      0.0022
    124  CD1        0.8920    1.0500  -98.4130 C.3   407  LEU407      0.0001
    125  CD2       -0.1580    1.4490 -100.6600 C.3   407  LEU407      0.0001
    126  N          1.6390    6.6270  -99.6220 N.am  408  SER408     -0.1950
    127  CA         1.2720    8.0130  -99.2580 C.3   408  SER408      0.1924
    128  C          0.8960    8.8220 -100.4890 C.2   408  SER408      0.2314
    129  O         -0.1120    9.5330 -100.4690 O.2   408  SER408     -0.2863
    130  CB         2.4000    8.7020  -98.4960 C.3   408  SER408      0.2116
    131  OG         2.2630    8.5250  -97.0970 O.3   408  SER408     -0.2180
    132  N         -2.3960    7.3830 -101.6000 N.3   411  GLU411     -0.1245
    133  CA        -3.4180    7.8340 -100.6360 C.3   411  GLU411      0.1567
    134  C         -3.8440    9.2730 -100.9300 C.2   411  GLU411      0.2260
    135  O         -5.0360    9.5460 -100.9610 O.2   411  GLU411     -0.2867
    136  CB        -2.9210    7.7050  -99.1930 C.3   411  GLU411      0.0388
    137  CG        -2.8710    6.2700  -98.6900 C.3   411  GLU411      0.1160
    138  CD        -2.0890    6.0680  -97.4080 C.2   411  GLU411      0.3649
    139  OE1       -1.8800    7.0610  -96.6720 O.co2 411  GLU411     -0.2457
    140  OE2       -1.6580    4.9200  -97.1510 O.co2 411  GLU411     -0.2457
@<TRIPOS>BOND
     1   108   107    2
     2   107   106    1
     3   105   106    1
     4   109   106    1
     5   109   110    1
     6   114   115    1
     7   110   111    1
     8   117   116    2
     9   115   116    1
    10   116   118   am
    11   132   133    1
    12   111   112   ar
    13   111   113   ar
    14   135   134    2
    15   118   119    1
    16   134   133    1
    17   125   123    1
    18   133   136    1
    19   119   120    1
    20   119   122    1
    21   128   129    2
    22   128   127    1
    23   121   120    2
    24   120   126   am
    25   123   122    1
    26   123   124    1
    27   126   127    1
    28   127   130    1
    29   136   137    1
    30    69    68    2
    31   137   138    1
    32    68    67    1
    33   130   131    1
    34    74    73    1
    35    67    66    1
    36    67    70    1
    37    72    73    1
    38    72    71    1
    39   138   140   ar
    40   138   139   ar
    41    70    71    1
    42    44    43    2
    43    17    16    2
    44    41    42    1
    45    15    16    1
    46    15    14    1
    47    16    18   am
    48    53    54    1
    49    53    50    1
    50    65    63    1
    51    43    42    1
    52    43    49   am
    53    19    18    1
    54    19    22    1
    55    19    20    1
    56    48    46    1
    57    42    45    1
    58    45    46    1
    59    45    47    1
    60    22    23    1
    61    21    20    2
    62    28    29    2
    63    28    27    1
    64    31    30    1
    65    14    12   am
    66    23    24    1
    67    50    49    1
    68    50    51    1
    69    24    25    1
    70   101   100    2
    71    63    62    2
    72    63    64    1
    73    30    27    1
    74    62    61    1
    75   100    99    1
    76    58    57    2
    77    27    26    1
    78   102   103    1
    79   102    99    1
    80    12    13    2
    81    12    11    1
    82    55    51   am
    83    55    56    1
    84    51    52    2
    85   103   104    1
    86    99    98    1
    87    57    56    1
    88    11    10    1
    89    59    56    1
    90    59    60    1
    91    61    60    1
    92    98   104    1
    93    10     3   am
    94    97    95    1
    95    35    34    2
    96     4     3    2
    97     3     2    1
    98    75    76    1
    99    40    39    1
   100    76    77    1
   101    34    33    1
   102    39    38    1
   103    95    96    1
   104    95    92    1
   105    33    36    1
   106    33    32    1
   107    94    93    2
   108    90    89    1
   109    38    37    1
   110     2     5    1
   111     2     1    1
   112     5     6    1
   113    77    78    2
   114    87    89   ar
   115    87    85   ar
   116    36    37    1
   117    89    88   ar
   118    93    92    1
   119    92    91    1
   120    91    81   am
   121    85    84   ar
   122     7     6    1
   123     7     8    1
   124    88    86   ar
   125    84    86   ar
   126    84    83    1
   127    81    80    1
   128    81    82    2
   129    80    79    1
   130    80    83    1
   131     8     9    1
