@<TRIPOS>MOLECULE
tmp/4x7rA02.pdb
 148 141 0 0 0
SMALL
GASTEIGER

@<TRIPOS>ATOM
      1  N          4.5390    2.1830  -94.2740 N.3    17  GLY17      -0.1210
      2  CA         3.8450    1.4570  -95.3290 C.3    17  GLY17       0.1956
      3  C          3.8260   -0.0410  -95.2870 C.2    17  GLY17       0.2611
      4  O          2.8450   -0.6260  -95.7320 O.2    17  GLY17      -0.2717
      5  N          4.8970   -0.6850  -94.8260 N.am   18  MET18      -0.1979
      6  CA         4.9240   -2.1480  -94.8350 C.3    18  MET18       0.1605
      7  C          3.8460   -2.7470  -93.9760 C.2    18  MET18       0.2287
      8  O          3.1420   -3.6330  -94.4540 O.2    18  MET18      -0.2864
      9  CB         6.3190   -2.7300  -94.4990 C.3    18  MET18       0.0413
     10  CG         6.3160   -4.2630  -94.2340 C.3    18  MET18       0.0598
     11  SD         7.9520   -5.0060  -94.0680 S.3    18  MET18      -0.1393
     12  CE         8.4980   -4.2640  -92.5050 C.3    18  MET18       0.0692
     13  N          0.3450   -1.8690  -95.3490 N.3    21  SER21      -0.1217
     14  CA        -0.0880   -2.7620  -96.4340 C.3    21  SER21       0.1889
     15  C         -0.4920   -4.1420  -95.9290 C.2    21  SER21       0.2288
     16  O         -1.3890   -4.7470  -96.4960 O.2    21  SER21      -0.2866
     17  CB         0.9770   -2.8620  -97.5160 C.3    21  SER21       0.2089
     18  OG         2.0330   -3.7420  -97.1730 O.3    21  SER21      -0.2183
     19  N         11.7400   -8.4360  -94.7640 N.3   228  PRO228     -0.2116
     20  CA        12.8400   -9.1270  -95.4850 C.3   228  PRO228      0.1372
     21  C         13.8320   -9.8840  -94.6070 C.2   228  PRO228      0.2244
     22  O         14.2800  -10.9790  -94.9740 O.2   228  PRO228     -0.2868
     23  CB        13.5040   -8.0010  -96.2920 C.3   228  PRO228      0.0268
     24  CG        13.1240   -6.7230  -95.5780 C.3   228  PRO228      0.0207
     25  CD        11.7400   -6.9780  -95.0320 C.3   228  PRO228      0.0892
     26  N          9.1160   -5.1730 -100.5380 N.3   249  HIS249     -0.1226
     27  CA         8.4070   -3.9010 -100.3810 C.3   249  HIS249      0.1752
     28  C          9.2300   -2.6910 -100.8460 C.2   249  HIS249      0.2596
     29  O          8.6990   -1.5830 -100.9330 O.2   249  HIS249     -0.2718
     30  CB         7.9940   -3.7130  -98.9090 C.3   249  HIS249      0.0759
     31  CG         6.8850   -4.6100  -98.4860 C.ar  249  HIS249      0.0818
     32  ND1        5.5660   -4.2220  -98.6110 N.ar  249  HIS249     -0.2268
     33  CD2        6.9300   -5.8560  -97.9640 C.ar  249  HIS249      0.1154
     34  CE1        4.8480   -5.2330  -98.1480 C.ar  249  HIS249      0.1986
     35  NE2        5.6290   -6.2400  -97.7540 N.ar  249  HIS249     -0.2212
     36  N         10.4890   -2.8970 -101.1550 N.am  250  VAL250     -0.1966
     37  CA        11.4140   -1.7850 -101.4490 C.3   250  VAL250      0.1727
     38  C         12.1520   -1.9530 -102.7810 C.2   250  VAL250      0.2616
     39  O         12.1910   -3.0400 -103.3500 O.2   250  VAL250     -0.2715
     40  CB        12.4530   -1.6400 -100.2800 C.3   250  VAL250      0.0290
     41  CG1       11.7740   -1.4030  -98.9190 C.3   250  VAL250      0.0023
     42  CG2       13.3500   -2.8800 -100.1850 C.3   250  VAL250      0.0023
     43  N         12.8310   -0.8990 -103.2000 N.am  251  ASN251     -0.1972
     44  CA        13.7460   -0.9770 -104.3150 C.3   251  ASN251      0.1688
     45  C         14.8950   -1.8870 -103.7830 C.2   251  ASN251      0.2292
     46  O         15.4370   -1.6390 -102.6950 O.2   251  ASN251     -0.2864
     47  CB        14.2500    0.4310 -104.6960 C.3   251  ASN251      0.1181
     48  CG        15.1350    0.4560 -105.9180 C.2   251  ASN251      0.2629
     49  OD1       15.9060   -0.4740 -106.1620 O.2   251  ASN251     -0.2716
     50  ND2       15.0660    1.5270 -106.7110 N.am  251  ASN251     -0.0877
     51  N         16.9940   -8.5280  -99.3350 N.3   266  GLU266     -0.1245
     52  CA        16.2550   -8.6370 -100.6040 C.3   266  GLU266      0.1567
     53  C         16.9830   -9.4950 -101.6180 C.2   266  GLU266      0.2260
     54  O         16.3300  -10.2630 -102.3160 O.2   266  GLU266     -0.2867
     55  CB        15.8950   -7.2520 -101.1770 C.3   266  GLU266      0.0388
     56  CG        14.7890   -6.5520 -100.3890 C.3   266  GLU266      0.1160
     57  CD        15.1550   -5.9410  -99.0430 C.2   266  GLU266      0.3649
     58  OE1       16.3500   -5.9480  -98.6810 O.co2 266  GLU266     -0.2457
     59  OE2       14.2470   -5.4250  -98.3550 O.co2 266  GLU266     -0.2457
     60  N          6.0860   -5.0150 -106.2330 N.3   282  LEU282     -0.1245
     61  CA         4.9070   -4.1830 -106.3530 C.3   282  LEU282      0.1561
     62  C          4.6520   -3.5720 -107.7160 C.2   282  LEU282      0.2260
     63  O          3.5170   -3.1570 -107.9740 O.2   282  LEU282     -0.2867
     64  CB         4.8900   -3.1140 -105.2520 C.3   282  LEU282      0.0270
     65  CG         4.9940   -3.6380 -103.7900 C.3   282  LEU282      0.0019
     66  CD1        5.4270   -2.5090 -102.8570 C.3   282  LEU282      0.0001
     67  CD2        3.6750   -4.2670 -103.3370 C.3   282  LEU282      0.0001
     68  N          0.1940   -3.3310 -104.1220 N.3   304  ASN304     -0.1240
     69  CA        -0.4250   -3.3140 -102.7970 C.3   304  ASN304      0.1653
     70  C         -1.9090   -3.0880 -103.0490 C.2   304  ASN304      0.2266
     71  O         -2.2730   -2.3930 -104.0210 O.2   304  ASN304     -0.2867
     72  CB         0.0340   -2.0950 -101.9930 C.3   304  ASN304      0.1155
     73  CG         1.3610   -2.2560 -101.3320 C.2   304  ASN304      0.2627
     74  OD1        1.6050   -3.2530 -100.6600 O.2   304  ASN304     -0.2716
     75  ND2        2.2530   -1.2910 -101.5520 N.am  304  ASN304     -0.0877
     76  N          7.3720    8.2060  -92.8860 N.3   326  ARG326     -0.1245
     77  CA         8.3350    7.8580  -91.8470 C.3   326  ARG326      0.1563
     78  C          9.4500    8.8860  -92.1320 C.2   326  ARG326      0.2260
     79  O          9.7690    9.1150  -93.3130 O.2   326  ARG326     -0.2867
     80  CB         8.9220    6.4580  -92.0850 C.3   326  ARG326      0.0307
     81  CG         7.9950    5.3050  -91.8010 C.3   326  ARG326      0.0489
     82  CD         8.7120    3.9730  -92.0160 C.3   326  ARG326      0.2205
     83  NE         9.0880    3.7740  -93.4200 N.pl3 326  ARG326     -0.0865
     84  CZ        10.3140    3.4870  -93.8440 C.cat 326  ARG326      0.5346
     85  NH1       11.3050    3.3350  -92.9770 N.pl3 326  ARG326      0.1354
     86  NH2       10.5570    3.3400  -95.1390 N.pl3 326  ARG326      0.1354
     87  N         15.8730    7.9720  -96.8610 N.3   330  THR330     -0.1203
     88  CA        15.4400    7.7210  -98.2530 C.3   330  THR330      0.1994
     89  C         14.3480    8.6550  -98.7620 C.2   330  THR330      0.2617
     90  O         14.2280    8.8610  -99.9680 O.2   330  THR330     -0.2717
     91  CB        15.1270    6.2570  -98.4990 C.3   330  THR330      0.1784
     92  OG1       14.0580    5.8940  -97.6490 O.3   330  THR330     -0.2211
     93  CG2       16.3150    5.3520  -98.2720 C.3   330  THR330      0.0376
     94  N         13.5750    9.2470  -97.8300 N.am  331  LYS331     -0.1979
     95  CA        12.4900   10.1840  -98.1240 C.3   331  LYS331      0.1596
     96  C         13.0230   11.5500  -98.5240 C.2   331  LYS331      0.2287
     97  O         12.2860   12.3460  -99.1150 O.2   331  LYS331     -0.2864
     98  CB        11.5040   10.2770  -96.9430 C.3   331  LYS331      0.0298
     99  CG        10.8910    8.9350  -96.5220 C.3   331  LYS331      0.0038
    100  CD         9.9100    8.3510  -97.5410 C.3   331  LYS331      0.0206
    101  CE         9.5570    6.9440  -97.1410 C.3   331  LYS331      0.1093
    102  NZ         8.6570    6.2960  -98.1310 N.3   331  LYS331     -0.1314
    103  N         13.9230    6.4640 -103.2280 N.3   402  TYR402     -0.1227
    104  CA        13.7050    5.0320 -103.4250 C.3   402  TYR402      0.1736
    105  C         12.3410    4.6080 -102.8640 C.2   402  TYR402      0.2595
    106  O         12.0050    4.9570 -101.7290 O.2   402  TYR402     -0.2718
    107  CB        14.8210    4.1790 -102.7610 C.3   402  TYR402      0.0548
    108  CG        16.2370    4.6820 -102.9790 C.ar  402  TYR402     -0.0200
    109  CD1       16.9780    4.2840 -104.0910 C.ar  402  TYR402     -0.0009
    110  CD2       16.8370    5.5550 -102.0740 C.ar  402  TYR402     -0.0009
    111  CE1       18.2800    4.7480 -104.2990 C.ar  402  TYR402      0.0417
    112  CE2       18.1270    6.0450 -102.2860 C.ar  402  TYR402      0.0417
    113  CZ        18.8470    5.6300 -103.3940 C.ar  402  TYR402      0.1957
    114  OH        20.1130    6.1130 -103.6020 O.3   402  TYR402     -0.2866
    115  N         11.5760    3.8320 -103.6430 N.am  403  GLU403     -0.1965
    116  CA        10.2990    3.2830 -103.2050 C.3   403  GLU403      0.1733
    117  C         10.0970    1.9130 -103.8460 C.2   403  GLU403      0.2617
    118  O         10.6910    1.6010 -104.8900 O.2   403  GLU403     -0.2715
    119  CB         9.0980    4.2010 -103.5900 C.3   403  GLU403      0.0429
    120  CG         9.0210    5.5770 -102.9450 C.3   403  GLU403      0.1163
    121  CD         8.8280    5.5930 -101.4390 C.2   403  GLU403      0.3649
    122  OE1        8.3550    4.5790 -100.8760 O.co2 403  GLU403     -0.2457
    123  OE2        9.1590    6.6290 -100.8190 O.co2 403  GLU403     -0.2457
    124  N          9.2110    1.1500 -103.2400 N.am  404  GLY404     -0.1940
    125  CA         8.6940   -0.0920 -103.7810 C.3   404  GLY404      0.2014
    126  C          7.4600    0.2670 -104.5800 C.2   404  GLY404      0.2639
    127  O          7.2240   -0.2700 -105.6670 O.2   404  GLY404     -0.2714
    128  N          6.6810    1.2250 -104.0570 N.am  405  GLN405     -0.1963
    129  CA         5.4550    1.7270 -104.7180 C.3   405  GLN405      0.1733
    130  C          5.0890    3.1430 -104.2550 C.2   405  GLN405      0.2617
    131  O          4.9980    4.0350 -105.0810 O.2   405  GLN405     -0.2715
    132  CB         4.2690    0.7570 -104.5230 C.3   405  GLN405      0.0408
    133  CG         3.0600    1.1290 -105.3660 C.3   405  GLN405      0.0908
    134  CD         1.9850    0.0700 -105.3610 C.2   405  GLN405      0.2608
    135  OE1        1.7290   -0.5970 -104.3570 O.2   405  GLN405     -0.2717
    136  NE2        1.3170   -0.0890 -106.4950 N.am  405  GLN405     -0.0878
    137  N          4.7990    3.3100 -102.9550 N.am  406  GLY406     -0.1940
    138  CA         4.4730    4.6270 -102.4010 C.3   406  GLY406      0.2014
    139  C          3.0160    4.8330 -102.0710 C.2   406  GLY406      0.2638
    140  O          2.3000    5.5380 -102.7800 O.2   406  GLY406     -0.2714
    141  N          2.5840    4.2590 -100.9600 N.am  407  LEU407     -0.1977
    142  CA         1.2010    4.3630 -100.5260 C.3   407  LEU407      0.1596
    143  C          0.7610    5.7770 -100.1920 C.2   407  LEU407      0.2287
    144  O         -0.3880    6.0880 -100.4510 O.2   407  LEU407     -0.2864
    145  CB         0.8800    3.3900  -99.3800 C.3   407  LEU407      0.0297
    146  CG         0.9660    1.8750  -99.7050 C.3   407  LEU407      0.0022
    147  CD1        0.8920    1.0500  -98.4130 C.3   407  LEU407      0.0001
    148  CD2       -0.1580    1.4490 -100.6600 C.3   407  LEU407      0.0001
@<TRIPOS>BOND
     1    63    62    2
     2    62    61    1
     3    50    48   am
     4   136   134   am
     5    61    60    1
     6    61    64    1
     7    49    48    2
     8    48    47    1
     9   127   126    2
    10   133   134    1
    11   133   132    1
    12   134   135    2
    13    64    65    1
    14   131   130    2
    15   118   117    2
    16   129   132    1
    17   129   130    1
    18   129   128    1
    19    47    44    1
    20   126   128   am
    21   126   125    1
    22    44    45    1
    23    44    43    1
    24   111   109   ar
    25   111   113   ar
    26   130   137   am
    27    68    69    1
    28   109   108   ar
    29    71    70    2
    30   117   124   am
    31   117   116    1
    32    65    67    1
    33    65    66    1
    34    45    46    2
    35   125   124    1
    36   115   116    1
    37   115   105   am
    38   114   113    1
    39   119   116    1
    40   119   120    1
    41   104   103    1
    42   104   105    1
    43   104   107    1
    44   113   112   ar
    45    39    38    2
    46    43    38   am
    47    70    69    1
    48   108   107    1
    49   108   110   ar
    50   137   138    1
    51   120   121    1
    52   105   106    2
    53    69    72    1
    54    38    37    1
    55   140   139    2
    56   138   139    1
    57    54    53    2
    58   112   110   ar
    59   139   141   am
    60    72    73    1
    61    53    52    1
    62    75    73   am
    63    37    36    1
    64    37    40    1
    65   121   122   ar
    66   121   123   ar
    67    73    74    2
    68    55    52    1
    69    55    56    1
    70    36    28   am
    71   141   142    1
    72    29    28    2
    73    28    27    1
    74   148   146    1
    75    52    51    1
    76    26    27    1
    77   142   143    1
    78   142   145    1
    79   144   143    2
    80    56    57    1
    81    27    30    1
    82    40    42    1
    83    40    41    1
    84    90    89    2
    85   146   145    1
    86   146   147    1
    87    97    96    2
    88    57    58   ar
    89    57    59   ar
    90    30    31    1
    91    89    88    1
    92    89    94   am
    93    32    31   ar
    94    32    34   ar
    95    96    95    1
    96    91    93    1
    97    91    88    1
    98    91    92    1
    99    31    33   ar
   100    88    87    1
   101    34    35   ar
   102   102   101    1
   103    95    94    1
   104    95    98    1
   105    33    35   ar
   106   100   101    1
   107   100    99    1
   108    17    18    1
   109    17    14    1
   110    98    99    1
   111    16    15    2
   112    14    15    1
   113    14    13    1
   114    23    24    1
   115    23    20    1
   116     4     3    2
   117    24    25    1
   118    20    19    1
   119    20    21    1
   120     2     3    1
   121     2     1    1
   122     3     5   am
   123    86    84    1
   124    25    19    1
   125    22    21    2
   126     6     5    1
   127     6     9    1
   128     6     7    1
   129     9    10    1
   130     8     7    2
   131    10    11    1
   132    11    12    1
   133    84    83    2
   134    84    85    1
   135    83    82    1
   136    79    78    2
   137    76    77    1
   138    78    77    1
   139    80    77    1
   140    80    81    1
   141    82    81    1
