@<TRIPOS>MOLECULE
tmp/4x7vB00.pdb
 195 191 0 0 0
SMALL
GASTEIGER

@<TRIPOS>ATOM
      1  N         45.8120    8.1750  -49.6720 N.3    52  HIS52      -0.1226
      2  CA        44.5350    7.6570  -49.1820 C.3    52  HIS52       0.1752
      3  C         44.5320    7.1530  -47.7360 C.2    52  HIS52       0.2597
      4  O         43.4710    6.9900  -47.1640 O.2    52  HIS52      -0.2718
      5  CB        44.0600    6.5630  -50.1340 C.3    52  HIS52       0.0759
      6  CG        43.6570    7.0920  -51.4730 C.ar   52  HIS52       0.0818
      7  ND1       43.6920    6.3340  -52.6190 N.ar   52  HIS52      -0.2268
      8  CD2       43.1420    8.2930  -51.8270 C.ar   52  HIS52       0.1154
      9  CE1       43.2540    7.0580  -53.6350 C.ar   52  HIS52       0.1986
     10  NE2       42.9140    8.2500  -53.1810 N.ar   52  HIS52      -0.2212
     11  N         45.7050    6.9190  -47.1520 N.am   53  THR53      -0.1939
     12  CA        45.8150    6.6560  -45.7140 C.3    53  THR53       0.2028
     13  C         46.9280    7.4780  -45.0890 C.2    53  THR53       0.2642
     14  O         47.9320    7.7920  -45.7430 O.2    53  THR53      -0.2714
     15  CB        46.0720    5.1610  -45.4070 C.3    53  THR53       0.1808
     16  OG1       46.0800    4.9570  -43.9830 O.3    53  THR53      -0.2208
     17  CG2       47.4010    4.7000  -45.9910 C.3    53  THR53       0.0379
     18  N         46.7430    7.8330  -43.8230 N.am   54  MET54      -0.1962
     19  CA        47.8080    8.4620  -43.0580 C.3    54  MET54       0.1736
     20  C         48.4520    7.5490  -42.0200 C.2    54  MET54       0.2616
     21  O         49.2780    8.0170  -41.2310 O.2    54  MET54      -0.2715
     22  CB        47.3160    9.7250  -42.3360 C.3    54  MET54       0.0427
     23  CG        46.1980    9.5080  -41.3090 C.3    54  MET54       0.0599
     24  SD        45.7440   11.0370  -40.4560 S.3    54  MET54      -0.1393
     25  CE        44.6900   11.8590  -41.6510 C.3    54  MET54       0.0692
     26  N         48.1100    6.2640  -42.0020 N.am   55  ILE55      -0.1977
     27  CA        48.6150    5.4380  -40.9030 C.3    55  ILE55       0.1596
     28  C         50.0590    4.9780  -41.1160 C.2    55  ILE55       0.2287
     29  O         50.6930    4.5120  -40.1770 O.2    55  ILE55      -0.2864
     30  CB        47.7340    4.1900  -40.6330 C.3    55  ILE55       0.0276
     31  CG1       47.7660    3.1970  -41.7960 C.3    55  ILE55       0.0022
     32  CG2       46.3040    4.6150  -40.3020 C.3    55  ILE55       0.0022
     33  CD1       47.0650    1.8740  -41.4260 C.3    55  ILE55       0.0001
     34  N         37.0830   -1.0210  -39.4250 N.3    81  GLU81      -0.1245
     35  CA        37.8790    0.1330  -39.0260 C.3    81  GLU81       0.1567
     36  C         36.9310    1.2410  -38.6190 C.2    81  GLU81       0.2260
     37  O         36.0040    1.5790  -39.3730 O.2    81  GLU81      -0.2867
     38  CB        38.7820    0.6730  -40.1330 C.3    81  GLU81       0.0388
     39  CG        39.8610    1.6060  -39.5560 C.3    81  GLU81       0.1160
     40  CD        40.7320    2.3150  -40.5780 C.2    81  GLU81       0.3649
     41  OE1       40.3270    2.4730  -41.7470 O.co2  81  GLU81      -0.2457
     42  OE2       41.8990    2.5780  -40.2290 O.co2  81  GLU81      -0.2457
     43  N         36.9600    4.9810  -38.1060 N.3    83  GLY83      -0.1210
     44  CA        37.7530    6.1640  -38.4110 C.3    83  GLY83       0.1956
     45  C         38.6110    5.8510  -39.6180 C.2    83  GLY83       0.2612
     46  O         39.6730    5.2510  -39.4720 O.2    83  GLY83      -0.2717
     47  N         38.1520    6.2500  -40.8020 N.am   84  VAL84      -0.1965
     48  CA        38.7200    5.7310  -42.0440 C.3    84  VAL84       0.1727
     49  C         39.3180    6.8180  -42.9500 C.2    84  VAL84       0.2616
     50  O         40.0720    6.5090  -43.8660 O.2    84  VAL84      -0.2715
     51  CB        37.6540    4.9540  -42.8560 C.3    84  VAL84       0.0290
     52  CG1       37.0190    3.8680  -41.9840 C.3    84  VAL84       0.0023
     53  CG2       36.6180    5.8940  -43.4620 C.3    84  VAL84       0.0023
     54  N         38.9780    8.0800  -42.6880 N.am   85  TRP85      -0.1974
     55  CA        39.4080    9.2180  -43.5040 C.3    85  TRP85       0.1640
     56  C         39.1690    8.9430  -44.9950 C.2    85  TRP85       0.2290
     57  O         38.0140    8.7730  -45.3850 O.2    85  TRP85      -0.2864
     58  CB        40.8550    9.6020  -43.1290 C.3    85  TRP85       0.0576
     59  CG        41.4100   10.7950  -43.8510 C.ar   85  TRP85       0.0006
     60  CD1       40.8700   12.0450  -43.8560 C.ar   85  TRP85       0.0946
     61  CD2       42.7410   10.9500  -44.3740 C.ar   85  TRP85       0.0152
     62  NE1       41.6830   12.9200  -44.5130 N.ar   85  TRP85      -0.2442
     63  CE2       42.8630   12.2870  -44.8070 C.ar   85  TRP85       0.0810
     64  CE3       43.8170   10.0780  -44.5770 C.ar   85  TRP85       0.0012
     65  CZ2       44.0120   12.7720  -45.4330 C.ar   85  TRP85       0.0191
     66  CZ3       44.9590   10.5640  -45.2030 C.ar   85  TRP85       0.0001
     67  CH2       45.0470   11.8970  -45.6220 C.ar   85  TRP85       0.0015
     68  N         43.3090    2.5380  -45.4570 N.3    89  ALA89      -0.1245
     69  CA        43.5340    1.3520  -44.6460 C.3    89  ALA89       0.1562
     70  C         42.4650    0.2950  -44.9260 C.2    89  ALA89       0.2260
     71  O         42.7660   -0.8990  -44.9630 O.2    89  ALA89      -0.2867
     72  CB        43.5660    1.7090  -43.1600 C.3    89  ALA89       0.0290
     73  N         32.5490    5.6340  -40.2370 N.3   111  ASP111     -0.1225
     74  CA        33.0300    6.9950  -40.0770 C.3   111  ASP111      0.1805
     75  C         31.8510    7.9550  -40.1060 C.2   111  ASP111      0.2598
     76  O         30.7780    7.6150  -40.6070 O.2   111  ASP111     -0.2718
     77  CB        34.1200    7.2180  -41.1510 C.3   111  ASP111      0.1424
     78  CG        34.9240    8.5020  -40.9880 C.2   111  ASP111      0.3668
     79  OD1       34.4680    9.6140  -40.6790 O.co2 111  ASP111     -0.2456
     80  OD2       36.1350    8.2540  -40.7920 O.co2 111  ASP111     -0.2456
     81  N         32.0140    9.1180  -39.4890 N.am  112  SER112     -0.1952
     82  CA        31.0230   10.1780  -39.6280 C.3   112  SER112      0.1924
     83  C         30.9580   10.6630  -41.0720 C.2   112  SER112      0.2314
     84  O         29.9390   11.1980  -41.5120 O.2   112  SER112     -0.2863
     85  CB        31.3630   11.3600  -38.7380 C.3   112  SER112      0.2116
     86  OG        32.5590   11.9700  -39.2130 O.3   112  SER112     -0.2180
     87  N         34.4740   14.2420  -40.5000 N.3   115  GLY115     -0.1210
     88  CA        35.5440   14.6590  -39.6100 C.3   115  GLY115      0.1956
     89  C         35.1670   14.5180  -38.1400 C.2   115  GLY115      0.2612
     90  O         34.1430   13.9040  -37.8010 O.2   115  GLY115     -0.2717
     91  N         36.0000   15.0890  -37.2710 N.am  116  PHE116     -0.1962
     92  CA        35.7330   15.0530  -35.8320 C.3   116  PHE116      0.1756
     93  C         34.4750   15.8430  -35.4640 C.2   116  PHE116      0.2461
     94  O         34.1890   16.8740  -36.0670 O.2   116  PHE116     -0.2730
     95  CB        36.9080   15.6160  -35.0260 C.3   116  PHE116      0.0574
     96  CG        38.2000   14.8720  -35.2030 C.ar  116  PHE116     -0.0200
     97  CD1       38.3580   13.6060  -34.6650 C.ar  116  PHE116     -0.0042
     98  CD2       39.3010   15.4880  -35.7860 C.ar  116  PHE116     -0.0042
     99  CE1       39.5550   12.9230  -34.8010 C.ar  116  PHE116     -0.0003
    100  CE2       40.5130   14.8220  -35.8970 C.ar  116  PHE116     -0.0003
    101  CZ        40.6350   13.5300  -35.4100 C.ar  116  PHE116     -0.0000
    102  N         33.7350   15.3830  -34.4420 N.am  117  PRO117     -0.2727
    103  CA        32.5250   16.0900  -34.0130 C.3   117  PRO117      0.1402
    104  C         32.8320   17.3500  -33.2190 C.2   117  PRO117      0.2269
    105  O         33.8600   17.4180  -32.5480 O.2   117  PRO117     -0.2865
    106  CB        31.8210   15.0670  -33.1210 C.3   117  PRO117      0.0296
    107  CG        32.9370   14.2720  -32.5420 C.3   117  PRO117      0.0237
    108  CD        33.9890   14.1850  -33.6250 C.3   117  PRO117      0.0939
    109  N         40.3330   16.5650  -43.1850 N.3   141  LEU141     -0.1245
    110  CA        39.9010   15.3110  -42.5940 C.3   141  LEU141      0.1561
    111  C         38.4640   14.9400  -43.0380 C.2   141  LEU141      0.2260
    112  O         38.2100   13.7800  -43.3460 O.2   141  LEU141     -0.2867
    113  CB        39.9720   15.3770  -41.0680 C.3   141  LEU141      0.0270
    114  CG        39.9500   13.9890  -40.4390 C.3   141  LEU141      0.0019
    115  CD1       41.3130   13.3420  -40.7290 C.3   141  LEU141      0.0001
    116  CD2       39.6830   14.0450  -38.9710 C.3   141  LEU141      0.0001
    117  N         27.9900    7.5690  -39.8640 N.3   167  GLY167     -0.1210
    118  CA        27.4180    8.2160  -38.6970 C.3   167  GLY167      0.1956
    119  C         28.4000    8.2790  -37.5440 C.2   167  GLY167      0.2612
    120  O         29.5430    7.8070  -37.6480 O.2   167  GLY167     -0.2717
    121  N         27.9700    8.8840  -36.4450 N.am  168  TRP168     -0.1962
    122  CA        28.8180    8.9600  -35.2620 C.3   168  TRP168      0.1771
    123  C         28.8310    7.5750  -34.6230 C.2   168  TRP168      0.2619
    124  O         27.8110    6.8870  -34.6050 O.2   168  TRP168     -0.2715
    125  CB        28.3130   10.0140  -34.2680 C.3   168  TRP168      0.0590
    126  CG        28.2180   11.3740  -34.8910 C.ar  168  TRP168      0.0006
    127  CD1       27.0720   12.0240  -35.2630 C.ar  168  TRP168      0.0946
    128  CD2       29.3030   12.1770  -35.3670 C.ar  168  TRP168      0.0152
    129  NE1       27.3820   13.2210  -35.8580 N.ar  168  TRP168     -0.2442
    130  CE2       28.7450   13.3310  -35.9540 C.ar  168  TRP168      0.0810
    131  CE3       30.6960   12.0450  -35.3300 C.ar  168  TRP168      0.0012
    132  CZ2       29.5320   14.3500  -36.4960 C.ar  168  TRP168      0.0191
    133  CZ3       31.4760   13.0540  -35.8720 C.ar  168  TRP168      0.0001
    134  CH2       30.8910   14.1930  -36.4490 C.ar  168  TRP168      0.0015
    135  N         29.9800    7.1570  -34.1090 N.am  169  PHE169     -0.1974
    136  CA        30.1290    5.8050  -33.5670 C.3   169  PHE169      0.1639
    137  C         29.1230    5.4830  -32.4630 C.2   169  PHE169      0.2290
    138  O         28.6810    4.3380  -32.3450 O.2   169  PHE169     -0.2864
    139  CB        31.5400    5.6230  -33.0140 C.3   169  PHE169      0.0560
    140  CG        32.6240    5.7420  -34.0430 C.ar  169  PHE169     -0.0200
    141  CD1       32.4150    5.3930  -35.3700 C.ar  169  PHE169     -0.0042
    142  CD2       33.8310    6.3130  -33.6920 C.ar  169  PHE169     -0.0042
    143  CE1       33.4370    5.5390  -36.3160 C.ar  169  PHE169     -0.0003
    144  CE2       34.8400    6.4800  -34.6270 C.ar  169  PHE169     -0.0003
    145  CZ        34.6390    6.0930  -35.9430 C.ar  169  PHE169     -0.0000
    146  N         39.8350   -2.3860  -35.8340 N.3   185  ARG185     -0.1245
    147  CA        40.8720   -1.3670  -35.9520 C.3   185  ARG185      0.1563
    148  C         40.2810   -0.0070  -35.5950 C.2   185  ARG185      0.2260
    149  O         39.4170    0.5150  -36.3060 O.2   185  ARG185     -0.2867
    150  CB        41.4580   -1.3360  -37.3620 C.3   185  ARG185      0.0307
    151  CG        42.7050   -0.4910  -37.4230 C.3   185  ARG185      0.0489
    152  CD        43.3670   -0.3830  -38.7880 C.3   185  ARG185      0.2205
    153  NE        44.7020    0.1290  -38.5010 N.pl3 185  ARG185     -0.0865
    154  CZ        45.0190    1.3990  -38.2970 C.cat 185  ARG185      0.5346
    155  NH1       46.2640    1.6970  -37.9540 N.pl3 185  ARG185      0.1354
    156  NH2       44.1130    2.3630  -38.4260 N.pl3 185  ARG185      0.1354
    157  N         40.5650    3.9850  -34.9180 N.3   187  ASP187     -0.1225
    158  CA        41.3920    5.1150  -35.3230 C.3   187  ASP187      0.1805
    159  C         40.5180    6.3800  -35.2830 C.2   187  ASP187      0.2598
    160  O         40.3890    7.1120  -36.2690 O.2   187  ASP187     -0.2718
    161  CB        41.9840    4.8430  -36.7140 C.3   187  ASP187      0.1424
    162  CG        43.1430    5.7620  -37.0620 C.2   187  ASP187      0.3668
    163  OD1       43.5030    6.6270  -36.2390 O.co2 187  ASP187     -0.2456
    164  OD2       43.7400    5.5690  -38.1400 O.co2 187  ASP187     -0.2456
    165  N         39.9060    6.6100  -34.1200 N.am  188  GLY188     -0.1942
    166  CA        39.0470    7.7600  -33.9040 C.3   188  GLY188      0.2014
    167  C         39.5690    8.7810  -32.9070 C.2   188  GLY188      0.2639
    168  O         38.8640    9.7700  -32.6540 O.2   188  GLY188     -0.2714
    169  N         40.7500    8.5220  -32.3140 N.am  189  ASP189     -0.1957
    170  CA        41.5640    9.5420  -31.6170 C.3   189  ASP189      0.1840
    171  C         41.1370    9.8950  -30.1920 C.2   189  ASP189      0.2622
    172  O         41.9720    9.9950  -29.2950 O.2   189  ASP189     -0.2715
    173  CB        41.5510   10.7950  -32.4690 C.3   189  ASP189      0.1450
    174  CG        42.3580   10.6490  -33.7230 C.2   189  ASP189      0.3671
    175  OD1       43.5160   10.1820  -33.7030 O.co2 189  ASP189     -0.2456
    176  OD2       41.6990   10.7140  -34.7740 O.co2 189  ASP189     -0.2456
    177  N         39.8430   10.1010  -29.9850 N.am  190  SER190     -0.1950
    178  CA        39.3440   10.6440  -28.7230 C.3   190  SER190      0.1924
    179  C         39.0170    9.5840  -27.6860 C.2   190  SER190      0.2314
    180  O         38.8810    8.4000  -28.0070 O.2   190  SER190     -0.2863
    181  CB        38.1020   11.4830  -29.0030 C.3   190  SER190      0.2116
    182  OG        37.0780   10.6820  -29.5860 O.3   190  SER190     -0.2180
    183  N         35.3890    8.4090  -28.9250 N.3   193  ALA193     -0.1245
    184  CA        35.3420    7.4960  -30.0620 C.3   193  ALA193      0.1562
    185  C         35.9010    6.1210  -29.7040 C.2   193  ALA193      0.2260
    186  O         35.4220    5.0960  -30.1810 O.2   193  ALA193     -0.2867
    187  CB        36.1050    8.0820  -31.2510 C.3   193  ALA193      0.0290
    188  N         33.3450    4.5110  -27.3160 N.3   196  ASP196     -0.1239
    189  CA        32.1760    4.1220  -28.1200 C.3   196  ASP196      0.1674
    190  C         32.3860    2.7450  -28.7430 C.2   196  ASP196      0.2266
    191  O         31.5330    1.8610  -28.6760 O.2   196  ASP196     -0.2867
    192  CB        31.9240    5.1070  -29.2700 C.3   196  ASP196      0.1410
    193  CG        31.3810    6.4540  -28.8310 C.2   196  ASP196      0.3668
    194  OD1       30.7860    6.5950  -27.7410 O.co2 196  ASP196     -0.2456
    195  OD2       31.6080    7.4020  -29.6140 O.co2 196  ASP196     -0.2456
@<TRIPOS>BOND
     1     9    10   ar
     2     9     7   ar
     3    10     8   ar
     4     7     6   ar
     5     8     6   ar
     6     6     5    1
     7     5     2    1
     8     1     2    1
     9     2     3    1
    10     3     4    2
    11     3    11   am
    12    11    12    1
    13    17    15    1
    14    14    13    2
    15    12    15    1
    16    12    13    1
    17    67    65   ar
    18    67    66   ar
    19    68    69    1
    20    65    63   ar
    21    15    16    1
    22    57    56    2
    23    66    64   ar
    24    13    18   am
    25    56    55    1
    26    71    70    2
    27    70    69    1
    28    63    62   ar
    29    63    61   ar
    30    69    72    1
    31    64    61   ar
    32    62    60   ar
    33    61    59   ar
    34    50    49    2
    35    60    59   ar
    36    59    58    1
    37    18    19    1
    38    55    58    1
    39    55    54    1
    40    53    51    1
    41   112   111    2
    42   109   110    1
    43    19    22    1
    44    19    20    1
    45   111   110    1
    46    49    54   am
    47    49    48    1
    48    51    48    1
    49    51    52    1
    50   110   113    1
    51    22    23    1
    52    48    47    1
    53    20    26   am
    54    20    21    2
    55    26    27    1
    56    31    33    1
    57    31    30    1
    58    41    40   ar
    59    25    24    1
    60    84    83    2
    61    23    24    1
    62    77    78    1
    63    77    74    1
    64    28    27    1
    65    28    29    2
    66    83    82    1
    67   113   114    1
    68    78    80   ar
    69    78    79   ar
    70    27    30    1
    71    47    45   am
    72   115   114    1
    73    30    32    1
    74    76    75    2
    75    40    42   ar
    76    40    39    1
    77    87    88    1
    78   114   116    1
    79    73    74    1
    80    38    39    1
    81    38    35    1
    82    75    74    1
    83    75    81   am
    84   117   118    1
    85    82    81    1
    86    82    85    1
    87    45    46    2
    88    45    44    1
    89    88    89    1
    90    34    35    1
    91    37    36    2
    92    86    85    1
    93    35    36    1
    94   152   153    1
    95   152   151    1
    96   118   119    1
    97   153   154    2
    98   156   154    1
    99    44    43    1
   100   154   155    1
   101   164   162   ar
   102    89    90    2
   103    89    91   am
   104   120   119    2
   105   119   121   am
   106   151   150    1
   107   150   147    1
   108    91    92    1
   109   162   161    1
   110   162   163   ar
   111   161   158    1
   112   132   134   ar
   113   132   130   ar
   114   134   133   ar
   115   121   122    1
   116   143   145   ar
   117   143   141   ar
   118   149   148    2
   119   160   159    2
   120    94    93    2
   121   130   129   ar
   122   130   128   ar
   123   147   146    1
   124   147   148    1
   125   145   144   ar
   126   100    98   ar
   127   100   101   ar
   128   133   131   ar
   129   129   127   ar
   130    92    93    1
   131    92    95    1
   132    98    96   ar
   133    93   102   am
   134   101    99   ar
   135   141   140   ar
   136   128   131   ar
   137   128   126   ar
   138   158   159    1
   139   158   157    1
   140   159   165   am
   141   127   126   ar
   142   122   123    1
   143   122   125    1
   144    96    95    1
   145    96    97   ar
   146   126   125    1
   147    99    97   ar
   148   176   174   ar
   149   144   142   ar
   150   123   124    2
   151   123   135   am
   152   102   103    1
   153   102   108    1
   154   165   166    1
   155   135   136    1
   156   140   142   ar
   157   140   139    1
   158   103   104    1
   159   103   106    1
   160   166   167    1
   161   174   175   ar
   162   174   173    1
   163   108   107    1
   164   136   139    1
   165   136   137    1
   166   104   105    2
   167   106   107    1
   168   167   168    2
   169   167   169   am
   170   173   170    1
   171   137   138    2
   172   169   170    1
   173   170   171    1
   174   187   184    1
   175   171   177   am
   176   171   172    2
   177   186   185    2
   178   184   185    1
   179   184   183    1
   180   177   178    1
   181   195   193   ar
   182   182   181    1
   183   192   193    1
   184   192   189    1
   185   181   178    1
   186   193   194   ar
   187   190   191    2
   188   190   189    1
   189   178   179    1
   190   189   188    1
   191   180   179    2
