@<TRIPOS>MOLECULE
tmp/4x7vB01.pdb
 168 156 0 0 0
SMALL
GASTEIGER

@<TRIPOS>ATOM
      1  N         50.9510   20.9150  -39.9020 N.3    28  ALA28      -0.1231
      2  CA        50.0850   20.8960  -38.7280 C.3    28  ALA28       0.1694
      3  C         50.7570   20.0860  -37.6370 C.2    28  ALA28       0.2593
      4  O         51.6590   19.2930  -37.9210 O.2    28  ALA28      -0.2718
      5  CB        48.7240   20.3020  -39.0740 C.3    28  ALA28       0.0304
      6  N         50.3190   20.2800  -36.3970 N.am   29  GLY29      -0.1942
      7  CA        50.8980   19.5630  -35.2760 C.3    29  GLY29       0.2014
      8  C         52.3980   19.7700  -35.2010 C.2    29  GLY29       0.2638
      9  O         52.8770   20.9030  -35.2340 O.2    29  GLY29      -0.2714
     10  N         53.1400   18.6690  -35.1300 N.am   30  LEU30      -0.1977
     11  CA        54.5940   18.7240  -35.0190 C.3    30  LEU30       0.1596
     12  C         55.2750   18.7560  -36.3870 C.2    30  LEU30       0.2287
     13  O         56.5020   18.8320  -36.4750 O.2    30  LEU30      -0.2864
     14  CB        55.1110   17.5320  -34.2110 C.3    30  LEU30       0.0297
     15  CG        54.6740   17.4670  -32.7460 C.3    30  LEU30       0.0022
     16  CD1       55.1540   16.1750  -32.1000 C.3    30  LEU30       0.0001
     17  CD2       55.1800   18.6770  -31.9810 C.3    30  LEU30       0.0001
     18  N         53.9240    6.8110  -40.3840 N.3    44  GLY44      -0.1225
     19  CA        52.5800    7.3740  -40.3580 C.3    44  GLY44       0.1811
     20  C         52.4280    8.6140  -39.5000 C.2    44  GLY44       0.2280
     21  O         51.4090    8.7910  -38.8270 O.2    44  GLY44      -0.2866
     22  N         50.6350   14.1550  -42.5010 N.3    47  TYR47      -0.1241
     23  CA        49.2430   14.4690  -42.7900 C.3    47  TYR47       0.1605
     24  C         49.1340   14.6100  -44.3090 C.2    47  TYR47       0.2264
     25  O         49.1400   15.7300  -44.8290 O.2    47  TYR47      -0.2867
     26  CB        48.8670   15.7730  -42.0870 C.3    47  TYR47       0.0534
     27  CG        49.0410   15.7160  -40.5870 C.ar   47  TYR47      -0.0201
     28  CD1       48.3780   14.7730  -39.8110 C.ar   47  TYR47      -0.0009
     29  CD2       49.9910   16.5170  -39.9660 C.ar   47  TYR47      -0.0009
     30  CE1       48.5760   14.7130  -38.4380 C.ar   47  TYR47       0.0417
     31  CE2       50.2080   16.4530  -38.5990 C.ar   47  TYR47       0.0417
     32  CZ        49.5020   15.5510  -37.8400 C.ar   47  TYR47       0.1957
     33  OH        49.7300   15.4990  -36.4770 O.3    47  TYR47      -0.2866
     34  N         46.7430    7.8330  -43.8230 N.3    54  MET54      -0.1245
     35  CA        47.8080    8.4620  -43.0580 C.3    54  MET54       0.1570
     36  C         48.4520    7.5490  -42.0200 C.2    54  MET54       0.2261
     37  O         49.2780    8.0170  -41.2310 O.2    54  MET54      -0.2867
     38  CB        47.3160    9.7250  -42.3360 C.3    54  MET54       0.0387
     39  CG        46.1980    9.5080  -41.3090 C.3    54  MET54       0.0595
     40  SD        45.7440   11.0370  -40.4560 S.3    54  MET54      -0.1393
     41  CE        44.6900   11.8590  -41.6510 C.3    54  MET54       0.0692
     42  N         52.0840    0.6540  -39.7160 N.3    59  ARG59      -0.1245
     43  CA        50.7530    0.2700  -39.2470 C.3    59  ARG59       0.1563
     44  C         49.9930   -0.4320  -40.3720 C.2    59  ARG59       0.2260
     45  O         49.1440   -1.2750  -40.0990 O.2    59  ARG59      -0.2867
     46  CB        49.9780    1.4580  -38.6640 C.3    59  ARG59       0.0307
     47  CG        50.2000    1.6910  -37.1430 C.3    59  ARG59       0.0489
     48  CD        49.6350    3.0320  -36.7230 C.3    59  ARG59       0.2205
     49  NE        50.5710    4.1070  -37.0240 N.pl3  59  ARG59      -0.0865
     50  CZ        50.2500    5.3840  -37.1810 C.cat  59  ARG59       0.5346
     51  NH1       51.2050    6.2710  -37.4110 N.pl3  59  ARG59       0.1354
     52  NH2       48.9790    5.7560  -37.2730 N.pl3  59  ARG59       0.1354
     53  N         36.0000   15.0890  -37.2710 N.3   116  PHE116     -0.1241
     54  CA        35.7330   15.0530  -35.8320 C.3   116  PHE116      0.1605
     55  C         34.4750   15.8430  -35.4640 C.2   116  PHE116      0.2264
     56  O         34.1890   16.8740  -36.0670 O.2   116  PHE116     -0.2867
     57  CB        36.9080   15.6160  -35.0260 C.3   116  PHE116      0.0534
     58  CG        38.2000   14.8720  -35.2030 C.ar  116  PHE116     -0.0203
     59  CD1       38.3580   13.6060  -34.6650 C.ar  116  PHE116     -0.0042
     60  CD2       39.3010   15.4880  -35.7860 C.ar  116  PHE116     -0.0042
     61  CE1       39.5550   12.9230  -34.8010 C.ar  116  PHE116     -0.0003
     62  CE2       40.5130   14.8220  -35.8970 C.ar  116  PHE116     -0.0003
     63  CZ        40.6350   13.5300  -35.4100 C.ar  116  PHE116     -0.0000
     64  N         41.3380   18.8650  -25.7880 N.3   130  MET130     -0.1245
     65  CA        42.0480   18.5540  -27.0060 C.3   130  MET130      0.1570
     66  C         41.3170   19.1310  -28.2190 C.2   130  MET130      0.2261
     67  O         41.9540   19.6170  -29.1550 O.2   130  MET130     -0.2867
     68  CB        42.2370   17.0330  -27.0790 C.3   130  MET130      0.0387
     69  CG        42.8570   16.4660  -28.3180 C.3   130  MET130      0.0595
     70  SD        43.1960   14.7150  -28.0060 S.3   130  MET130     -0.1393
     71  CE        41.5360   14.0430  -27.8830 C.3   130  MET130      0.0692
     72  N         39.6200   18.0420  -30.9550 N.3   132  LEU132     -0.1245
     73  CA        40.0780   17.5670  -32.2690 C.3   132  LEU132      0.1561
     74  C         39.3680   18.2360  -33.4610 C.2   132  LEU132      0.2260
     75  O         39.9710   18.4340  -34.5180 O.2   132  LEU132     -0.2867
     76  CB        39.9220   16.0480  -32.3380 C.3   132  LEU132      0.0270
     77  CG        40.8600   15.3160  -31.3760 C.3   132  LEU132      0.0019
     78  CD1       40.5050   13.8580  -31.3220 C.3   132  LEU132      0.0001
     79  CD2       42.2960   15.4800  -31.8390 C.3   132  LEU132      0.0001
     80  N         40.8770   20.8020  -35.9220 N.3   135  TYR135     -0.1241
     81  CA        41.8420   20.4370  -36.9600 C.3   135  TYR135      0.1605
     82  C         41.2150   19.9770  -38.2730 C.2   135  TYR135      0.2264
     83  O         41.9520   19.7150  -39.2240 O.2   135  TYR135     -0.2867
     84  CB        42.7750   19.3180  -36.4720 C.3   135  TYR135      0.0534
     85  CG        43.5280   19.6500  -35.2080 C.ar  135  TYR135     -0.0201
     86  CD1       44.6200   20.5100  -35.2240 C.ar  135  TYR135     -0.0009
     87  CD2       43.2030   19.0300  -34.0090 C.ar  135  TYR135     -0.0009
     88  CE1       45.3080   20.8090  -34.0650 C.ar  135  TYR135      0.0417
     89  CE2       43.9040   19.3110  -32.8450 C.ar  135  TYR135      0.0417
     90  CZ        44.9590   20.1940  -32.8850 C.ar  135  TYR135      0.1957
     91  OH        45.6610   20.4880  -31.7360 O.3   135  TYR135     -0.2866
     92  N         43.7570   19.5740  -41.9040 N.3   139  VAL139     -0.1245
     93  CA        44.3700   18.3620  -42.4570 C.3   139  VAL139      0.1561
     94  C         43.4260   17.6300  -43.4160 C.2   139  VAL139      0.2260
     95  O         43.6260   16.4550  -43.7350 O.2   139  VAL139     -0.2867
     96  CB        44.8500   17.4050  -41.3400 C.3   139  VAL139      0.0252
     97  CG1       45.9450   18.0790  -40.5150 C.3   139  VAL139      0.0019
     98  CG2       43.7070   16.9490  -40.4600 C.3   139  VAL139      0.0019
     99  N         40.3330   16.5650  -43.1850 N.3   141  LEU141     -0.1245
    100  CA        39.9010   15.3110  -42.5940 C.3   141  LEU141      0.1561
    101  C         38.4640   14.9400  -43.0380 C.2   141  LEU141      0.2260
    102  O         38.2100   13.7800  -43.3460 O.2   141  LEU141     -0.2867
    103  CB        39.9720   15.3770  -41.0680 C.3   141  LEU141      0.0270
    104  CG        39.9500   13.9890  -40.4390 C.3   141  LEU141      0.0019
    105  CD1       41.3130   13.3420  -40.7290 C.3   141  LEU141      0.0001
    106  CD2       39.6830   14.0450  -38.9710 C.3   141  LEU141      0.0001
    107  N         40.5650    3.9850  -34.9180 N.3   187  ASP187     -0.1239
    108  CA        41.3920    5.1150  -35.3230 C.3   187  ASP187      0.1674
    109  C         40.5180    6.3800  -35.2830 C.2   187  ASP187      0.2266
    110  O         40.3890    7.1120  -36.2690 O.2   187  ASP187     -0.2867
    111  CB        41.9840    4.8430  -36.7140 C.3   187  ASP187      0.1410
    112  CG        43.1430    5.7620  -37.0620 C.2   187  ASP187      0.3668
    113  OD1       43.5030    6.6270  -36.2390 O.co2 187  ASP187     -0.2456
    114  OD2       43.7400    5.5690  -38.1400 O.co2 187  ASP187     -0.2456
    115  N         40.7500    8.5220  -32.3140 N.3   189  ASP189     -0.1239
    116  CA        41.5640    9.5420  -31.6170 C.3   189  ASP189      0.1674
    117  C         41.1370    9.8950  -30.1920 C.2   189  ASP189      0.2266
    118  O         41.9720    9.9950  -29.2950 O.2   189  ASP189     -0.2867
    119  CB        41.5510   10.7950  -32.4690 C.3   189  ASP189      0.1410
    120  CG        42.3580   10.6490  -33.7230 C.2   189  ASP189      0.3668
    121  OD1       43.5160   10.1820  -33.7030 O.co2 189  ASP189     -0.2456
    122  OD2       41.6990   10.7140  -34.7740 O.co2 189  ASP189     -0.2456
    123  N         45.0200    2.6490  -32.9210 N.3   214  ASP214     -0.1225
    124  CA        45.9130    3.4420  -33.7510 C.3   214  ASP214      0.1805
    125  C         46.5220    4.6190  -32.9760 C.2   214  ASP214      0.2597
    126  O         47.6680    4.9980  -33.1950 O.2   214  ASP214     -0.2718
    127  CB        45.1600    4.0020  -34.9550 C.3   214  ASP214      0.1424
    128  CG        46.0760    4.6860  -35.9470 C.2   214  ASP214      0.3668
    129  OD1       46.6910    3.9840  -36.7740 O.co2 214  ASP214     -0.2456
    130  OD2       46.2730    5.9080  -35.8120 O.co2 214  ASP214     -0.2456
    131  N         45.7310    5.1750  -32.0650 N.am  215  ASP215     -0.1974
    132  CA        45.9620    6.5010  -31.4950 C.3   215  ASP215      0.1709
    133  C         46.4170    6.4370  -30.0420 C.2   215  ASP215      0.2293
    134  O         46.1830    7.3660  -29.2740 O.2   215  ASP215     -0.2864
    135  CB        44.6520    7.2640  -31.5710 C.3   215  ASP215      0.1436
    136  CG        44.1940    7.4820  -32.9880 C.2   215  ASP215      0.3671
    137  OD1       45.0200    7.6910  -33.9000 O.co2 215  ASP215     -0.2456
    138  OD2       42.9990    7.2180  -33.2160 O.co2 215  ASP215     -0.2456
    139  N         49.0570    6.8210  -28.4930 N.3   217  CYS217     -0.1221
    140  CA        49.9190    7.9020  -28.0070 C.3   217  CYS217      0.1808
    141  C         49.1320    9.1170  -27.4980 C.2   217  CYS217      0.2601
    142  O         49.6840    9.9570  -26.7820 O.2   217  CYS217     -0.2717
    143  CB        50.8920    8.3610  -29.0980 C.3   217  CYS217      0.0970
    144  SG        50.0790    8.9240  -30.6200 S.3   217  CYS217     -0.0800
    145  N         47.8580    9.2210  -27.8640 N.am  218  ILE218     -0.1966
    146  CA        47.0310   10.3300  -27.3990 C.3   218  ILE218      0.1712
    147  C         46.4810   10.0100  -26.0010 C.2   218  ILE218      0.2458
    148  O         45.8440    8.9740  -25.8130 O.2   218  ILE218     -0.2730
    149  CB        45.8680   10.6150  -28.3730 C.3   218  ILE218      0.0289
    150  CG1       46.4150   11.0740  -29.7260 C.3   218  ILE218      0.0022
    151  CG2       44.9500   11.6730  -27.8010 C.3   218  ILE218      0.0023
    152  CD1       45.3420   11.2530  -30.7860 C.3   218  ILE218      0.0001
    153  N         46.7420   10.8820  -25.0090 N.am  219  PRO219     -0.2727
    154  CA        46.3320   10.5480  -23.6360 C.3   219  PRO219      0.1402
    155  C         44.8410   10.2020  -23.4800 C.2   219  PRO219      0.2269
    156  O         44.5370    9.2500  -22.7640 O.2   219  PRO219     -0.2865
    157  CB        46.6850   11.8190  -22.8510 C.3   219  PRO219      0.0296
    158  CG        47.8370   12.4000  -23.6060 C.3   219  PRO219      0.0237
    159  CD        47.5120   12.1390  -25.0610 C.3   219  PRO219      0.0939
    160  N         52.9050    5.5320  -32.5250 N.3   244  GLN244     -0.1245
    161  CA        51.5110    5.9090  -32.2790 C.3   244  GLN244      0.1566
    162  C         50.6510    4.7240  -31.8550 C.2   244  GLN244      0.2260
    163  O         49.9140    4.8000  -30.8650 O.2   244  GLN244     -0.2867
    164  CB        50.8720    6.5700  -33.5150 C.3   244  GLN244      0.0367
    165  CG        51.5850    7.8350  -33.9660 C.3   244  GLN244      0.0905
    166  CD        50.8130    8.6380  -34.9960 C.2   244  GLN244      0.2608
    167  OE1       49.8220    8.1690  -35.5680 O.2   244  GLN244     -0.2717
    168  NE2       51.3080    9.8340  -35.2910 N.am  244  GLN244     -0.0878
@<TRIPOS>BOND
     1    25    24    2
     2    24    23    1
     3    34    35    1
     4    95    94    2
     5    94    93    1
     6   102   101    2
     7    99   100    1
     8    35    38    1
     9    35    36    1
    10   101   100    1
    11    23    22    1
    12    23    26    1
    13   100   103    1
    14    93    92    1
    15    93    96    1
    16    38    39    1
    17    26    27    1
    18    36    37    2
    19    41    40    1
    20    96    97    1
    21    96    98    1
    22    39    40    1
    23   103   104    1
    24   105   104    1
    25    27    29   ar
    26    27    28   ar
    27   104   106    1
    28    18    19    1
    29    44    45    2
    30    44    43    1
    31    19    20    1
    32    29    31   ar
    33     1     2    1
    34    28    30   ar
    35    42    43    1
    36    20    21    2
    37    43    46    1
    38    83    82    2
    39     5     2    1
    40     2     3    1
    41    46    47    1
    42    31    32   ar
    43    30    32   ar
    44    82    81    1
    45   114   112   ar
    46     4     3    2
    47    32    33    1
    48     3     6   am
    49    51    50    1
    50    52    50    1
    51    53    54    1
    52    50    49    2
    53    47    48    1
    54   112   111    1
    55   112   113   ar
    56    49    48    1
    57    81    84    1
    58    81    80    1
    59   129   128   ar
    60   111   108    1
    61    13    12    2
    62    84    85    1
    63     6     7    1
    64    12    11    1
    65   110   109    2
    66    56    55    2
    67   128   130   ar
    68   128   127    1
    69    62    60   ar
    70    62    63   ar
    71    54    55    1
    72    54    57    1
    73    60    58   ar
    74   167   166    2
    75    63    61   ar
    76   108   109    1
    77   108   107    1
    78   168   166   am
    79     7     8    1
    80     9     8    2
    81    86    85   ar
    82    86    88   ar
    83    85    87   ar
    84    58    57    1
    85    58    59   ar
    86     8    10   am
    87    10    11    1
    88    11    14    1
    89   166   165    1
    90   127   124    1
    91    61    59   ar
    92   122   120   ar
    93    75    74    2
    94    14    15    1
    95    88    90   ar
    96    87    89   ar
    97   165   164    1
    98   137   136   ar
    99   124   125    1
   100   124   123    1
   101   120   121   ar
   102   120   119    1
   103   164   161    1
   104    74    73    1
   105   138   136   ar
   106   126   125    2
   107   136   135    1
   108   125   131   am
   109    90    89   ar
   110    90    91    1
   111    15    16    1
   112    15    17    1
   113   160   161    1
   114   119   116    1
   115    76    73    1
   116    76    77    1
   117   115   116    1
   118   161   162    1
   119    73    72    1
   120   131   132    1
   121   162   163    2
   122    79    77    1
   123   116   117    1
   124   135   132    1
   125   132   133    1
   126    77    78    1
   127   152   150    1
   128   144   143    1
   129   117   118    2
   130   133   134    2
   131   150   149    1
   132    67    66    2
   133   143   140    1
   134   139   140    1
   135   149   151    1
   136   149   146    1
   137    69    70    1
   138    69    68    1
   139    66    65    1
   140   140   141    1
   141    70    71    1
   142   145   141   am
   143   145   146    1
   144   141   142    2
   145   146   147    1
   146    68    65    1
   147    65    64    1
   148   147   148    2
   149   147   153   am
   150   159   153    1
   151   159   158    1
   152   153   154    1
   153   154   155    1
   154   154   157    1
   155   158   157    1
   156   155   156    2
