@<TRIPOS>MOLECULE
tmp/4x7wB01.pdb
 168 156 0 0 0
SMALL
GASTEIGER

@<TRIPOS>ATOM
      1  N         24.2820   25.1370   88.8330 N.3    27  ALA27      -0.1231
      2  CA        25.2140   25.1980   89.9750 C.3    27  ALA27       0.1694
      3  C         24.5190   26.0020   91.0890 C.2    27  ALA27       0.2593
      4  O         23.5140   26.6890   90.8190 O.2    27  ALA27      -0.2718
      5  CB        26.5090   25.8450   89.5660 C.3    27  ALA27       0.0304
      6  N         25.0090   25.8960   92.3170 N.am   28  GLY28      -0.1942
      7  CA        24.4260   26.6660   93.4140 C.3    28  GLY28       0.2014
      8  C         22.9290   26.4270   93.5500 C.2    28  GLY28       0.2638
      9  O         22.4690   25.2810   93.5690 O.2    28  GLY28      -0.2714
     10  N         22.1570   27.4950   93.6100 N.am   29  LEU29      -0.1977
     11  CA        20.6820   27.3580   93.7310 C.3    29  LEU29       0.1596
     12  C         19.9690   27.3030   92.3730 C.2    29  LEU29       0.2287
     13  O         18.7410   27.0580   92.3110 O.2    29  LEU29      -0.2864
     14  CB        20.0970   28.4950   94.5720 C.3    29  LEU29       0.0297
     15  CG        20.8200   28.5740   95.9220 C.3    29  LEU29       0.0022
     16  CD1       20.4200   29.8350   96.6680 C.3    29  LEU29       0.0001
     17  CD2       20.6050   27.3130   96.7580 C.3    29  LEU29       0.0001
     18  N         21.2430   39.2620   88.5210 N.3    43  GLY43      -0.1225
     19  CA        22.6160   38.7810   88.5780 C.3    43  GLY43       0.1811
     20  C         22.7750   37.5610   89.3870 C.2    43  GLY43       0.2280
     21  O         23.8000   37.3830   90.0350 O.2    43  GLY43      -0.2866
     22  N         24.5210   32.0580   86.2360 N.3    46  TYR46      -0.1241
     23  CA        25.9180   31.8020   85.9090 C.3    46  TYR46       0.1605
     24  C         25.9880   31.6410   84.4090 C.2    46  TYR46       0.2264
     25  O         25.9390   30.5240   83.8780 O.2    46  TYR46      -0.2867
     26  CB        26.3590   30.4950   86.5930 C.3    46  TYR46       0.0534
     27  CG        26.1580   30.5220   88.1060 C.ar   46  TYR46      -0.0201
     28  CD1       26.9300   31.3610   88.9220 C.ar   46  TYR46      -0.0009
     29  CD2       25.1220   29.8150   88.6810 C.ar   46  TYR46      -0.0009
     30  CE1       26.7060   31.4270   90.2870 C.ar   46  TYR46       0.0417
     31  CE2       24.9080   29.8740   90.0580 C.ar   46  TYR46       0.0417
     32  CZ        25.7120   30.5870   90.8450 C.ar   46  TYR46       0.1957
     33  OH        25.4260   30.6210   92.2210 O.3    46  TYR46      -0.2866
     34  N         28.4180   38.2800   85.0300 N.3    53  MET53      -0.1245
     35  CA        27.4050   37.6570   85.8060 C.3    53  MET53       0.1570
     36  C         26.7580   38.5760   86.8700 C.2    53  MET53       0.2261
     37  O         25.9030   38.1180   87.6130 O.2    53  MET53      -0.2867
     38  CB        27.8770   36.3140   86.4540 C.3    53  MET53       0.0387
     39  CG        28.9350   36.5300   87.5230 C.3    53  MET53       0.0595
     40  SD        29.3980   35.0020   88.3390 S.3    53  MET53      -0.1393
     41  CE        30.2230   34.1380   87.0100 C.3    53  MET53       0.0692
     42  N         23.0500   45.4360   89.2960 N.3    58  ARG58      -0.1245
     43  CA        24.4470   45.8060   89.6520 C.3    58  ARG58       0.1563
     44  C         25.1760   46.5680   88.5330 C.2    58  ARG58       0.2260
     45  O         25.9950   47.4730   88.8110 O.2    58  ARG58      -0.2867
     46  CB        25.2030   44.5980   90.1750 C.3    58  ARG58       0.0307
     47  CG        24.8960   44.3330   91.6390 C.3    58  ARG58       0.0489
     48  CD        25.5340   43.0800   92.2280 C.3    58  ARG58       0.2205
     49  NE        24.6290   41.9730   91.9840 N.pl3  58  ARG58      -0.0865
     50  CZ        24.9810   40.7420   91.7540 C.cat  58  ARG58       0.5346
     51  NH1       24.0220   39.8310   91.5200 N.pl3  58  ARG58       0.1354
     52  NH2       26.2390   40.4200   91.5480 N.pl3  58  ARG58       0.1354
     53  N         39.2080   31.0870   91.4860 N.3   115  PHE115     -0.1241
     54  CA        39.4500   31.1310   92.9380 C.3   115  PHE115      0.1605
     55  C         40.7170   30.3530   93.2500 C.2   115  PHE115      0.2264
     56  O         41.0060   29.3630   92.5390 O.2   115  PHE115     -0.2867
     57  CB        38.2730   30.5040   93.6600 C.3   115  PHE115      0.0534
     58  CG        37.0210   31.3190   93.5940 C.ar  115  PHE115     -0.0203
     59  CD1       36.9560   32.5200   94.2130 C.ar  115  PHE115     -0.0042
     60  CD2       35.8820   30.8180   92.9850 C.ar  115  PHE115     -0.0042
     61  CE1       35.8090   33.2840   94.0990 C.ar  115  PHE115     -0.0003
     62  CE2       34.7430   31.5330   92.9040 C.ar  115  PHE115     -0.0003
     63  CZ        34.6990   32.7870   93.4740 C.ar  115  PHE115     -0.0000
     64  N         33.8520   27.2130  102.9890 N.3   129  MET129     -0.1245
     65  CA        33.1400   27.5460  101.7630 C.3   129  MET129      0.1570
     66  C         33.8110   26.9860  100.4860 C.2   129  MET129      0.2261
     67  O         33.1340   26.5380   99.5150 O.2   129  MET129     -0.2867
     68  CB        33.0720   29.1090  101.7520 C.3   129  MET129      0.0387
     69  CG        32.0840   29.6480  100.8920 C.3   129  MET129      0.0595
     70  SD        31.9900   31.4500  100.8170 S.3   129  MET129     -0.1393
     71  CE        33.6390   32.1250  101.0610 C.3   129  MET129      0.0692
     72  N         35.4840   28.1190   97.7620 N.3   131  LEU131     -0.1245
     73  CA        35.0220   28.5840   96.4520 C.3   131  LEU131      0.1561
     74  C         35.7590   27.9590   95.2480 C.2   131  LEU131      0.2260
     75  O         35.1410   27.7660   94.1610 O.2   131  LEU131     -0.2867
     76  CB        35.0710   30.1310   96.3910 C.3   131  LEU131      0.0270
     77  CG        34.1870   30.9040   97.3910 C.3   131  LEU131      0.0019
     78  CD1       34.6200   32.3400   97.5110 C.3   131  LEU131      0.0001
     79  CD2       32.7480   30.8900   96.9960 C.3   131  LEU131      0.0001
     80  N         34.2550   25.3260   92.7820 N.3   134  TYR134     -0.1241
     81  CA        33.3120   25.6820   91.7570 C.3   134  TYR134      0.1605
     82  C         33.9340   26.2060   90.4680 C.2   134  TYR134      0.2264
     83  O         33.2020   26.5400   89.4840 O.2   134  TYR134     -0.2867
     84  CB        32.3660   26.8250   92.2230 C.3   134  TYR134      0.0534
     85  CG        31.6210   26.5220   93.4970 C.ar  134  TYR134     -0.0201
     86  CD1       30.6050   25.5850   93.5040 C.ar  134  TYR134     -0.0009
     87  CD2       31.9180   27.1850   94.6840 C.ar  134  TYR134     -0.0009
     88  CE1       29.8960   25.2680   94.6640 C.ar  134  TYR134      0.0417
     89  CE2       31.2300   26.8960   95.8510 C.ar  134  TYR134      0.0417
     90  CZ        30.2260   25.9290   95.8380 C.ar  134  TYR134      0.1957
     91  OH        29.4850   25.6570   96.9490 O.3   134  TYR134     -0.2866
     92  N         31.3300   26.6020   86.8800 N.3   138  VAL138     -0.1245
     93  CA        30.8080   27.8530   86.3010 C.3   138  VAL138      0.1561
     94  C         31.7570   28.5680   85.3650 C.2   138  VAL138      0.2260
     95  O         31.5490   29.7560   85.0370 O.2   138  VAL138     -0.2867
     96  CB        30.2330   28.8160   87.3880 C.3   138  VAL138      0.0252
     97  CG1       29.1480   28.1060   88.1660 C.3   138  VAL138      0.0019
     98  CG2       31.3100   29.3150   88.3000 C.3   138  VAL138      0.0019
     99  N         34.8100   29.6920   85.6400 N.3   140  LEU140     -0.1245
    100  CA        35.3350   30.9110   86.2440 C.3   140  LEU140      0.1561
    101  C         36.7200   31.2690   85.7240 C.2   140  LEU140      0.2260
    102  O         36.9620   32.4230   85.3940 O.2   140  LEU140     -0.2867
    103  CB        35.3410   30.8560   87.7780 C.3   140  LEU140      0.0270
    104  CG        35.0260   32.2140   88.4140 C.3   140  LEU140      0.0019
    105  CD1       33.5540   32.6190   88.2610 C.3   140  LEU140      0.0001
    106  CD2       35.3170   32.1450   89.8930 C.3   140  LEU140      0.0001
    107  N         34.6660   42.2740   93.9870 N.3   186  ASP186     -0.1295
    108  CA        33.8720   41.1300   93.5420 C.3   186  ASP186      0.1359
    109  C         34.7070   39.8600   93.6240 C.3   186  ASP186      0.2015
    110  O         34.8520   39.0930   92.5980 O.3   186  ASP186     -0.2188
    111  CB        33.3330   41.3840   92.1350 C.3   186  ASP186      0.1357
    112  CG        32.1350   40.4430   91.7740 C.2   186  ASP186      0.3664
    113  OD1       31.8070   39.5810   92.5740 O.co2 186  ASP186     -0.2456
    114  OD2       31.4350   40.6970   90.7660 O.co2 186  ASP186     -0.2456
    115  N         34.4350   37.7160   96.5080 N.3   188  ASP188     -0.1239
    116  CA        33.5940   36.7840   97.1860 C.3   188  ASP188      0.1674
    117  C         34.0210   36.3180   98.5810 C.2   188  ASP188      0.2266
    118  O         33.2240   36.0770   99.3970 O.2   188  ASP188     -0.2867
    119  CB        33.3880   35.5090   96.3910 C.3   188  ASP188      0.1410
    120  CG        32.7560   35.7500   95.0000 C.2   188  ASP188      0.3668
    121  OD1       31.5660   35.9080   94.8940 O.co2 188  ASP188     -0.2456
    122  OD2       33.4760   35.7400   93.9980 O.co2 188  ASP188     -0.2456
    123  N         30.1570   43.4130   95.9530 N.3   213  ASP213     -0.1225
    124  CA        29.2720   42.6770   95.0730 C.3   213  ASP213      0.1805
    125  C         28.5960   41.5190   95.8080 C.2   213  ASP213      0.2597
    126  O         27.4460   41.2070   95.5400 O.2   213  ASP213     -0.2718
    127  CB        30.0220   42.0730   93.8860 C.3   213  ASP213      0.1424
    128  CG        29.1130   41.3400   92.9510 C.2   213  ASP213      0.3668
    129  OD1       28.5460   42.0530   92.1180 O.co2 213  ASP213     -0.2456
    130  OD2       28.9690   40.0960   93.0900 O.co2 213  ASP213     -0.2456
    131  N         29.3610   40.9310   96.7150 N.am  214  ASP214     -0.1974
    132  CA        29.0450   39.6540   97.2990 C.3   214  ASP214      0.1709
    133  C         28.6640   39.7370   98.7850 C.2   214  ASP214      0.2293
    134  O         28.9280   38.8030   99.5150 O.2   214  ASP214     -0.2864
    135  CB        30.3610   38.8510   97.2410 C.3   214  ASP214      0.1436
    136  CG        30.9680   38.7530   95.8150 C.2   214  ASP214      0.3671
    137  OD1       30.2790   38.2360   94.9370 O.co2 214  ASP214     -0.2456
    138  OD2       32.1430   39.1590   95.6080 O.co2 214  ASP214     -0.2456
    139  N         26.1480   39.2290  100.4510 N.3   216  CYS216     -0.1221
    140  CA        25.3060   38.1550  100.8770 C.3   216  CYS216      0.1808
    141  C         26.1370   36.9930  101.4060 C.2   216  CYS216      0.2601
    142  O         25.6440   36.1800  102.1670 O.2   216  CYS216     -0.2717
    143  CB        24.3670   37.7060   99.7440 C.3   216  CYS216      0.0970
    144  SG        25.2390   37.1790   98.2080 S.3   216  CYS216     -0.0800
    145  N         27.4120   36.9010  101.0320 N.am  217  ILE217     -0.1966
    146  CA        28.2280   35.7600  101.4780 C.3   217  ILE217      0.1712
    147  C         28.7720   36.0760  102.8800 C.2   217  ILE217      0.2458
    148  O         29.4000   37.0970  103.1010 O.2   217  ILE217     -0.2730
    149  CB        29.4240   35.6020  100.5000 C.3   217  ILE217      0.0289
    150  CG1       28.8820   35.3170   99.0560 C.3   217  ILE217      0.0022
    151  CG2       30.4120   34.5590  101.0070 C.3   217  ILE217      0.0023
    152  CD1       29.9490   34.9070   98.0670 C.3   217  ILE217      0.0001
    153  N         28.5660   35.2050  103.8390 N.am  218  PRO218     -0.2727
    154  CA        28.9260   35.5450  105.2230 C.3   218  PRO218      0.1402
    155  C         30.4230   35.8830  105.4400 C.2   218  PRO218      0.2269
    156  O         30.7220   36.8670  106.1050 O.2   218  PRO218     -0.2865
    157  CB        28.5430   34.2850  106.0120 C.3   218  PRO218      0.0296
    158  CG        27.5010   33.5720  105.1310 C.3   218  PRO218      0.0237
    159  CD        27.8690   33.9000  103.7240 C.3   218  PRO218      0.0939
    160  N         22.2340   40.6170   96.4650 N.3   243  GLN243     -0.1245
    161  CA        23.6530   40.2300   96.6600 C.3   243  GLN243      0.1566
    162  C         24.5010   41.4040   97.0450 C.2   243  GLN243      0.2260
    163  O         25.2480   41.3650   97.9940 O.2   243  GLN243     -0.2867
    164  CB        24.2410   39.7000   95.3170 C.3   243  GLN243      0.0367
    165  CG        23.6270   38.4610   94.8950 C.3   243  GLN243      0.0905
    166  CD        24.4950   37.6550   94.0160 C.2   243  GLN243      0.2608
    167  OE1       25.6400   38.0370   93.6500 O.2   243  GLN243     -0.2717
    168  NE2       23.9650   36.5370   93.6570 N.am  243  GLN243     -0.0878
@<TRIPOS>BOND
     1    25    24    2
     2    24    23    1
     3    34    35    1
     4    95    94    2
     5    94    93    1
     6   102   101    2
     7    99   100    1
     8   101   100    1
     9    35    38    1
    10    35    36    1
    11    23    22    1
    12    23    26    1
    13   100   103    1
    14    93    92    1
    15    93    96    1
    16    38    39    1
    17    26    27    1
    18    36    37    2
    19    41    40    1
    20    96    97    1
    21    96    98    1
    22    39    40    1
    23   103   104    1
    24    27    29   ar
    25    27    28   ar
    26   105   104    1
    27   104   106    1
    28    18    19    1
    29    44    45    2
    30    44    43    1
    31    19    20    1
    32    29    31   ar
    33     1     2    1
    34    28    30   ar
    35    42    43    1
    36    20    21    2
    37    83    82    2
    38     5     2    1
    39    43    46    1
    40     2     3    1
    41    31    32   ar
    42    46    47    1
    43    30    32   ar
    44    82    81    1
    45   114   112   ar
    46     4     3    2
    47    32    33    1
    48     3     6   am
    49    53    54    1
    50    51    50    1
    51    52    50    1
    52    47    48    1
    53    50    49    2
    54    81    84    1
    55    81    80    1
    56   112   111    1
    57   112   113   ar
    58    49    48    1
    59   129   128   ar
    60   111   108    1
    61    84    85    1
    62    13    12    2
    63     6     7    1
    64    12    11    1
    65    56    55    2
    66   110   109    1
    67    62    60   ar
    68    62    63   ar
    69    54    55    1
    70    54    57    1
    71   128   130   ar
    72   128   127    1
    73    60    58   ar
    74     7     8    1
    75    63    61   ar
    76    85    86   ar
    77    85    87   ar
    78    86    88   ar
    79   108   109    1
    80   108   107    1
    81     8     9    2
    82     8    10   am
    83    58    57    1
    84    58    59   ar
    85    10    11    1
    86   167   166    2
    87   168   166   am
    88    11    14    1
    89   127   124    1
    90   122   120   ar
    91   166   165    1
    92    61    59   ar
    93    75    74    2
    94    14    15    1
    95    88    90   ar
    96    87    89   ar
    97   121   120   ar
    98   165   164    1
    99   137   136   ar
   100   120   119    1
   101   124   125    1
   102   124   123    1
   103    74    73    1
   104   164   161    1
   105   126   125    2
   106   138   136   ar
   107   125   131   am
   108   136   135    1
   109    90    89   ar
   110    90    91    1
   111    15    16    1
   112    15    17    1
   113    76    73    1
   114    76    77    1
   115   119   116    1
   116    73    72    1
   117   160   161    1
   118   115   116    1
   119   161   162    1
   120   131   132    1
   121    79    77    1
   122   162   163    2
   123   116   117    1
   124   135   132    1
   125   132   133    1
   126    77    78    1
   127   152   150    1
   128   144   143    1
   129   117   118    2
   130   133   134    2
   131   150   149    1
   132    67    66    2
   133   143   140    1
   134   139   140    1
   135    66    65    1
   136   149   151    1
   137   149   146    1
   138    70    69    1
   139    70    71    1
   140   140   141    1
   141    69    68    1
   142   145   141   am
   143   145   146    1
   144   141   142    2
   145   146   147    1
   146    68    65    1
   147    65    64    1
   148   147   148    2
   149   147   153   am
   150   159   153    1
   151   159   158    1
   152   153   154    1
   153   158   157    1
   154   154   155    1
   155   154   157    1
   156   155   156    2
