@<TRIPOS>MOLECULE
tmp/4x7xA01.pdb
 168 156 0 0 0
SMALL
GASTEIGER

@<TRIPOS>ATOM
      1  N         51.0250  204.5140  153.0480 N.3    27  ALA27      -0.1231
      2  CA        50.1300  204.5140  154.1970 C.3    27  ALA27       0.1694
      3  C         50.8050  203.7890  155.3480 C.2    27  ALA27       0.2593
      4  O         51.7600  203.0440  155.1310 O.2    27  ALA27      -0.2718
      5  CB        48.8280  203.8250  153.8390 C.3    27  ALA27       0.0304
      6  N         50.3260  204.0150  156.5670 N.am   28  GLY28      -0.1942
      7  CA        50.8850  203.3430  157.7370 C.3    28  GLY28       0.2014
      8  C         52.3790  203.5950  157.8320 C.2    28  GLY28       0.2638
      9  O         52.8030  204.7270  157.7280 O.2    28  GLY28      -0.2714
     10  N         53.1730  202.5390  157.9840 N.am   29  LEU29      -0.1977
     11  CA        54.6310  202.6880  158.0950 C.3    29  LEU29       0.1596
     12  C         55.3470  202.7630  156.7390 C.2    29  LEU29       0.2287
     13  O         56.5490  203.0280  156.7000 O.2    29  LEU29      -0.2864
     14  CB        55.2150  201.5630  158.9560 C.3    29  LEU29       0.0297
     15  CG        54.6530  201.5170  160.3900 C.3    29  LEU29       0.0022
     16  CD1       55.3310  200.4250  161.2090 C.3    29  LEU29       0.0001
     17  CD2       54.7780  202.8630  161.0920 C.3    29  LEU29       0.0001
     18  N         54.0090  190.1990  152.7570 N.3    43  GLY43      -0.1225
     19  CA        52.6620  190.7960  152.7750 C.3    43  GLY43       0.1811
     20  C         52.5580  192.0480  153.6290 C.2    43  GLY43       0.2280
     21  O         51.5670  192.2530  154.2990 O.2    43  GLY43      -0.2866
     22  N         50.7460  197.5540  150.5760 N.3    46  TYR46      -0.1241
     23  CA        49.3610  197.8130  150.2520 C.3    46  TYR46       0.1605
     24  C         49.2630  197.9760  148.7370 C.2    46  TYR46       0.2264
     25  O         49.2940  199.1050  148.2290 O.2    46  TYR46      -0.2867
     26  CB        48.9230  199.0920  150.9480 C.3    46  TYR46       0.0534
     27  CG        49.2000  199.1100  152.4340 C.ar   46  TYR46      -0.0201
     28  CD1       48.5360  198.2510  153.2950 C.ar   46  TYR46      -0.0009
     29  CD2       50.1380  199.9720  152.9630 C.ar   46  TYR46      -0.0009
     30  CE1       48.7920  198.2550  154.6530 C.ar   46  TYR46       0.0417
     31  CE2       50.3930  200.0010  154.3240 C.ar   46  TYR46       0.0417
     32  CZ        49.7250  199.1420  155.1630 C.ar   46  TYR46       0.1957
     33  OH        50.0040  199.1750  156.5190 O.3    46  TYR46      -0.2866
     34  N         46.8610  191.2110  149.2930 N.3    53  MET53      -0.1245
     35  CA        47.9170  191.8810  150.0580 C.3    53  MET53       0.1570
     36  C         48.5740  190.9670  151.0830 C.2    53  MET53       0.2261
     37  O         49.4100  191.4400  151.8680 O.2    53  MET53      -0.2867
     38  CB        47.3960  193.1550  150.7270 C.3    53  MET53       0.0387
     39  CG        46.2410  192.9560  151.6650 C.3    53  MET53       0.0595
     40  SD        45.8350  194.4500  152.6070 S.3    53  MET53      -0.1393
     41  CE        45.0840  195.4490  151.3240 C.3    53  MET53       0.0692
     42  N         52.2770  184.0990  153.5460 N.3    58  ARG58      -0.1245
     43  CA        50.9060  183.7370  153.8920 C.3    58  ARG58       0.1563
     44  C         50.1780  182.9780  152.7650 C.2    58  ARG58       0.2260
     45  O         49.3180  182.1560  153.0580 O.2    58  ARG58      -0.2867
     46  CB        50.1230  184.9480  154.4020 C.3    58  ARG58       0.0307
     47  CG        50.2740  185.1230  155.8960 C.3    58  ARG58       0.0489
     48  CD        49.7120  186.4360  156.3910 C.3    58  ARG58       0.2205
     49  NE        50.6590  187.5210  156.1540 N.pl3  58  ARG58      -0.0865
     50  CZ        50.3260  188.7830  155.9070 C.cat  58  ARG58       0.5346
     51  NH1       51.2770  189.6870  155.7050 N.pl3  58  ARG58       0.1354
     52  NH2       49.0590  189.1580  155.8310 N.pl3  58  ARG58       0.1354
     53  N         36.0290  198.4590  155.7370 N.3   115  PHE115     -0.1241
     54  CA        35.7690  198.4220  157.1570 C.3   115  PHE115      0.1605
     55  C         34.5020  199.2080  157.5040 C.2   115  PHE115      0.2264
     56  O         34.2250  200.2230  156.8850 O.2   115  PHE115     -0.2867
     57  CB        36.9550  199.0120  157.9240 C.3   115  PHE115      0.0534
     58  CG        38.2360  198.2270  157.7860 C.ar  115  PHE115     -0.0203
     59  CD1       38.3470  196.9620  158.3530 C.ar  115  PHE115     -0.0042
     60  CD2       39.3510  198.7810  157.1650 C.ar  115  PHE115     -0.0042
     61  CE1       39.5270  196.2480  158.2510 C.ar  115  PHE115     -0.0003
     62  CE2       40.5470  198.0780  157.0820 C.ar  115  PHE115     -0.0003
     63  CZ        40.6200  196.7960  157.6070 C.ar  115  PHE115     -0.0000
     64  N         41.3830  202.3080  167.1070 N.3   129  MET129     -0.1245
     65  CA        42.0170  202.1100  165.7850 C.3   129  MET129      0.1570
     66  C         41.2700  202.8000  164.6710 C.2   129  MET129      0.2261
     67  O         41.8800  203.2970  163.7150 O.2   129  MET129     -0.2867
     68  CB        42.0610  200.6240  165.3930 C.3   129  MET129      0.0387
     69  CG        43.1300  199.8160  166.0640 C.3   129  MET129      0.0595
     70  SD        43.3200  198.2050  165.2560 S.3   129  MET129     -0.1393
     71  CE        41.6640  197.5180  165.3980 C.3   129  MET129      0.0692
     72  N         39.5730  201.6020  162.0110 N.3   131  LEU131     -0.1245
     73  CA        40.0850  201.1000  160.7230 C.3   131  LEU131      0.1561
     74  C         39.3680  201.6990  159.5060 C.2   131  LEU131      0.2260
     75  O         39.9550  201.8520  158.4340 O.2   131  LEU131     -0.2867
     76  CB        40.0030  199.5650  160.6840 C.3   131  LEU131      0.0270
     77  CG        40.9820  198.8480  161.6350 C.3   131  LEU131      0.0019
     78  CD1       40.6290  197.3890  161.8340 C.3   131  LEU131      0.0001
     79  CD2       42.3970  198.9660  161.1240 C.3   131  LEU131      0.0001
     80  N         40.8730  204.2410  157.0190 N.3   134  TYR134     -0.1241
     81  CA        41.8620  203.8720  156.0030 C.3   134  TYR134      0.1605
     82  C         41.2620  203.3550  154.6930 C.2   134  TYR134      0.2264
     83  O         41.9960  203.1200  153.7270 O.2   134  TYR134     -0.2867
     84  CB        42.8100  202.8060  156.5590 C.3   134  TYR134      0.0534
     85  CG        43.5560  203.2050  157.8100 C.ar  134  TYR134     -0.0201
     86  CD1       44.6240  204.1060  157.7630 C.ar  134  TYR134     -0.0009
     87  CD2       43.1970  202.6900  159.0490 C.ar  134  TYR134     -0.0009
     88  CE1       45.3150  204.4650  158.9230 C.ar  134  TYR134      0.0417
     89  CE2       43.8710  203.0500  160.2060 C.ar  134  TYR134      0.0417
     90  CZ        44.9260  203.9360  160.1430 C.ar  134  TYR134      0.1957
     91  OH        45.6030  204.2770  161.3060 O.3   134  TYR134     -0.2866
     92  N         43.9150  202.8950  151.0490 N.3   138  VAL138     -0.1245
     93  CA        44.4770  201.6450  150.5200 C.3   138  VAL138      0.1561
     94  C         43.5220  200.9050  149.5770 C.2   138  VAL138      0.2260
     95  O         43.7240  199.7240  149.2800 O.2   138  VAL138     -0.2867
     96  CB        44.9770  200.7160  151.6530 C.3   138  VAL138      0.0252
     97  CG1       46.0530  201.4320  152.4750 C.3   138  VAL138      0.0019
     98  CG2       43.8350  200.2630  152.5440 C.3   138  VAL138      0.0019
     99  N         40.4130  199.8240  149.8340 N.3   140  LEU140     -0.1245
    100  CA        39.8680  198.5990  150.4060 C.3   140  LEU140      0.1561
    101  C         38.4790  198.2380  149.8890 C.2   140  LEU140      0.2260
    102  O         38.2510  197.0830  149.5540 O.2   140  LEU140     -0.2867
    103  CB        39.8470  198.6450  151.9280 C.3   140  LEU140      0.0270
    104  CG        40.0980  197.2930  152.5830 C.3   140  LEU140      0.0019
    105  CD1       41.5470  196.8700  152.3890 C.3   140  LEU140      0.0001
    106  CD2       39.7810  197.4570  154.0670 C.3   140  LEU140      0.0001
    107  N         40.5850  187.2900  158.1490 N.3   186  ASP186     -0.1239
    108  CA        41.3780  188.4520  157.7260 C.3   186  ASP186      0.1674
    109  C         40.5610  189.7550  157.8120 C.2   186  ASP186      0.2266
    110  O         40.4980  190.5300  156.8580 O.2   186  ASP186     -0.2867
    111  CB        41.9390  188.2020  156.3000 C.3   186  ASP186      0.1410
    112  CG        43.1670  189.0400  155.9820 C.2   186  ASP186      0.3668
    113  OD1       43.5290  189.9320  156.7760 O.co2 186  ASP186     -0.2456
    114  OD2       43.7800  188.7900  154.9090 O.co2 186  ASP186     -0.2456
    115  N         40.8180  191.9170  160.7640 N.3   188  ASP188     -0.1239
    116  CA        41.6560  192.9030  161.4840 C.3   188  ASP188      0.1674
    117  C         41.2100  193.3170  162.8880 C.2   188  ASP188      0.2266
    118  O         42.0410  193.5040  163.7640 O.2   188  ASP188     -0.2867
    119  CB        41.8720  194.1690  160.6540 C.3   188  ASP188      0.1410
    120  CG        42.4930  193.8880  159.3070 C.2   188  ASP188      0.3668
    121  OD1       41.7560  193.5680  158.3500 O.co2 188  ASP188     -0.2456
    122  OD2       43.7140  194.0100  159.1820 O.co2 188  ASP188     -0.2456
    123  N         45.0650  186.0770  160.1630 N.3   213  ASP213     -0.1225
    124  CA        45.9500  186.9200  159.3670 C.3   213  ASP213      0.1805
    125  C         46.5790  188.0800  160.1750 C.2   213  ASP213      0.2597
    126  O         47.7370  188.4210  159.9670 O.2   213  ASP213     -0.2718
    127  CB        45.2010  187.4860  158.1680 C.3   213  ASP213      0.1424
    128  CG        46.1280  188.1750  157.1780 C.2   213  ASP213      0.3668
    129  OD1       46.6920  187.4790  156.3110 O.co2 213  ASP213     -0.2456
    130  OD2       46.3110  189.4070  157.2830 O.co2 213  ASP213     -0.2456
    131  N         45.7900  188.6590  161.0770 N.am  214  ASP214     -0.1974
    132  CA        46.0690  189.9600  161.6880 C.3   214  ASP214      0.1709
    133  C         46.4500  189.8360  163.1490 C.2   214  ASP214      0.2293
    134  O         46.2060  190.7480  163.9490 O.2   214  ASP214     -0.2864
    135  CB        44.8090  190.8230  161.5660 C.3   214  ASP214      0.1436
    136  CG        44.3390  190.9260  160.1350 C.2   214  ASP214      0.3671
    137  OD1       45.1590  191.3540  159.3020 O.co2 214  ASP214     -0.2456
    138  OD2       43.1880  190.5380  159.8310 O.co2 214  ASP214     -0.2456
    139  N         49.1030  190.1830  164.6860 N.3   216  CYS216     -0.1221
    140  CA        49.9410  191.2810  165.1410 C.3   216  CYS216      0.1808
    141  C         49.1590  192.5090  165.6310 C.2   216  CYS216      0.2601
    142  O         49.7160  193.3230  166.3420 O.2   216  CYS216     -0.2717
    143  CB        50.9340  191.6940  164.0590 C.3   216  CYS216      0.0970
    144  SG        50.1340  192.3290  162.5700 S.3   216  CYS216     -0.0800
    145  N         47.8730  192.6240  165.2990 N.am  217  ILE217     -0.1966
    146  CA        47.0460  193.7320  165.7770 C.3   217  ILE217      0.1712
    147  C         46.4890  193.3940  167.1620 C.2   217  ILE217      0.2458
    148  O         45.8690  192.3560  167.3370 O.2   217  ILE217     -0.2730
    149  CB        45.9010  194.0190  164.7860 C.3   217  ILE217      0.0289
    150  CG1       46.4960  194.3420  163.4090 C.3   217  ILE217      0.0022
    151  CG2       45.0020  195.1250  165.3200 C.3   217  ILE217      0.0023
    152  CD1       45.4850  194.7810  162.3880 C.3   217  ILE217      0.0001
    153  N         46.7260  194.2560  168.1540 N.am  218  PRO218     -0.2727
    154  CA        46.3170  193.9150  169.5160 C.3   218  PRO218      0.1402
    155  C         44.8290  193.5770  169.6740 C.2   218  PRO218      0.2269
    156  O         44.4880  192.6580  170.4200 O.2   218  PRO218     -0.2865
    157  CB        46.6910  195.1690  170.3130 C.3   218  PRO218      0.0296
    158  CG        47.8770  195.7100  169.5810 C.3   218  PRO218      0.0237
    159  CD        47.5930  195.4480  168.1250 C.3   218  PRO218      0.0939
    160  N         52.9760  189.0030  160.6730 N.3   243  GLN243     -0.1245
    161  CA        51.5680  189.3300  160.9030 C.3   243  GLN243      0.1566
    162  C         50.7270  188.1430  161.3130 C.2   243  GLN243      0.2260
    163  O         50.0080  188.2110  162.3090 O.2   243  GLN243     -0.2867
    164  CB        50.9500  189.9530  159.6470 C.3   243  GLN243      0.0367
    165  CG        51.6860  191.2100  159.2160 C.3   243  GLN243      0.0905
    166  CD        50.9630  192.0250  158.1560 C.2   243  GLN243      0.2608
    167  OE1       49.8570  191.6960  157.7340 O.2   243  GLN243     -0.2717
    168  NE2       51.5770  193.1340  157.7630 N.am  243  GLN243     -0.0878
@<TRIPOS>BOND
     1    25    24    2
     2    24    23    1
     3    95    94    2
     4    34    35    1
     5   102   101    2
     6    94    93    1
     7    99   100    1
     8   101   100    1
     9    35    38    1
    10    35    36    1
    11    23    22    1
    12    23    26    1
    13   100   103    1
    14    93    92    1
    15    93    96    1
    16    38    39    1
    17    26    27    1
    18    36    37    2
    19    41    40    1
    20    96    97    1
    21    96    98    1
    22    39    40    1
    23   103   104    1
    24   105   104    1
    25    27    29   ar
    26    27    28   ar
    27   104   106    1
    28    18    19    1
    29    44    45    2
    30    44    43    1
    31    19    20    1
    32    29    31   ar
    33     1     2    1
    34    28    30   ar
    35    42    43    1
    36    20    21    2
    37    83    82    2
    38     5     2    1
    39    43    46    1
    40     2     3    1
    41    31    32   ar
    42    46    47    1
    43    30    32   ar
    44    82    81    1
    45   114   112   ar
    46     4     3    2
    47    32    33    1
    48     3     6   am
    49    51    50    1
    50    53    54    1
    51    52    50    1
    52    47    48    1
    53    50    49    2
    54   112   111    1
    55   112   113   ar
    56    81    84    1
    57    81    80    1
    58    49    48    1
    59   111   108    1
    60   129   128   ar
    61    84    85    1
    62     6     7    1
    63    13    12    2
    64    12    11    1
    65   110   109    2
    66    56    55    2
    67    62    60   ar
    68    62    63   ar
    69    54    55    1
    70    54    57    1
    71    60    58   ar
    72   128   130   ar
    73   128   127    1
    74    63    61   ar
    75   108   109    1
    76   108   107    1
    77     9     8    2
    78   167   166    2
    79     7     8    1
    80   168   166   am
    81    86    85   ar
    82    86    88   ar
    83    58    57    1
    84    58    59   ar
    85    85    87   ar
    86     8    10   am
    87    10    11    1
    88    11    14    1
    89   166   165    1
    90   127   124    1
    91    61    59   ar
    92   121   120   ar
    93    75    74    2
    94    88    90   ar
    95    14    15    1
    96    87    89   ar
    97   122   120   ar
    98   165   164    1
    99   137   136   ar
   100   120   119    1
   101   124   123    1
   102   124   125    1
   103    74    73    1
   104   164   161    1
   105   138   136   ar
   106   126   125    2
   107   136   135    1
   108    90    89   ar
   109    90    91    1
   110   125   131   am
   111    15    17    1
   112    15    16    1
   113   119   116    1
   114   160   161    1
   115    76    73    1
   116    76    77    1
   117    73    72    1
   118   115   116    1
   119   161   162    1
   120   131   132    1
   121    79    77    1
   122   162   163    2
   123   116   117    1
   124   135   132    1
   125    77    78    1
   126   132   133    1
   127   152   150    1
   128   144   143    1
   129   117   118    2
   130   133   134    2
   131   150   149    1
   132    67    66    2
   133   143   140    1
   134    66    65    1
   135   139   140    1
   136   149   151    1
   137   149   146    1
   138   140   141    1
   139    70    71    1
   140    70    69    1
   141   145   141   am
   142   145   146    1
   143    68    65    1
   144    68    69    1
   145   141   142    2
   146   146   147    1
   147    65    64    1
   148   147   148    2
   149   147   153   am
   150   159   153    1
   151   159   158    1
   152   153   154    1
   153   154   155    1
   154   154   157    1
   155   158   157    1
   156   155   156    2
