@<TRIPOS>MOLECULE
tmp/4x84B00.pdb
 118 111 0 0 0
SMALL
GASTEIGER

@<TRIPOS>ATOM
      1  N         10.7370  111.6220  -32.1500 N.3    13  LYS13      -0.1245
      2  CA        10.0700  112.3630  -31.0830 C.3    13  LYS13       0.1561
      3  C          9.8590  111.4830  -29.8500 C.2    13  LYS13       0.2260
      4  O         10.0740  111.9250  -28.7210 O.2    13  LYS13      -0.2867
      5  CB         8.7420  112.9600  -31.5720 C.3    13  LYS13       0.0271
      6  CG         8.9040  114.1050  -32.5730 C.3    13  LYS13       0.0035
      7  CD         7.5640  114.6110  -33.1020 C.3    13  LYS13       0.0206
      8  CE         7.7540  115.7620  -34.0920 C.3    13  LYS13       0.1093
      9  NZ         6.4730  116.2150  -34.7170 N.3    13  LYS13      -0.1314
     10  N          3.7830  121.8820  -24.8470 N.3    38  THR38      -0.1203
     11  CA         2.5710  121.6910  -25.6350 C.3    38  THR38       0.1994
     12  C          2.9670  121.2390  -27.0370 C.2    38  THR38       0.2618
     13  O          3.9890  121.6720  -27.5680 O.2    38  THR38      -0.2717
     14  CB         1.7600  123.0060  -25.7130 C.3    38  THR38       0.1784
     15  OG1        1.3130  123.3590  -24.4010 O.3    38  THR38      -0.2211
     16  CG2        0.5400  122.8650  -26.6270 C.3    38  THR38       0.0376
     17  N          2.1660  120.3610  -27.6350 N.am   39  GLY39      -0.1942
     18  CA         2.3840  119.9760  -29.0170 C.3    39  GLY39       0.2014
     19  C          2.7850  118.5260  -29.1810 C.2    39  GLY39       0.2640
     20  O          2.7850  117.7530  -28.2210 O.2    39  GLY39      -0.2714
     21  N          3.1510  118.1600  -30.4010 N.am   40  SER40      -0.1935
     22  CA         3.3430  116.7570  -30.7530 C.3    40  SER40       0.2055
     23  C          4.4580  116.0980  -29.9380 C.2    40  SER40       0.2644
     24  O          4.2900  114.9860  -29.4320 O.2    40  SER40      -0.2714
     25  CB         3.5880  116.6070  -32.2620 C.3    40  SER40       0.2130
     26  OG         4.8550  117.1170  -32.6600 O.3    40  SER40      -0.2179
     27  N          5.5890  116.7810  -29.7990 N.am   41  THR41      -0.1936
     28  CA         6.7140  116.1890  -29.0880 C.3    41  THR41       0.2028
     29  C          6.4260  116.1280  -27.5890 C.2    41  THR41       0.2642
     30  O          6.6750  115.1060  -26.9410 O.2    41  THR41      -0.2714
     31  CB         8.0370  116.9380  -29.3740 C.3    41  THR41       0.1808
     32  OG1        8.1770  117.1230  -30.7880 O.3    41  THR41      -0.2208
     33  CG2        9.2250  116.1420  -28.8700 C.3    41  THR41       0.0379
     34  N          5.8800  117.2140  -27.0480 N.am   42  ALA42      -0.1977
     35  CA         5.4950  117.2620  -25.6420 C.3    42  ALA42       0.1597
     36  C          4.4800  116.1680  -25.3040 C.2    42  ALA42       0.2287
     37  O          4.4960  115.6110  -24.2090 O.2    42  ALA42      -0.2864
     38  CB         4.9430  118.6450  -25.2870 C.3    42  ALA42       0.0319
     39  N          9.9140  120.6870  -23.1700 N.3    91  ASP91      -0.1225
     40  CA         9.0730  121.1300  -24.2860 C.3    91  ASP91       0.1805
     41  C          9.8260  120.9700  -25.6000 C.2    91  ASP91       0.2598
     42  O         11.0510  120.8870  -25.6130 O.2    91  ASP91      -0.2718
     43  CB         8.6920  122.6010  -24.0630 C.3    91  ASP91       0.1424
     44  CG         7.5370  123.0900  -24.9490 C.2    91  ASP91       0.3668
     45  OD1        6.8790  122.2940  -25.6620 O.co2  91  ASP91      -0.2456
     46  OD2        7.2680  124.3150  -24.9000 O.co2  91  ASP91      -0.2456
     47  N          9.0870  120.9240  -26.7050 N.am   92  GLY92      -0.1942
     48  CA         9.6890  120.9470  -28.0240 C.3    92  GLY92       0.2014
     49  C          9.9880  122.3490  -28.5220 C.2    92  GLY92       0.2639
     50  O          9.8950  123.3210  -27.7650 O.2    92  GLY92      -0.2714
     51  N         10.3530  122.4550  -29.7960 N.am   93  ALA93      -0.1963
     52  CA        10.6030  123.7470  -30.4290 C.3    93  ALA93       0.1728
     53  C         10.4830  123.5780  -31.9360 C.2    93  ALA93       0.2616
     54  O         10.4720  122.4550  -32.4440 O.2    93  ALA93      -0.2715
     55  CB        11.9910  124.2800  -30.0650 C.3    93  ALA93       0.0334
     56  N         10.4000  124.6930  -32.6550 N.am   94  ASP94      -0.1971
     57  CA        10.3800  124.6510  -34.1140 C.3    94  ASP94       0.1709
     58  C         11.7780  124.7470  -34.7250 C.2    94  ASP94       0.2293
     59  O         12.0570  124.1260  -35.7520 O.2    94  ASP94      -0.2864
     60  CB         9.4380  125.7270  -34.6370 C.3    94  ASP94       0.1436
     61  CG         8.0450  125.5190  -34.1330 C.2    94  ASP94       0.3671
     62  OD1        7.5190  124.4160  -34.4030 O.co2  94  ASP94      -0.2456
     63  OD2        7.5020  126.4010  -33.4350 O.co2  94  ASP94      -0.2456
     64  N          9.9420  129.2070  -31.1860 N.3   104  LYS104     -0.1231
     65  CA         8.7930  128.4580  -30.7110 C.3   104  LYS104      0.1693
     66  C          7.4970  129.1710  -31.0760 C.2   104  LYS104      0.2593
     67  O          7.5030  130.3680  -31.4070 O.2   104  LYS104     -0.2718
     68  CB         8.8840  128.2660  -29.1940 C.3   104  LYS104      0.0285
     69  CG         9.9540  127.2600  -28.8090 C.3   104  LYS104      0.0035
     70  CD        10.0850  127.0640  -27.2980 C.3   104  LYS104      0.0206
     71  CE         8.7730  126.6510  -26.6510 C.3   104  LYS104      0.1093
     72  NZ         8.1300  125.4780  -27.3290 N.3   104  LYS104     -0.1314
     73  N          6.3890  128.4360  -31.0150 N.am  105  GLY105     -0.1942
     74  CA         5.0750  129.0010  -31.2500 C.3   105  GLY105      0.2014
     75  C          4.3150  128.4340  -32.4310 C.2   105  GLY105      0.2639
     76  O          3.2010  128.8770  -32.7110 O.2   105  GLY105     -0.2714
     77  N          4.8940  127.4620  -33.1350 N.am  106  GLY106     -0.1939
     78  CA         4.1630  126.7880  -34.1960 C.3   106  GLY106      0.2014
     79  C          2.8510  126.2330  -33.6600 C.2   106  GLY106      0.2639
     80  O          1.8160  126.3320  -34.3210 O.2   106  GLY106     -0.2714
     81  N          2.8940  125.6810  -32.4480 N.am  107  GLY107     -0.1954
     82  CA         1.7170  125.1430  -31.7900 C.3   107  GLY107      0.1869
     83  C          0.8560  126.1580  -31.0550 C.2   107  GLY107      0.2309
     84  O         -0.0760  125.7590  -30.3480 O.2   107  GLY107     -0.2863
     85  N          1.2050  128.0710  -28.4780 N.3   109  ALA109     -0.1245
     86  CA         1.2180  128.0970  -27.0150 C.3   109  ALA109      0.1562
     87  C          2.4270  128.8590  -26.4620 C.2   109  ALA109      0.2260
     88  O          2.7120  128.7750  -25.2670 O.2   109  ALA109     -0.2867
     89  CB         1.1790  126.6660  -26.4630 C.3   109  ALA109      0.0290
     90  N          4.0660  128.8100  -22.4950 N.3   113  GLU113     -0.1245
     91  CA         5.3220  128.0590  -22.5400 C.3   113  GLU113      0.1567
     92  C          6.4910  128.9160  -22.0490 C.2   113  GLU113      0.2260
     93  O          7.3180  128.4550  -21.2620 O.2   113  GLU113     -0.2867
     94  CB         5.6040  127.5410  -23.9520 C.3   113  GLU113      0.0388
     95  CG         4.6530  126.4480  -24.3970 C.3   113  GLU113      0.1160
     96  CD         4.8660  126.0070  -25.8340 C.2   113  GLU113      0.3649
     97  OE1        5.4640  126.7690  -26.6240 O.co2 113  GLU113     -0.2457
     98  OE2        4.4300  124.8750  -26.1700 O.co2 113  GLU113     -0.2457
     99  N         15.3250  119.9790  -36.5220 N.3   131  LYS131     -0.1245
    100  CA        15.0290  121.2550  -35.8690 C.3   131  LYS131      0.1561
    101  C         16.2820  122.0890  -35.6000 C.2   131  LYS131      0.2260
    102  O         16.1900  123.2810  -35.3120 O.2   131  LYS131     -0.2867
    103  CB        14.2820  121.0210  -34.5490 C.3   131  LYS131      0.0271
    104  CG        12.9830  120.2200  -34.6700 C.3   131  LYS131      0.0035
    105  CD        11.9210  120.9780  -35.4490 C.3   131  LYS131      0.0206
    106  CE        10.5180  120.4590  -35.1600 C.3   131  LYS131      0.1093
    107  NZ        10.2590  119.1180  -35.7480 N.3   131  LYS131     -0.1314
    108  N         12.0170  128.9590  -40.4340 N.3   139  PHE139     -0.1241
    109  CA        10.6900  128.7370  -39.8750 C.3   139  PHE139      0.1605
    110  C         10.1680  130.1040  -39.4370 C.2   139  PHE139      0.2264
    111  O         10.8130  130.7770  -38.6350 O.2   139  PHE139     -0.2867
    112  CB        10.7700  127.8090  -38.6610 C.3   139  PHE139      0.0534
    113  CG         9.4320  127.3730  -38.1400 C.ar  139  PHE139     -0.0203
    114  CD1        8.7400  128.1510  -37.2270 C.ar  139  PHE139     -0.0042
    115  CD2        8.8670  126.1790  -38.5560 C.ar  139  PHE139     -0.0042
    116  CE1        7.5090  127.7500  -36.7480 C.ar  139  PHE139     -0.0003
    117  CE2        7.6300  125.7740  -38.0710 C.ar  139  PHE139     -0.0003
    118  CZ         6.9530  126.5660  -37.1670 C.ar  139  PHE139     -0.0000
@<TRIPOS>BOND
     1   108   109    1
     2   109   110    1
     3   109   112    1
     4   110   111    2
     5   112   113    1
     6   115   113   ar
     7   115   117   ar
     8   113   114   ar
     9   117   118   ar
    10   114   116   ar
    11   118   116   ar
    12    99   100    1
    13   100   101    1
    14   100   103    1
    15    59    58    2
    16   107   106    1
    17   101   102    2
    18   105   106    1
    19   105   104    1
    20    58    57    1
    21     9     8    1
    22   104   103    1
    23    60    61    1
    24    60    57    1
    25    62    61   ar
    26    80    79    2
    27    78    79    1
    28    78    77    1
    29    61    63   ar
    30    57    56    1
    31     8     7    1
    32    79    81   am
    33    77    75   am
    34     7     6    1
    35    76    75    2
    36    26    25    1
    37    56    53   am
    38     6     5    1
    39    81    82    1
    40    54    53    2
    41    75    74    1
    42    25    22    1
    43     1     2    1
    44    53    52    1
    45    82    83    1
    46     5     2    1
    47    67    66    2
    48    74    73    1
    49    64    65    1
    50     2     3    1
    51    66    73   am
    52    66    65    1
    53    83    84    2
    54    32    31    1
    55    22    21    1
    56    22    23    1
    57    65    68    1
    58    52    55    1
    59    52    51    1
    60    21    19   am
    61    23    27   am
    62    23    24    2
    63     3     4    2
    64    27    28    1
    65    51    49   am
    66    31    28    1
    67    31    33    1
    68    68    69    1
    69    19    18    1
    70    19    20    2
    71    28    29    1
    72    18    17    1
    73    69    70    1
    74    49    48    1
    75    49    50    2
    76    85    86    1
    77    48    47    1
    78    17    12   am
    79    29    34   am
    80    29    30    2
    81    13    12    2
    82    72    71    1
    83    70    71    1
    84    34    35    1
    85    12    11    1
    86    86    89    1
    87    86    87    1
    88    47    41   am
    89    16    14    1
    90    97    96   ar
    91    87    88    2
    92    98    96   ar
    93    96    95    1
    94    14    11    1
    95    14    15    1
    96    45    44   ar
    97    35    36    1
    98    35    38    1
    99    11    10    1
   100    42    41    2
   101    41    40    1
   102    36    37    2
   103    44    46   ar
   104    44    43    1
   105    95    94    1
   106    40    43    1
   107    40    39    1
   108    94    91    1
   109    91    90    1
   110    91    92    1
   111    92    93    2
