@<TRIPOS>MOLECULE
tmp/4x88B00.pdb
 100 97 0 0 0
SMALL
GASTEIGER

@<TRIPOS>ATOM
      1  N        -26.2050  -53.2170   32.6220 N.3     8  LEU8       -0.1231
      2  CA       -26.5990  -54.4720   31.9950 C.3     8  LEU8        0.1693
      3  C        -25.5170  -55.5660   32.0900 C.2     8  LEU8        0.2592
      4  O        -25.8530  -56.6940   32.4460 O.2     8  LEU8       -0.2718
      5  CB       -27.0210  -54.1850   30.5410 C.3     8  LEU8        0.0284
      6  CG       -27.7470  -55.2630   29.7320 C.3     8  LEU8        0.0019
      7  CD1      -29.0460  -55.7230   30.4010 C.3     8  LEU8        0.0001
      8  CD2      -28.0560  -54.7390   28.3530 C.3     8  LEU8        0.0001
      9  N        -24.2340  -55.2300   31.8270 N.am    9  THR9       -0.1953
     10  CA       -23.1480  -56.2110   31.9280 C.3     9  THR9        0.1897
     11  C        -22.8710  -56.6680   33.3460 C.2     9  THR9        0.2313
     12  O        -22.5650  -57.8430   33.5440 O.2     9  THR9       -0.2863
     13  CB       -21.9160  -55.8610   31.1150 C.3     9  THR9        0.1794
     14  OG1      -21.8960  -54.4660   30.8210 O.3     9  THR9       -0.2208
     15  CG2      -21.8410  -56.6680   29.8380 C.3     9  THR9        0.0378
     16  N        -25.9050  -58.8870   34.0970 N.3    12  PHE12      -0.1227
     17  CA       -25.6680  -60.1100   33.3360 C.3    12  PHE12       0.1736
     18  C        -24.6140  -61.0190   33.9560 C.2    12  PHE12       0.2595
     19  O        -24.7550  -62.2360   33.8650 O.2    12  PHE12      -0.2718
     20  CB       -25.2800  -59.7840   31.8920 C.3    12  PHE12       0.0547
     21  CG       -26.0030  -60.6500   30.8910 C.ar   12  PHE12      -0.0202
     22  CD1      -27.3200  -60.3750   30.5310 C.ar   12  PHE12      -0.0042
     23  CD2      -25.3710  -61.7420   30.3100 C.ar   12  PHE12      -0.0042
     24  CE1      -27.9960  -61.1870   29.6290 C.ar   12  PHE12      -0.0003
     25  CE2      -26.0460  -62.5480   29.3970 C.ar   12  PHE12      -0.0003
     26  CZ       -27.3500  -62.2590   29.0610 C.ar   12  PHE12      -0.0000
     27  N        -23.5600  -60.4430   34.5710 N.am   13  TYR13      -0.1976
     28  CA       -22.5220  -61.2410   35.2160 C.3    13  TYR13       0.1639
     29  C        -22.9550  -61.7810   36.5740 C.2    13  TYR13       0.2290
     30  O        -22.7040  -62.9560   36.8510 O.2    13  TYR13      -0.2864
     31  CB       -21.1710  -60.5210   35.2520 C.3    13  TYR13       0.0560
     32  CG       -20.3180  -60.8750   34.0510 C.ar   13  TYR13      -0.0198
     33  CD1      -20.3300  -60.0850   32.9040 C.ar   13  TYR13      -0.0009
     34  CD2      -19.5530  -62.0380   34.0350 C.ar   13  TYR13      -0.0009
     35  CE1      -19.5790  -60.4300   31.7800 C.ar   13  TYR13       0.0417
     36  CE2      -18.7990  -62.3920   32.9160 C.ar   13  TYR13       0.0417
     37  CZ       -18.8130  -61.5840   31.7920 C.ar   13  TYR13       0.1957
     38  OH       -18.0610  -61.9320   30.6950 O.3    13  TYR13      -0.2866
     39  N        -21.4720  -74.0110   34.4780 N.3    33  ASP33      -0.1239
     40  CA       -20.3070  -73.1280   34.5970 C.3    33  ASP33       0.1674
     41  C        -20.6960  -71.7280   34.1540 C.2    33  ASP33       0.2266
     42  O        -21.5800  -71.5990   33.3080 O.2    33  ASP33      -0.2867
     43  CB       -19.0140  -73.6490   33.8940 C.3    33  ASP33       0.1410
     44  CG       -19.0080  -73.9010   32.3850 C.2    33  ASP33       0.3668
     45  OD1      -19.5290  -73.0460   31.6350 O.co2  33  ASP33      -0.2456
     46  OD2      -18.3440  -74.8810   31.9440 O.co2  33  ASP33      -0.2456
     47  N        -19.8070  -69.5050   32.0360 N.3    35  SER35      -0.1202
     48  CA       -19.9690  -69.2700   30.5910 C.3    35  SER35       0.2020
     49  C        -21.2570  -69.9040   30.0460 C.2    35  SER35       0.2618
     50  O        -22.0110  -69.2150   29.3540 O.2    35  SER35      -0.2717
     51  CB       -18.7420  -69.7340   29.8050 C.3    35  SER35       0.2103
     52  OG       -18.6450  -71.1490   29.7300 O.3    35  SER35      -0.2182
     53  N        -21.5340  -71.1920   30.4040 N.am   36  LYS36      -0.1979
     54  CA       -22.7520  -71.9230   30.0220 C.3    36  LYS36       0.1596
     55  C        -23.9950  -71.1490   30.4450 C.2    36  LYS36       0.2287
     56  O        -24.9400  -71.0540   29.6570 O.2    36  LYS36      -0.2864
     57  CB       -22.7590  -73.3490   30.5960 C.3    36  LYS36       0.0298
     58  CG       -21.9570  -74.3260   29.7290 C.3    36  LYS36       0.0038
     59  CD       -22.2420  -75.7820   30.0950 C.3    36  LYS36       0.0206
     60  CE       -21.1690  -76.3970   30.9700 C.3    36  LYS36       0.1093
     61  NZ       -21.6120  -77.6740   31.5920 N.3    36  LYS36      -0.1314
     62  N        -24.0660  -67.6150   31.1420 N.3    38  LEU38      -0.1231
     63  CA       -24.0770  -66.3690   30.3500 C.3    38  LEU38       0.1693
     64  C        -24.7450  -66.5530   28.9820 C.2    38  LEU38       0.2592
     65  O        -25.4080  -65.6340   28.4940 O.2    38  LEU38      -0.2718
     66  CB       -22.6570  -65.8090   30.1760 C.3    38  LEU38       0.0284
     67  CG       -22.0510  -65.0940   31.3660 C.3    38  LEU38       0.0019
     68  CD1      -20.5450  -65.1810   31.3420 C.3    38  LEU38       0.0001
     69  CD2      -22.5350  -63.6670   31.4570 C.3    38  LEU38       0.0001
     70  N        -24.5870  -67.7480   28.3850 N.am   39  TYR39      -0.1976
     71  CA       -25.1900  -68.0980   27.1100 C.3    39  TYR39       0.1639
     72  C        -26.7100  -68.3200   27.2730 C.2    39  TYR39       0.2290
     73  O        -27.5100  -67.7630   26.5100 O.2    39  TYR39      -0.2864
     74  CB       -24.5060  -69.3480   26.5250 C.3    39  TYR39       0.0560
     75  CG       -25.1410  -69.7900   25.2270 C.ar   39  TYR39      -0.0198
     76  CD1      -24.7610  -69.2230   24.0160 C.ar   39  TYR39      -0.0009
     77  CD2      -26.1750  -70.7190   25.2160 C.ar   39  TYR39      -0.0009
     78  CE1      -25.3790  -69.5860   22.8230 C.ar   39  TYR39       0.0417
     79  CE2      -26.8130  -71.0760   24.0330 C.ar   39  TYR39       0.0417
     80  CZ       -26.4100  -70.5070   22.8390 C.ar   39  TYR39       0.1957
     81  OH       -27.0130  -70.8960   21.6750 O.3    39  TYR39      -0.2866
     82  N        -28.5410  -65.1950   28.0930 N.3    42  PHE42      -0.1241
     83  CA       -28.6860  -64.3650   26.8970 C.3    42  PHE42       0.1605
     84  C        -29.8790  -64.9130   26.1280 C.2    42  PHE42       0.2264
     85  O        -30.7220  -64.1210   25.6990 O.2    42  PHE42      -0.2867
     86  CB       -27.4170  -64.3440   26.0300 C.3    42  PHE42       0.0534
     87  CG       -27.5570  -63.5340   24.7590 C.ar   42  PHE42      -0.0203
     88  CD1      -27.2070  -62.1900   24.7300 C.ar   42  PHE42      -0.0042
     89  CD2      -28.0200  -64.1240   23.5820 C.ar   42  PHE42      -0.0042
     90  CE1      -27.3210  -61.4480   23.5490 C.ar   42  PHE42      -0.0003
     91  CE2      -28.1550  -63.3760   22.4070 C.ar   42  PHE42      -0.0003
     92  CZ       -27.8010  -62.0450   22.3970 C.ar   42  PHE42      -0.0000
     93  N        -32.9960  -63.9640   27.9340 N.3    45  MET45      -0.1245
     94  CA       -33.2050  -62.5280   27.6890 C.3    45  MET45       0.1570
     95  C        -33.8320  -62.2270   26.2920 C.2    45  MET45       0.2261
     96  O        -34.6080  -61.2780   26.1640 O.2    45  MET45      -0.2867
     97  CB       -31.8960  -61.7570   27.9290 C.3    45  MET45       0.0387
     98  CG       -32.0340  -60.2520   27.8650 C.3    45  MET45       0.0595
     99  SD       -30.6480  -59.5070   26.9680 S.3    45  MET45      -0.1393
    100  CE       -31.0960  -59.9030   25.2700 C.3    45  MET45       0.0692
@<TRIPOS>BOND
     1    81    80    1
     2    92    91   ar
     3    92    90   ar
     4    91    89   ar
     5    78    80   ar
     6    78    76   ar
     7    80    79   ar
     8    90    88   ar
     9    89    87   ar
    10    76    75   ar
    11    79    77   ar
    12    88    87   ar
    13    87    86    1
    14    77    75   ar
    15    75    74    1
    16   100    99    1
    17    85    84    2
    18    86    83    1
    19    84    83    1
    20    96    95    2
    21    95    94    1
    22    73    72    2
    23    74    71    1
    24    83    82    1
    25    99    98    1
    26    71    72    1
    27    71    70    1
    28    94    97    1
    29    94    93    1
    30    98    97    1
    31     8     6    1
    32    70    64   am
    33    65    64    2
    34    64    63    1
    35    26    25   ar
    36    26    24   ar
    37    50    49    2
    38    25    23   ar
    39    24    22   ar
    40    56    55    2
    41    58    59    1
    42    58    57    1
    43    52    51    1
    44     6     7    1
    45     6     5    1
    46    51    48    1
    47    15    13    1
    48    54    53    1
    49    54    55    1
    50    54    57    1
    51    49    53   am
    52    49    48    1
    53    59    60    1
    54    66    63    1
    55    66    67    1
    56    23    21   ar
    57    63    62    1
    58    22    21   ar
    59     5     2    1
    60    48    47    1
    61    38    37    1
    62    14    13    1
    63    21    20    1
    64    60    61    1
    65    13    10    1
    66    68    67    1
    67    67    69    1
    68    45    44   ar
    69    35    37   ar
    70    35    33   ar
    71    37    36   ar
    72     9    10    1
    73     9     3   am
    74    20    17    1
    75    10    11    1
    76    46    44   ar
    77     2     3    1
    78     2     1    1
    79     3     4    2
    80    44    43    1
    81    33    32   ar
    82    36    34   ar
    83    42    41    2
    84    17    18    1
    85    17    16    1
    86    11    12    2
    87    19    18    2
    88    43    40    1
    89    18    27   am
    90    34    32   ar
    91    32    31    1
    92    41    40    1
    93    39    40    1
    94    27    28    1
    95    28    31    1
    96    28    29    1
    97    29    30    2
