@<TRIPOS>MOLECULE
tmp/4x88B02.pdb
 115 111 0 0 0
SMALL
GASTEIGER

@<TRIPOS>ATOM
      1  N        -25.2450  -56.7020   35.7980 N.3    11  VAL11      -0.1245
      2  CA       -26.4640  -57.4750   36.0260 C.3    11  VAL11       0.1561
      3  C        -26.2970  -58.8540   35.3840 C.2    11  VAL11       0.2260
      4  O        -26.4400  -59.8600   36.0710 O.2    11  VAL11      -0.2867
      5  CB       -27.7120  -56.6900   35.5170 C.3    11  VAL11       0.0252
      6  CG1      -28.8270  -57.6080   35.0120 C.3    11  VAL11       0.0019
      7  CG2      -28.2340  -55.7390   36.5890 C.3    11  VAL11       0.0019
      8  N        -23.6650  -60.9470   37.3850 N.3    14  ILE14      -0.1231
      9  CA       -24.2200  -61.2960   38.7050 C.3    14  ILE14       0.1692
     10  C        -25.3120  -62.3400   38.5360 C.2    14  ILE14       0.2591
     11  O        -25.3660  -63.2860   39.3200 O.2    14  ILE14      -0.2718
     12  CB       -24.6690  -60.0220   39.4920 C.3    14  ILE14       0.0266
     13  CG1      -23.4410  -59.3570   40.1560 C.3    14  ILE14       0.0019
     14  CG2      -25.7660  -60.3080   40.5340 C.3    14  ILE14       0.0020
     15  CD1      -23.5840  -57.8880   40.5320 C.3    14  ILE14       0.0001
     16  N        -26.1470  -62.1920   37.4840 N.am   15  ALA15      -0.1980
     17  CA       -27.2220  -63.1310   37.1510 C.3    15  ALA15       0.1597
     18  C        -26.6370  -64.4990   36.8160 C.2    15  ALA15       0.2287
     19  O        -27.1770  -65.5030   37.2690 O.2    15  ALA15      -0.2864
     20  CB       -28.0360  -62.6110   35.9780 C.3    15  ALA15       0.0319
     21  N        -25.0540  -66.1050   39.9710 N.3    18  MET18      -0.1245
     22  CA       -26.1710  -66.6560   40.7500 C.3    18  MET18       0.1570
     23  C        -26.7170  -67.9220   40.0940 C.2    18  MET18       0.2261
     24  O        -26.8230  -68.9410   40.7640 O.2    18  MET18      -0.2867
     25  CB       -27.3070  -65.6280   40.8870 C.3    18  MET18       0.0387
     26  CG       -27.2390  -64.8060   42.1460 C.3    18  MET18       0.0595
     27  SD       -28.4120  -63.4150   42.1680 S.3    18  MET18      -0.1393
     28  CE       -29.9640  -64.2820   42.5640 C.3    18  MET18       0.0692
     29  N        -27.1520  -71.7980   41.5800 N.3    22  LEU22      -0.1231
     30  CA       -28.4820  -72.3190   41.8360 C.3    22  LEU22       0.1693
     31  C        -28.8610  -73.5970   41.0540 C.2    22  LEU22       0.2592
     32  O        -29.2400  -74.6070   41.6650 O.2    22  LEU22      -0.2718
     33  CB       -29.5040  -71.1980   41.6190 C.3    22  LEU22       0.0284
     34  CG       -29.5380  -70.1190   42.6690 C.3    22  LEU22       0.0019
     35  CD1      -29.7250  -68.7640   42.0460 C.3    22  LEU22       0.0001
     36  CD2      -30.6320  -70.3860   43.6340 C.3    22  LEU22       0.0001
     37  N        -28.7510  -73.5600   39.7190 N.am   23  TYR23      -0.1976
     38  CA       -29.1910  -74.6560   38.8550 C.3    23  TYR23       0.1639
     39  C        -28.0900  -75.3800   38.0820 C.2    23  TYR23       0.2290
     40  O        -28.3950  -76.1680   37.1830 O.2    23  TYR23      -0.2864
     41  CB       -30.2740  -74.1230   37.9070 C.3    23  TYR23       0.0560
     42  CG       -31.0250  -72.9260   38.4520 C.ar   23  TYR23      -0.0198
     43  CD1      -31.9930  -73.0760   39.4400 C.ar   23  TYR23      -0.0009
     44  CD2      -30.7620  -71.6420   37.9870 C.ar   23  TYR23      -0.0009
     45  CE1      -32.6910  -71.9800   39.9440 C.ar   23  TYR23       0.0417
     46  CE2      -31.4490  -70.5350   38.4840 C.ar   23  TYR23       0.0417
     47  CZ       -32.4120  -70.7080   39.4670 C.ar   23  TYR23       0.1957
     48  OH       -33.0890  -69.6230   39.9790 O.3    23  TYR23      -0.2866
     49  N        -36.6080  -77.2960   40.9090 N.3    62  HIS62      -0.1241
     50  CA       -36.6440  -76.0860   41.7570 C.3    62  HIS62       0.1621
     51  C        -37.9870  -75.3590   41.5110 C.2    62  HIS62       0.2264
     52  O        -38.0400  -74.5200   40.6010 O.2    62  HIS62      -0.2867
     53  CB       -35.4600  -75.1610   41.4190 C.3    62  HIS62       0.0745
     54  CG       -34.1970  -75.9010   41.1110 C.ar   62  HIS62       0.0817
     55  ND1      -33.6680  -76.8410   41.9930 N.ar   62  HIS62      -0.2268
     56  CD2      -33.4080  -75.8410   40.0150 C.ar   62  HIS62       0.1154
     57  CE1      -32.5680  -77.2960   41.4150 C.ar   62  HIS62       0.1986
     58  NE2      -32.3600  -76.7150   40.2300 N.ar   62  HIS62      -0.2212
     59  N        -39.6870  -72.8750   42.6550 N.3    64  ASN64      -0.1225
     60  CA       -39.7380  -71.4300   42.7740 C.3    64  ASN64       0.1785
     61  C        -38.7300  -70.7170   41.8790 C.2    64  ASN64       0.2597
     62  O        -38.5130  -69.5200   42.0740 O.2    64  ASN64      -0.2718
     63  CB       -39.5630  -71.0340   44.2200 C.3    64  ASN64       0.1169
     64  CG       -40.7490  -71.4510   45.0430 C.2    64  ASN64       0.2627
     65  OD1      -41.8460  -70.8770   44.9470 O.2    64  ASN64      -0.2716
     66  ND2      -40.5780  -72.5080   45.8280 N.am   64  ASN64      -0.0877
     67  N        -38.1450  -71.4260   40.8620 N.am   65  ALA65      -0.1979
     68  CA       -37.1210  -70.8820   39.9530 C.3    65  ALA65       0.1597
     69  C        -37.5930  -69.6200   39.2550 C.2    65  ALA65       0.2287
     70  O        -36.7770  -68.7730   38.8900 O.2    65  ALA65      -0.2864
     71  CB       -36.6940  -71.9270   38.9440 C.3    65  ALA65       0.0319
     72  N        -39.0290  -67.0240   40.5940 N.3    67  VAL67      -0.1231
     73  CA       -38.6590  -65.8500   41.4110 C.3    67  VAL67       0.1692
     74  C        -37.3280  -65.2140   40.9220 C.2    67  VAL67       0.2592
     75  O        -37.0360  -64.0560   41.2540 O.2    67  VAL67      -0.2718
     76  CB       -38.5780  -66.1990   42.9110 C.3    67  VAL67       0.0266
     77  CG1      -38.4300  -64.9400   43.7580 C.3    67  VAL67       0.0020
     78  CG2      -39.8000  -66.9840   43.3510 C.3    67  VAL67       0.0020
     79  N        -36.5260  -65.9810   40.1460 N.am   68  PHE68      -0.1976
     80  CA       -35.2760  -65.5050   39.5730 C.3    68  PHE68       0.1639
     81  C        -35.4230  -65.1830   38.0750 C.2    68  PHE68       0.2290
     82  O        -34.9860  -64.1140   37.6510 O.2    68  PHE68      -0.2864
     83  CB       -34.1280  -66.4930   39.8440 C.3    68  PHE68       0.0560
     84  CG       -32.8500  -66.2350   39.0660 C.ar   68  PHE68      -0.0200
     85  CD1      -31.8720  -65.3810   39.5650 C.ar   68  PHE68      -0.0042
     86  CD2      -32.6180  -66.8650   37.8480 C.ar   68  PHE68      -0.0042
     87  CE1      -30.6830  -65.1590   38.8570 C.ar   68  PHE68      -0.0003
     88  CE2      -31.4430  -66.6300   37.1370 C.ar   68  PHE68      -0.0003
     89  CZ       -30.4770  -65.7870   37.6500 C.ar   68  PHE68      -0.0000
     90  N        -38.3090  -61.9900   37.1170 N.3    71  PRO71      -0.2102
     91  CA       -37.7470  -60.6510   37.3700 C.3    71  PRO71       0.1504
     92  C        -36.5730  -60.3510   36.4390 C.2    71  PRO71       0.2575
     93  O        -36.5440  -59.2660   35.8610 O.2    71  PRO71      -0.2718
     94  CB       -37.3100  -60.7170   38.8420 C.3    71  PRO71       0.0282
     95  CG       -38.1250  -61.8010   39.4260 C.3    71  PRO71       0.0208
     96  CD       -38.2080  -62.8210   38.3360 C.3    71  PRO71       0.0893
     97  N        -35.6480  -61.3260   36.2390 N.am   72  PHE72      -0.1977
     98  CA       -34.5060  -61.1780   35.3360 C.3    72  PHE72       0.1639
     99  C        -34.9950  -60.7550   33.9410 C.2    72  PHE72       0.2290
    100  O        -34.4560  -59.7980   33.3830 O.2    72  PHE72      -0.2864
    101  CB       -33.6670  -62.4740   35.2810 C.3    72  PHE72       0.0560
    102  CG       -32.7140  -62.5690   34.1140 C.ar   72  PHE72      -0.0200
    103  CD1      -31.4230  -62.0630   34.2070 C.ar   72  PHE72      -0.0042
    104  CD2      -33.1120  -63.1520   32.9170 C.ar   72  PHE72      -0.0042
    105  CE1      -30.5450  -62.1380   33.1240 C.ar   72  PHE72      -0.0003
    106  CE2      -32.2420  -63.2070   31.8320 C.ar   72  PHE72      -0.0003
    107  CZ       -30.9610  -62.6990   31.9410 C.ar   72  PHE72      -0.0000
    108  N        -36.4040  -57.1290   33.9940 N.3    75  LEU75      -0.1245
    109  CA       -35.2840  -56.2040   34.1500 C.3    75  LEU75       0.1561
    110  C        -34.3680  -56.0850   32.9220 C.2    75  LEU75       0.2260
    111  O        -34.0670  -54.9600   32.5030 O.2    75  LEU75      -0.2867
    112  CB       -34.4910  -56.5630   35.4230 C.3    75  LEU75       0.0270
    113  CG       -33.0960  -55.9810   35.6180 C.3    75  LEU75       0.0019
    114  CD1      -33.1420  -54.4840   35.8890 C.3    75  LEU75       0.0001
    115  CD2      -32.3910  -56.6960   36.7350 C.3    75  LEU75       0.0001
@<TRIPOS>BOND
     1   106   107   ar
     2   106   104   ar
     3   107   105   ar
     4   111   110    2
     5   104   102   ar
     6   110   109    1
     7   105   103   ar
     8   100    99    2
     9    99    98    1
    10   108   109    1
    11   102   103   ar
    12   102   101    1
    13   109   112    1
    14     6     5    1
    15   101    98    1
    16    98    97    1
    17     3     2    1
    18     3     4    2
    19   112   113    1
    20     5     2    1
    21     5     7    1
    22   113   114    1
    23   113   115    1
    24     1     2    1
    25    93    92    2
    26    20    17    1
    27    97    92   am
    28    92    91    1
    29    18    17    1
    30    18    19    2
    31    90    91    1
    32    90    96    1
    33    88    89   ar
    34    88    86   ar
    35    17    16    1
    36    40    39    2
    37    91    94    1
    38     8     9    1
    39    16    10   am
    40    89    87   ar
    41    82    81    2
    42    86    84   ar
    43    41    42    1
    44    41    38    1
    45    44    42   ar
    46    44    46   ar
    47    81    80    1
    48    39    38    1
    49    96    95    1
    50    42    43   ar
    51    46    47   ar
    52    10     9    1
    53    10    11    2
    54     9    12    1
    55    94    95    1
    56    38    37    1
    57    87    85   ar
    58    70    69    2
    59    71    68    1
    60    84    85   ar
    61    84    83    1
    62    69    68    1
    63    43    45   ar
    64    47    45   ar
    65    47    48    1
    66    12    13    1
    67    12    14    1
    68    80    83    1
    69    80    79    1
    70    37    31   am
    71    68    67    1
    72    21    22    1
    73    56    58   ar
    74    56    54   ar
    75    23    22    1
    76    23    24    2
    77    79    74   am
    78    13    15    1
    79    58    57   ar
    80    72    73    1
    81    52    51    2
    82    22    25    1
    83    67    61   am
    84    25    26    1
    85    49    50    1
    86    74    75    2
    87    74    73    1
    88    31    32    2
    89    31    30    1
    90    54    53    1
    91    54    55   ar
    92    73    76    1
    93    57    55   ar
    94    53    50    1
    95    51    50    1
    96    29    30    1
    97    33    30    1
    98    33    34    1
    99    61    62    2
   100    61    60    1
   101    35    34    1
   102    26    27    1
   103    27    28    1
   104    59    60    1
   105    34    36    1
   106    60    63    1
   107    76    78    1
   108    76    77    1
   109    63    64    1
   110    65    64    2
   111    64    66   am
