@<TRIPOS>MOLECULE
tmp/4x8cA00.pdb
 171 166 0 0 0
SMALL
GASTEIGER

@<TRIPOS>ATOM
      1  N         28.2970   44.9500   11.4690 N.3   283  ASP283     -0.1225
      2  CA        27.5580   44.5440   12.6590 C.3   283  ASP283      0.1805
      3  C         26.0650   44.8240   12.5060 C.2   283  ASP283      0.2597
      4  O         25.2370   44.2240   13.1930 O.2   283  ASP283     -0.2718
      5  CB        28.1030   45.2570   13.8980 C.3   283  ASP283      0.1424
      6  CG        28.1170   46.7530   13.7720 C.2   283  ASP283      0.3668
      7  OD1       28.0210   47.2850   12.6700 O.co2 283  ASP283     -0.2456
      8  OD2       28.2000   47.3560   14.8850 O.co2 283  ASP283     -0.2456
      9  N         25.7280   45.7380   11.6020 N.am  284  GLU284     -0.1979
     10  CA        24.3360   46.0840   11.3490 C.3   284  GLU284      0.1602
     11  C         23.8680   45.5150   10.0130 C.2   284  GLU284      0.2287
     12  O         23.0180   46.1000    9.3410 O.2   284  GLU284     -0.2864
     13  CB        24.1480   47.6020   11.3700 C.3   284  GLU284      0.0415
     14  CG        24.7110   48.1830   12.6610 C.3   284  GLU284      0.1163
     15  CD        23.8450   47.9800   13.8750 C.2   284  GLU284      0.3649
     16  OE1       22.7740   47.3880   13.7230 O.co2 284  GLU284     -0.2457
     17  OE2       24.2400   48.4190   14.9990 O.co2 284  GLU284     -0.2457
     18  N         20.8590   42.2530   13.8620 N.3   313  GLY313     -0.1225
     19  CA        21.4890   41.5840   14.9840 C.3   313  GLY313      0.1811
     20  C         20.4510   40.7270   15.6770 C.2   313  GLY313      0.2280
     21  O         20.7730   39.7730   16.3870 O.2   313  GLY313     -0.2866
     22  N         18.8270   45.7260   24.6300 N.3   374  VAL374     -0.1245
     23  CA        19.1230   45.8120   23.2060 C.3   374  VAL374      0.1561
     24  C         17.9920   45.1560   22.4160 C.2   374  VAL374      0.2260
     25  O         17.3890   45.7790   21.5400 O.2   374  VAL374     -0.2867
     26  CB        20.4650   45.1410   22.8550 C.3   374  VAL374      0.0252
     27  CG1       20.8300   45.4070   21.4010 C.3   374  VAL374      0.0019
     28  CG2       21.5670   45.6360   23.7820 C.3   374  VAL374      0.0019
     29  N         18.1730   41.9130   20.8870 N.3   376  HIS376     -0.1241
     30  CA        18.5920   40.9650   19.8590 C.3   376  HIS376      0.1621
     31  C         18.7030   39.5460   20.4140 C.2   376  HIS376      0.2264
     32  O         19.0890   39.3480   21.5650 O.2   376  HIS376     -0.2867
     33  CB        19.9220   41.4030   19.2440 C.3   376  HIS376      0.0745
     34  CG        19.8540   42.7190   18.5320 C.ar  376  HIS376      0.0817
     35  ND1       20.9200   43.2460   17.8360 N.ar  376  HIS376     -0.2268
     36  CD2       18.8450   43.6140   18.4070 C.ar  376  HIS376      0.1154
     37  CE1       20.5720   44.4080   17.3140 C.ar  376  HIS376      0.1986
     38  NE2       19.3170   44.6550   17.6470 N.ar  376  HIS376     -0.2212
     39  N         20.7390   37.1770   19.4940 N.3   378  ASP378     -0.1225
     40  CA        22.1080   36.6700   19.5410 C.3   378  ASP378      0.1805
     41  C         22.7790   36.9720   20.8800 C.2   378  ASP378      0.2597
     42  O         23.9240   36.5860   21.1120 O.2   378  ASP378     -0.2718
     43  CB        22.9380   37.2540   18.3920 C.3   378  ASP378      0.1424
     44  CG        23.2230   38.7380   18.5620 C.2   378  ASP378      0.3668
     45  OD1       22.4310   39.4310   19.2330 O.co2 378  ASP378     -0.2456
     46  OD2       24.2420   39.2130   18.0180 O.co2 378  ASP378     -0.2456
     47  N         22.0570   37.6630   21.7560 N.am  379  GLU379     -0.1979
     48  CA        22.5700   38.0150   23.0720 C.3   379  GLU379      0.1602
     49  C         22.4500   36.8610   24.0610 C.2   379  GLU379      0.2287
     50  O         23.1350   36.8410   25.0830 O.2   379  GLU379     -0.2864
     51  CB        21.8320   39.2360   23.6210 C.3   379  GLU379      0.0415
     52  CG        21.9820   40.4890   22.7800 C.3   379  GLU379      0.1163
     53  CD        21.1830   41.6530   23.3330 C.2   379  GLU379      0.3649
     54  OE1       21.6420   42.2920   24.3030 O.co2 379  GLU379     -0.2457
     55  OE2       20.0890   41.9240   22.7970 O.co2 379  GLU379     -0.2457
     56  N         36.7270   42.6270   36.8380 N.3   420  PHE420     -0.1241
     57  CA        36.8860   43.9420   36.2140 C.3   420  PHE420      0.1605
     58  C         38.2890   44.5220   36.3860 C.2   420  PHE420      0.2264
     59  O         38.4780   45.7370   36.3300 O.2   420  PHE420     -0.2867
     60  CB        35.8550   44.9260   36.7750 C.3   420  PHE420      0.0534
     61  CG        34.4420   44.5930   36.4110 C.ar  420  PHE420     -0.0203
     62  CD1       33.8110   45.2490   35.3680 C.ar  420  PHE420     -0.0042
     63  CD2       33.7420   43.6240   37.1100 C.ar  420  PHE420     -0.0042
     64  CE1       32.5090   44.9470   35.0300 C.ar  420  PHE420     -0.0003
     65  CE2       32.4410   43.3150   36.7760 C.ar  420  PHE420     -0.0003
     66  CZ        31.8230   43.9770   35.7340 C.ar  420  PHE420     -0.0000
     67  N         20.6160   43.3660   30.6880 N.3   480  GLU480     -0.1231
     68  CA        21.8630   43.7240   30.0280 C.3   480  GLU480      0.1699
     69  C         22.9920   42.8620   30.5740 C.2   480  GLU480      0.2592
     70  O         22.9940   42.5110   31.7540 O.2   480  GLU480     -0.2718
     71  CB        22.1660   45.2100   30.2280 C.3   480  GLU480      0.0402
     72  CG        23.3050   45.7500   29.3800 C.3   480  GLU480      0.1161
     73  CD        23.3870   47.2640   29.4270 C.2   480  GLU480      0.3649
     74  OE1       22.3380   47.9200   29.2540 O.co2 480  GLU480     -0.2457
     75  OE2       24.4960   47.7960   29.6470 O.co2 480  GLU480     -0.2457
     76  N         23.9410   42.5150   29.7130 N.am  481  ALA481     -0.1966
     77  CA        25.0490   41.6480   30.1010 C.3   481  ALA481      0.1728
     78  C         25.8850   42.2580   31.2250 C.2   481  ALA481      0.2616
     79  O         26.4090   43.3650   31.0950 O.2   481  ALA481     -0.2715
     80  CB        25.9260   41.3450   28.8960 C.3   481  ALA481      0.0334
     81  N         25.9940   41.5280   32.3310 N.am  482  PHE482     -0.1960
     82  CA        26.8010   41.9590   33.4660 C.3   482  PHE482      0.1771
     83  C         28.2640   42.0570   33.0480 C.2   482  PHE482      0.2620
     84  O         28.9420   43.0450   33.3310 O.2   482  PHE482     -0.2715
     85  CB        26.6430   40.9890   34.6390 C.3   482  PHE482      0.0574
     86  CG        27.1680   41.5210   35.9450 C.ar  482  PHE482     -0.0200
     87  CD1       27.3770   42.8790   36.1250 C.ar  482  PHE482     -0.0042
     88  CD2       27.4590   40.6590   36.9920 C.ar  482  PHE482     -0.0042
     89  CE1       27.8610   43.3690   37.3250 C.ar  482  PHE482     -0.0003
     90  CE2       27.9440   41.1440   38.1940 C.ar  482  PHE482     -0.0003
     91  CZ        28.1450   42.5010   38.3610 C.ar  482  PHE482     -0.0000
     92  N         28.7400   41.0150   32.3780 N.am  483  PHE483     -0.1960
     93  CA        30.0730   41.0020   31.7950 C.3   483  PHE483      0.1756
     94  C         29.9240   40.5640   30.3380 C.2   483  PHE483      0.2461
     95  O         28.8600   40.0640   29.9660 O.2   483  PHE483     -0.2730
     96  CB        31.0120   40.0790   32.5910 C.3   483  PHE483      0.0574
     97  CG        30.5620   38.6440   32.6570 C.ar  483  PHE483     -0.0200
     98  CD1       30.9180   37.7440   31.6660 C.ar  483  PHE483     -0.0042
     99  CD2       29.8090   38.1890   33.7270 C.ar  483  PHE483     -0.0042
    100  CE1       30.5170   36.4220   31.7310 C.ar  483  PHE483     -0.0003
    101  CE2       29.4030   36.8680   33.7980 C.ar  483  PHE483     -0.0003
    102  CZ        29.7580   35.9840   32.7980 C.ar  483  PHE483     -0.0000
    103  N         30.9620   40.7780   29.5030 N.am  484  PRO484     -0.2716
    104  CA        30.8890   40.3960   28.0850 C.3   484  PRO484      0.1536
    105  C         30.3570   38.9810   27.8580 C.2   484  PRO484      0.2598
    106  O         30.9620   38.0100   28.3150 O.2   484  PRO484     -0.2715
    107  CB        32.3430   40.5100   27.6260 C.3   484  PRO484      0.0310
    108  CG        32.8910   41.6070   28.4590 C.3   484  PRO484      0.0237
    109  CD        32.2240   41.4820   29.8060 C.3   484  PRO484      0.0939
    110  N         29.2290   38.8780   27.1600 N.am  485  ASN485     -0.1973
    111  CA        28.5490   37.5990   26.9840 C.3   485  ASN485      0.1688
    112  C         29.3300   36.6110   26.1240 C.2   485  ASN485      0.2292
    113  O         29.7480   36.9260   25.0110 O.2   485  ASN485     -0.2864
    114  CB        27.1540   37.8130   26.3870 C.3   485  ASN485      0.1181
    115  CG        27.1640   38.7410   25.1880 C.2   485  ASN485      0.2629
    116  OD1       28.2160   39.2160   24.7620 O.2   485  ASN485     -0.2716
    117  ND2       25.9850   39.0000   24.6330 N.am  485  ASN485     -0.0877
    118  N         27.4960   35.0690   22.5720 N.3   488  ASN488     -0.1240
    119  CA        27.6510   35.7940   21.3150 C.3   488  ASN488      0.1653
    120  C         29.0810   35.6790   20.7920 C.2   488  ASN488      0.2266
    121  O         29.7580   36.6840   20.5760 O.2   488  ASN488     -0.2867
    122  CB        27.2690   37.2660   21.4920 C.3   488  ASN488      0.1155
    123  CG        26.9880   37.9650   20.1680 C.2   488  ASN488      0.2627
    124  OD1       27.3190   37.4560   19.0960 O.2   488  ASN488     -0.2716
    125  ND2       26.3800   39.1430   20.2410 N.am  488  ASN488     -0.0877
    126  N         36.6770   38.2460   31.7670 N.3   502  PHE502     -0.1241
    127  CA        37.4680   38.8280   32.8540 C.3   502  PHE502      0.1605
    128  C         37.0650   38.2580   34.2120 C.2   502  PHE502      0.2264
    129  O         36.5520   37.1410   34.3050 O.2   502  PHE502     -0.2867
    130  CB        37.3370   40.3550   32.8780 C.3   502  PHE502      0.0534
    131  CG        37.9020   41.0390   31.6650 C.ar  502  PHE502     -0.0203
    132  CD1       38.8200   40.4010   30.8460 C.ar  502  PHE502     -0.0042
    133  CD2       37.5170   42.3320   31.3500 C.ar  502  PHE502     -0.0042
    134  CE1       39.3370   41.0400   29.7320 C.ar  502  PHE502     -0.0003
    135  CE2       38.0290   42.9750   30.2410 C.ar  502  PHE502     -0.0003
    136  CZ        38.9400   42.3290   29.4300 C.ar  502  PHE502     -0.0000
    137  N         33.8760   43.1940   22.2100 N.3   527  PHE527     -0.1241
    138  CA        32.8660   44.2410   22.1100 C.3   527  PHE527      0.1605
    139  C         33.4220   45.5940   22.5420 C.2   527  PHE527      0.2264
    140  O         34.1860   45.6840   23.5030 O.2   527  PHE527     -0.2867
    141  CB        31.6420   43.8830   22.9540 C.3   527  PHE527      0.0534
    142  CG        30.9960   42.5840   22.5630 C.ar  527  PHE527     -0.0203
    143  CD1       30.0000   42.5510   21.6020 C.ar  527  PHE527     -0.0042
    144  CD2       31.3870   41.3950   23.1570 C.ar  527  PHE527     -0.0042
    145  CE1       29.4060   41.3550   21.2410 C.ar  527  PHE527     -0.0003
    146  CE2       30.7970   40.1980   22.8000 C.ar  527  PHE527     -0.0003
    147  CZ        29.8050   40.1770   21.8410 C.ar  527  PHE527     -0.0000
    148  N         32.4000   49.8140   23.2810 N.3   529  TYR529     -0.1241
    149  CA        31.3660   50.8140   23.5230 C.3   529  TYR529      0.1605
    150  C         31.6020   52.0460   22.6490 C.2   529  TYR529      0.2264
    151  O         32.6600   52.6730   22.7170 O.2   529  TYR529     -0.2867
    152  CB        31.3380   51.2010   25.0090 C.3   529  TYR529      0.0534
    153  CG        30.0370   51.8150   25.4960 C.ar  529  TYR529     -0.0201
    154  CD1       29.3530   52.7580   24.7360 C.ar  529  TYR529     -0.0009
    155  CD2       29.4950   51.4510   26.7220 C.ar  529  TYR529     -0.0009
    156  CE1       28.1700   53.3170   25.1820 C.ar  529  TYR529      0.0417
    157  CE2       28.3110   52.0050   27.1770 C.ar  529  TYR529      0.0417
    158  CZ        27.6530   52.9370   26.4030 C.ar  529  TYR529      0.1957
    159  OH        26.4750   53.4900   26.8520 O.3   529  TYR529     -0.2866
    160  N         26.6950   49.4220   21.7510 N.3   534  VAL534     -0.1245
    161  CA        27.7230   48.3910   21.7130 C.3   534  VAL534      0.1561
    162  C         27.7650   47.7780   20.3190 C.2   534  VAL534      0.2260
    163  O         26.7290   47.3940   19.7750 O.2   534  VAL534     -0.2867
    164  CB        27.4670   47.2860   22.7560 C.3   534  VAL534      0.0252
    165  CG1       28.5660   46.2380   22.7000 C.3   534  VAL534      0.0019
    166  CG2       27.3590   47.8840   24.1510 C.3   534  VAL534      0.0019
    167  N         29.2970   44.9010   17.5180 N.3   536  ALA536     -0.1245
    168  CA        29.8700   43.5720   17.3670 C.3   536  ALA536      0.1562
    169  C         31.2860   43.6710   16.8140 C.2   536  ALA536      0.2260
    170  O         31.6520   44.6640   16.1820 O.2   536  ALA536     -0.2867
    171  CB        28.9980   42.7120   16.4620 C.3   536  ALA536      0.0290
@<TRIPOS>BOND
     1    12    11    2
     2    11    10    1
     3    10    13    1
     4    10     9    1
     5    13    14    1
     6     1     2    1
     7     9     3   am
     8     3     2    1
     9     3     4    2
    10     2     5    1
    11    14    15    1
    12     7     6   ar
    13    16    15   ar
    14     6     5    1
    15     6     8   ar
    16    18    19    1
    17    15    17   ar
    18    19    20    1
    19    20    21    2
    20   170   169    2
    21   171   168    1
    22   169   168    1
    23    37    38   ar
    24    37    35   ar
    25   168   167    1
    26    38    36   ar
    27    35    34   ar
    28    46    44   ar
    29    43    44    1
    30    43    40    1
    31    36    34   ar
    32    34    33    1
    33    44    45   ar
    34   124   123    2
    35    33    30    1
    36    39    40    1
    37    40    41    1
    38   163   162    2
    39    30    31    1
    40    30    29    1
    41   123   125   am
    42   123   122    1
    43   162   161    1
    44    31    32    2
    45   121   120    2
    46   120   119    1
    47    41    42    2
    48    41    47   am
    49   145   143   ar
    50   145   147   ar
    51   119   122    1
    52   119   118    1
    53    27    26    1
    54    25    24    2
    55   143   142   ar
    56   161   160    1
    57   161   164    1
    58    47    48    1
    59   147   146   ar
    60   138   137    1
    61   138   139    1
    62   138   141    1
    63    24    23    1
    64   139   140    2
    65   142   141    1
    66   142   144   ar
    67   150   151    2
    68   150   149    1
    69   165   164    1
    70   164   166    1
    71    52    53    1
    72    52    51    1
    73    55    53   ar
    74   146   144   ar
    75    26    23    1
    76    26    28    1
    77    48    51    1
    78    48    49    1
    79    23    22    1
    80   148   149    1
    81    53    54   ar
    82   149   152    1
    83    49    50    2
    84   117   115   am
    85   154   156   ar
    86   154   153   ar
    87   116   115    2
    88   152   153    1
    89   113   112    2
    90   156   158   ar
    91   115   114    1
    92   153   155   ar
    93   112   111    1
    94   114   111    1
    95   158   159    1
    96   158   157   ar
    97   155   157   ar
    98   111   110    1
    99   110   105   am
   100   107   104    1
   101   107   108    1
   102   105   104    1
   103   105   106    2
   104   104   103    1
   105   108   109    1
   106    80    77    1
   107    74    73   ar
   108    72    73    1
   109    72    71    1
   110    73    75   ar
   111   136   134   ar
   112   136   135   ar
   113   103   109    1
   114   103    94   am
   115    76    77    1
   116    76    69   am
   117   134   132   ar
   118    95    94    2
   119    68    71    1
   120    68    69    1
   121    68    67    1
   122    77    78    1
   123   135   133   ar
   124    94    93    1
   125    69    70    2
   126   132   131   ar
   127    79    78    2
   128    78    81   am
   129   133   131   ar
   130   131   130    1
   131    98   100   ar
   132    98    97   ar
   133   100   102   ar
   134   126   127    1
   135    93    92    1
   136    93    96    1
   137    81    82    1
   138    92    83   am
   139    96    97    1
   140    97    99   ar
   141   102   101   ar
   142   127   130    1
   143   127   128    1
   144    83    84    2
   145    83    82    1
   146    82    85    1
   147    99   101   ar
   148   128   129    2
   149    85    86    1
   150    64    62   ar
   151    64    66   ar
   152    62    61   ar
   153    66    65   ar
   154    86    87   ar
   155    86    88   ar
   156    87    89   ar
   157    57    58    1
   158    57    60    1
   159    57    56    1
   160    59    58    2
   161    61    60    1
   162    61    63   ar
   163    65    63   ar
   164    88    90   ar
   165    89    91   ar
   166    90    91   ar
