@<TRIPOS>MOLECULE
tmp/4x8dA00.pdb
 187 182 0 0 0
SMALL
GASTEIGER

@<TRIPOS>ATOM
      1  N         31.1660   63.2660   56.1450 N.3    35  LEU35      -0.1245
      2  CA        30.6290   63.8200   54.9000 C.3    35  LEU35       0.1561
      3  C         30.2470   62.7550   53.8820 C.2    35  LEU35       0.2260
      4  O         29.4810   63.0250   52.9610 O.2    35  LEU35      -0.2867
      5  CB        31.6470   64.7530   54.2390 C.3    35  LEU35       0.0270
      6  CG        31.9220   66.0760   54.9540 C.3    35  LEU35       0.0019
      7  CD1       33.0840   66.8100   54.2710 C.3    35  LEU35       0.0001
      8  CD2       30.6760   66.9290   54.9720 C.3    35  LEU35       0.0001
      9  N         29.4080   58.5960   52.5050 N.3    37  SER37      -0.1217
     10  CA        28.8180   57.2920   52.7480 C.3    37  SER37       0.1889
     11  C         29.9340   56.2550   52.8440 C.2    37  SER37       0.2288
     12  O         31.0070   56.4390   52.2560 O.2    37  SER37      -0.2866
     13  CB        27.8640   56.8870   51.6170 C.3    37  SER37       0.2089
     14  OG        27.0500   57.9580   51.1840 O.3    37  SER37      -0.2183
     15  N         27.5400   51.5520   50.6230 N.3    41  TRP41      -0.1227
     16  CA        26.2690   52.2380   50.3960 C.3    41  TRP41       0.1737
     17  C         26.1720   52.6240   48.9220 C.2    41  TRP41       0.2595
     18  O         25.1830   52.3180   48.2500 O.2    41  TRP41      -0.2718
     19  CB        26.1270   53.4750   51.2890 C.3    41  TRP41       0.0564
     20  CG        24.7720   54.1400   51.1680 C.ar   41  TRP41       0.0003
     21  CD1       23.6730   53.9100   51.9510 C.ar   41  TRP41       0.0946
     22  CD2       24.3760   55.1210   50.2000 C.ar   41  TRP41       0.0152
     23  NE1       22.6230   54.6910   51.5310 N.ar   41  TRP41      -0.2442
     24  CE2       23.0230   55.4400   50.4580 C.ar   41  TRP41       0.0810
     25  CE3       25.0310   55.7620   49.1440 C.ar   41  TRP41       0.0012
     26  CZ2       22.3170   56.3590   49.6990 C.ar   41  TRP41       0.0191
     27  CZ3       24.3260   56.6880   48.3880 C.ar   41  TRP41       0.0001
     28  CH2       22.9850   56.9790   48.6700 C.ar   41  TRP41       0.0015
     29  N         27.2090   53.2810   48.4110 N.am   42  ASP42      -0.1974
     30  CA        27.2150   53.6880   47.0100 C.3    42  ASP42       0.1709
     31  C         27.0870   52.4930   46.0850 C.2    42  ASP42       0.2293
     32  O         26.4090   52.5760   45.0690 O.2    42  ASP42      -0.2864
     33  CB        28.4820   54.4790   46.6880 C.3    42  ASP42       0.1436
     34  CG        28.4920   55.8330   47.3700 C.2    42  ASP42       0.3671
     35  OD1       27.9670   56.8050   46.7860 O.co2  42  ASP42      -0.2456
     36  OD2       29.0170   55.9270   48.4950 O.co2  42  ASP42      -0.2456
     37  N         23.4620   51.3550   46.1920 N.3    45  HIS45      -0.1241
     38  CA        22.6860   52.4640   45.6480 C.3    45  HIS45       0.1621
     39  C         22.7820   52.5210   44.1120 C.2    45  HIS45       0.2264
     40  O         21.7880   52.7750   43.4270 O.2    45  HIS45      -0.2867
     41  CB        23.1710   53.7740   46.2590 C.3    45  HIS45       0.0745
     42  CG        22.5850   54.9880   45.6150 C.ar   45  HIS45       0.0817
     43  ND1       21.3440   55.4770   45.9420 N.ar   45  HIS45      -0.2268
     44  CD2       23.0880   55.8070   44.6550 C.ar   45  HIS45       0.1154
     45  CE1       21.1010   56.5630   45.2090 C.ar   45  HIS45       0.1986
     46  NE2       22.1300   56.7590   44.4220 N.ar   45  HIS45      -0.2212
     47  N         18.7650   58.8830   49.1820 N.3    76  ALA76      -0.1245
     48  CA        19.5580   59.9430   49.8000 C.3    76  ALA76       0.1562
     49  C         18.7210   61.0160   50.4780 C.2    76  ALA76       0.2260
     50  O         19.2050   61.6740   51.3920 O.2    76  ALA76      -0.2867
     51  CB        20.4700   60.5960   48.7620 C.3    76  ALA76       0.0290
     52  N         24.1230   61.8060   54.8390 N.3    81  ARG81      -0.1245
     53  CA        25.3860   61.1130   54.6170 C.3    81  ARG81       0.1563
     54  C         25.9560   60.4780   55.8890 C.2    81  ARG81       0.2260
     55  O         26.3280   59.2980   55.9040 O.2    81  ARG81      -0.2867
     56  CB        26.4190   62.0910   54.0410 C.3    81  ARG81       0.0307
     57  CG        26.2410   62.4360   52.5590 C.3    81  ARG81       0.0489
     58  CD        26.9250   61.3860   51.7080 C.3    81  ARG81       0.2205
     59  NE        26.8430   61.6620   50.2730 N.pl3  81  ARG81      -0.0865
     60  CZ        27.7350   62.3700   49.5810 C.cat  81  ARG81       0.5346
     61  NH1       28.7850   62.9170   50.1850 N.pl3  81  ARG81       0.1354
     62  NH2       27.5710   62.5340   48.2710 N.pl3  81  ARG81       0.1354
     63  N         24.6930   57.0810   57.5090 N.3    84  ARG84      -0.1245
     64  CA        24.5950   55.8710   56.7050 C.3    84  ARG84       0.1563
     65  C         25.4930   54.7510   57.2190 C.2    84  ARG84       0.2260
     66  O         25.2160   53.5800   56.9790 O.2    84  ARG84      -0.2867
     67  CB        24.9110   56.1960   55.2480 C.3    84  ARG84       0.0307
     68  CG        23.8660   57.1320   54.6370 C.3    84  ARG84       0.0489
     69  CD        24.1750   57.5210   53.2180 C.3    84  ARG84       0.2205
     70  NE        23.3600   58.6610   52.7940 N.pl3  84  ARG84      -0.0865
     71  CZ        23.5020   59.2830   51.6300 C.cat  84  ARG84       0.5346
     72  NH1       24.4270   58.8800   50.7720 N.pl3  84  ARG84       0.1354
     73  NH2       22.7250   60.3180   51.3320 N.pl3  84  ARG84       0.1354
     74  N         24.8570   58.4570   35.9990 N.3   128  HIS128     -0.1241
     75  CA        24.6830   58.2850   37.4350 C.3   128  HIS128      0.1621
     76  C         25.7950   57.4290   38.0590 C.2   128  HIS128      0.2264
     77  O         26.3490   57.7780   39.1100 O.2   128  HIS128     -0.2867
     78  CB        23.3190   57.6580   37.7390 C.3   128  HIS128      0.0745
     79  CG        23.0620   57.5030   39.1980 C.ar  128  HIS128      0.0817
     80  ND1       23.1700   56.2950   39.8620 N.ar  128  HIS128     -0.2268
     81  CD2       22.7630   58.4210   40.1480 C.ar  128  HIS128      0.1154
     82  CE1       22.9310   56.4760   41.1450 C.ar  128  HIS128      0.1986
     83  NE2       22.6750   57.7620   41.3440 N.ar  128  HIS128     -0.2212
     84  N         28.8060   58.5790   40.8390 N.3   132  HIS132     -0.1241
     85  CA        29.0720   57.9660   42.1290 C.3   132  HIS132      0.1621
     86  C         30.4870   57.4140   42.2060 C.2   132  HIS132      0.2264
     87  O         31.0680   57.3430   43.2970 O.2   132  HIS132     -0.2867
     88  CB        28.0540   56.8710   42.4440 C.3   132  HIS132      0.0745
     89  CG        26.8240   57.4090   43.0900 C.ar  132  HIS132      0.0817
     90  ND1       26.7120   57.5730   44.4560 N.ar  132  HIS132     -0.2268
     91  CD2       25.6680   57.8780   42.5560 C.ar  132  HIS132      0.1154
     92  CE1       25.5300   58.0950   44.7340 C.ar  132  HIS132      0.1986
     93  NE2       24.8920   58.3000   43.6010 N.ar  132  HIS132     -0.2212
     94  N         32.3230   60.3220   43.5190 N.3   135  THR135     -0.1218
     95  CA        32.0220   60.4090   44.9470 C.3   135  THR135      0.1862
     96  C         32.8620   59.4080   45.7730 C.2   135  THR135      0.2287
     97  O         33.4400   59.7640   46.8030 O.2   135  THR135     -0.2866
     98  CB        30.5280   60.1660   45.2010 C.3   135  THR135      0.1770
     99  OG1       29.7730   61.1650   44.5080 O.3   135  THR135     -0.2211
    100  CG2       30.2030   60.2290   46.6850 C.3   135  THR135      0.0375
    101  N         14.0040   60.8640   36.1000 N.3   371  TYR371     -0.1241
    102  CA        14.4820   61.0910   37.4590 C.3   371  TYR371      0.1605
    103  C         14.1940   62.5560   37.8210 C.2   371  TYR371      0.2264
    104  O         15.0600   63.4290   37.7310 O.2   371  TYR371     -0.2867
    105  CB        15.9740   60.7370   37.5260 C.3   371  TYR371      0.0534
    106  CG        16.6690   60.8230   38.8640 C.ar  371  TYR371     -0.0201
    107  CD1       16.0260   61.2870   40.0070 C.ar  371  TYR371     -0.0009
    108  CD2       17.9960   60.4390   38.9750 C.ar  371  TYR371     -0.0009
    109  CE1       16.6960   61.3640   41.2210 C.ar  371  TYR371      0.0417
    110  CE2       18.6700   60.5140   40.1790 C.ar  371  TYR371      0.0417
    111  CZ        18.0140   60.9730   41.2970 C.ar  371  TYR371      0.1957
    112  OH        18.6820   61.0520   42.4950 O.3   371  TYR371     -0.2866
    113  N         17.1570   71.2870   44.0190 N.3   378  PHE378     -0.1241
    114  CA        18.3740   72.0320   44.3410 C.3   378  PHE378      0.1605
    115  C         18.4340   73.3770   43.6270 C.2   378  PHE378      0.2264
    116  O         19.4120   74.1250   43.7530 O.2   378  PHE378     -0.2867
    117  CB        19.5840   71.1560   44.0100 C.3   378  PHE378      0.0534
    118  CG        19.4440   69.7680   44.5480 C.ar  378  PHE378     -0.0203
    119  CD1       19.4500   69.5460   45.9190 C.ar  378  PHE378     -0.0042
    120  CD2       19.2180   68.6930   43.7010 C.ar  378  PHE378     -0.0042
    121  CE1       19.2580   68.2680   46.4400 C.ar  378  PHE378     -0.0003
    122  CE2       19.0270   67.4100   44.2190 C.ar  378  PHE378     -0.0003
    123  CZ        19.0420   67.2030   45.5910 C.ar  378  PHE378     -0.0000
    124  N         23.4500   76.4550   46.9560 N.3   387  TYR387     -0.1241
    125  CA        24.3750   75.7450   46.0890 C.3   387  TYR387      0.1605
    126  C         25.0210   76.6970   45.0980 C.2   387  TYR387      0.2264
    127  O         24.4530   77.7310   44.7520 O.2   387  TYR387     -0.2867
    128  CB        23.6490   74.6270   45.3430 C.3   387  TYR387      0.0534
    129  CG        22.9810   73.6190   46.2440 C.ar  387  TYR387     -0.0201
    130  CD1       21.6760   73.8060   46.6790 C.ar  387  TYR387     -0.0009
    131  CD2       23.6570   72.4710   46.6570 C.ar  387  TYR387     -0.0009
    132  CE1       21.0480   72.8680   47.5130 C.ar  387  TYR387      0.0417
    133  CE2       23.0430   71.5340   47.4820 C.ar  387  TYR387      0.0417
    134  CZ        21.7410   71.7390   47.9050 C.ar  387  TYR387      0.1957
    135  OH        21.1460   70.8070   48.7260 O.3   387  TYR387     -0.2866
    136  N         26.9300   70.8450   40.9420 N.3   409  TRP409     -0.1227
    137  CA        26.6390   71.8630   41.9480 C.3   409  TRP409      0.1737
    138  C         26.9360   71.3030   43.3290 C.2   409  TRP409      0.2595
    139  O         26.9510   70.0800   43.5170 O.2   409  TRP409     -0.2718
    140  CB        25.1730   72.3240   41.8720 C.3   409  TRP409      0.0564
    141  CG        24.1840   71.2230   42.2050 C.ar  409  TRP409      0.0003
    142  CD1       23.6690   70.9210   43.4370 C.ar  409  TRP409      0.0946
    143  CD2       23.6010   70.2850   41.2870 C.ar  409  TRP409      0.0152
    144  NE1       22.8040   69.8500   43.3410 N.ar  409  TRP409     -0.2442
    145  CE2       22.7470   69.4430   42.0320 C.ar  409  TRP409      0.0810
    146  CE3       23.7220   70.0780   39.9120 C.ar  409  TRP409      0.0012
    147  CZ2       22.0240   68.4070   41.4440 C.ar  409  TRP409      0.0191
    148  CZ3       23.0030   69.0580   39.3300 C.ar  409  TRP409      0.0001
    149  CH2       22.1560   68.2340   40.0940 C.ar  409  TRP409      0.0015
    150  N         27.1840   72.1810   44.2970 N.am  410  ASP410     -0.1960
    151  CA        27.3920   71.7200   45.6640 C.3   410  ASP410      0.1840
    152  C         27.2560   72.8640   46.6390 C.2   410  ASP410      0.2622
    153  O         27.2250   74.0310   46.2480 O.2   410  ASP410     -0.2715
    154  CB        28.7680   71.0560   45.8080 C.3   410  ASP410      0.1450
    155  CG        28.7330   69.8210   46.7080 C.2   410  ASP410      0.3671
    156  OD1       28.0280   69.8530   47.7370 O.co2 410  ASP410     -0.2456
    157  OD2       29.4170   68.8240   46.3790 O.co2 410  ASP410     -0.2456
    158  N         27.1530   72.5350   47.9200 N.am  411  HIS411     -0.1973
    159  CA        27.1110   73.5770   48.9350 C.3   411  HIS411      0.1656
    160  C         28.4610   74.3060   48.9030 C.2   411  HIS411      0.2291
    161  O         29.5040   73.6680   48.6930 O.2   411  HIS411     -0.2864
    162  CB        26.8510   72.9940   50.3280 C.3   411  HIS411      0.0771
    163  CG        25.4710   72.4330   50.5250 C.ar  411  HIS411      0.0820
    164  ND1       24.3310   73.1710   50.3250 N.ar  411  HIS411     -0.2267
    165  CD2       25.0630   71.2180   50.9740 C.ar  411  HIS411      0.1154
    166  CE1       23.2650   72.4310   50.6190 C.ar  411  HIS411      0.1986
    167  NE2       23.6860   71.2460   51.0180 N.ar  411  HIS411     -0.2212
    168  N         31.7470   72.9200   50.7700 N.3   414  ARG414     -0.1245
    169  CA        32.3520   71.6320   50.4410 C.3   414  ARG414      0.1563
    170  C         33.6720   71.8300   49.7110 C.2   414  ARG414      0.2260
    171  O         33.7620   72.6570   48.7980 O.2   414  ARG414     -0.2867
    172  CB        31.4120   70.7840   49.5900 C.3   414  ARG414      0.0307
    173  CG        30.1160   70.4030   50.2830 C.3   414  ARG414      0.0489
    174  CD        30.3290   69.4020   51.3980 C.3   414  ARG414      0.2205
    175  NE        29.0480   68.9860   51.9510 N.pl3 414  ARG414     -0.0865
    176  CZ        28.5870   69.3010   53.1570 C.cat 414  ARG414      0.5346
    177  NH1       29.3110   70.0220   54.0080 N.pl3 414  ARG414      0.1354
    178  NH2       27.3860   68.8700   53.5150 N.pl3 414  ARG414      0.1354
    179  N         35.9830   68.6600   49.8070 N.3   416  GLN416     -0.1245
    180  CA        36.5510   67.3250   49.6240 C.3   416  GLN416      0.1566
    181  C         36.3650   66.9000   48.1590 C.2   416  GLN416      0.2260
    182  O         37.0230   65.9840   47.6680 O.2   416  GLN416     -0.2867
    183  CB        35.9210   66.3070   50.5870 C.3   416  GLN416      0.0367
    184  CG        34.6450   65.6000   50.0940 C.3   416  GLN416      0.0905
    185  CD        33.4220   66.4960   49.9380 C.2   416  GLN416      0.2608
    186  OE1       33.3900   67.6360   50.4040 O.2   416  GLN416     -0.2717
    187  NE2       32.3990   65.9650   49.2720 N.am  416  GLN416     -0.0878
@<TRIPOS>BOND
     1    74    75    1
     2   101   102    1
     3    75    78    1
     4    75    76    1
     5   102   105    1
     6   102   103    1
     7   105   106    1
     8   104   103    2
     9    78    79    1
    10    76    77    2
    11   106   108   ar
    12   106   107   ar
    13   108   110   ar
    14    79    80   ar
    15    79    81   ar
    16   148   146   ar
    17   148   149   ar
    18    80    82   ar
    19   146   143   ar
    20   107   109   ar
    21   149   147   ar
    22    81    83   ar
    23   110   111   ar
    24    84    85    1
    25   136   137    1
    26    82    83   ar
    27   109   111   ar
    28   143   145   ar
    29   143   141   ar
    30   111   112    1
    31   147   145   ar
    32   140   137    1
    33   140   141    1
    34   137   138    1
    35   145   144   ar
    36    85    86    1
    37    85    88    1
    38   141   142   ar
    39    86    87    2
    40    88    89    1
    41    91    89   ar
    42    91    93   ar
    43    89    90   ar
    44   138   139    2
    45   138   150   am
    46   144   142   ar
    47    40    39    2
    48    94    95    1
    49    93    92   ar
    50   115   116    2
    51   115   114    1
    52   120   122   ar
    53   120   118   ar
    54   117   114    1
    55   117   118    1
    56   113   114    1
    57    39    38    1
    58   122   123   ar
    59   150   151    1
    60    46    44   ar
    61    46    45   ar
    62    90    92   ar
    63    99    98    1
    64   118   119   ar
    65    44    42   ar
    66   127   126    2
    67    95    98    1
    68    95    96    1
    69    32    31    2
    70   126   125    1
    71    98   100    1
    72    45    43   ar
    73   128   125    1
    74   128   129    1
    75   123   121   ar
    76    42    43   ar
    77    42    41    1
    78    38    37    1
    79    38    41    1
    80   151   154    1
    81   151   152    1
    82    96    97    2
    83   154   155    1
    84   119   121   ar
    85    31    30    1
    86   125   124    1
    87   129   131   ar
    88   129   130   ar
    89   153   152    2
    90   157   155   ar
    91   152   158   am
    92   131   133   ar
    93   130   132   ar
    94    33    30    1
    95    33    34    1
    96   155   156   ar
    97    35    34   ar
    98    30    29    1
    99    34    36   ar
   100   133   134   ar
   101   132   134   ar
   102   182   181    2
   103   134   135    1
   104   158   159    1
   105   181   180    1
   106    18    17    2
   107    62    60    1
   108    27    28   ar
   109    27    25   ar
   110    29    17   am
   111    28    26   ar
   112   161   160    2
   113    51    48    1
   114   171   170    2
   115   160   159    1
   116    17    16    1
   117   159   162    1
   118    25    22   ar
   119    47    48    1
   120   187   185   am
   121    60    61    1
   122    60    59    2
   123   172   173    1
   124   172   169    1
   125   180   179    1
   126   180   183    1
   127    26    24   ar
   128   170   169    1
   129    48    49    1
   130   185   184    1
   131   185   186    2
   132   184   183    1
   133    22    24   ar
   134    22    20   ar
   135    59    58    1
   136   173   174    1
   137   164   163   ar
   138   164   166   ar
   139   162   163    1
   140    16    15    1
   141    16    19    1
   142   169   168    1
   143    24    23   ar
   144    49    50    2
   145   163   165   ar
   146   166   167   ar
   147    72    71    1
   148   165   167   ar
   149    20    19    1
   150    20    21   ar
   151    14    13    1
   152    73    71    1
   153   174   175    1
   154    23    21   ar
   155    13    10    1
   156    71    70    2
   157    58    57    1
   158   175   176    2
   159    12    11    2
   160     9    10    1
   161    57    56    1
   162    10    11    1
   163    70    69    1
   164     4     3    2
   165   176   178    1
   166   176   177    1
   167    69    68    1
   168     3     2    1
   169    56    53    1
   170     5     2    1
   171     5     6    1
   172     7     6    1
   173    53    52    1
   174    53    54    1
   175    68    67    1
   176     2     1    1
   177     6     8    1
   178    67    64    1
   179    54    55    2
   180    64    65    1
   181    64    63    1
   182    66    65    2
