@<TRIPOS>MOLECULE
tmp/4x8dA01.pdb
 144 144 0 0 0
SMALL
GASTEIGER

@<TRIPOS>ATOM
      1  N         23.4620   51.3550   46.1920 N.3    45  HIS45      -0.1241
      2  CA        22.6860   52.4640   45.6480 C.3    45  HIS45       0.1621
      3  C         22.7820   52.5210   44.1120 C.2    45  HIS45       0.2264
      4  O         21.7880   52.7750   43.4270 O.2    45  HIS45      -0.2867
      5  CB        23.1710   53.7740   46.2590 C.3    45  HIS45       0.0745
      6  CG        22.5850   54.9880   45.6150 C.ar   45  HIS45       0.0817
      7  ND1       21.3440   55.4770   45.9420 N.ar   45  HIS45      -0.2268
      8  CD2       23.0880   55.8070   44.6550 C.ar   45  HIS45       0.1154
      9  CE1       21.1010   56.5630   45.2090 C.ar   45  HIS45       0.1986
     10  NE2       22.1300   56.7590   44.4220 N.ar   45  HIS45      -0.2212
     11  N         24.1230   61.8060   54.8390 N.3    81  ARG81      -0.1245
     12  CA        25.3860   61.1130   54.6170 C.3    81  ARG81       0.1563
     13  C         25.9560   60.4780   55.8890 C.2    81  ARG81       0.2260
     14  O         26.3280   59.2980   55.9040 O.2    81  ARG81      -0.2867
     15  CB        26.4190   62.0910   54.0410 C.3    81  ARG81       0.0307
     16  CG        26.2410   62.4360   52.5590 C.3    81  ARG81       0.0489
     17  CD        26.9250   61.3860   51.7080 C.3    81  ARG81       0.2205
     18  NE        26.8430   61.6620   50.2730 N.pl3  81  ARG81      -0.0865
     19  CZ        27.7350   62.3700   49.5810 C.cat  81  ARG81       0.5346
     20  NH1       28.7850   62.9170   50.1850 N.pl3  81  ARG81       0.1354
     21  NH2       27.5710   62.5340   48.2710 N.pl3  81  ARG81       0.1354
     22  N         24.8570   58.4570   35.9990 N.3   128  HIS128     -0.1241
     23  CA        24.6830   58.2850   37.4350 C.3   128  HIS128      0.1621
     24  C         25.7950   57.4290   38.0590 C.2   128  HIS128      0.2264
     25  O         26.3490   57.7780   39.1100 O.2   128  HIS128     -0.2867
     26  CB        23.3190   57.6580   37.7390 C.3   128  HIS128      0.0745
     27  CG        23.0620   57.5030   39.1980 C.ar  128  HIS128      0.0817
     28  ND1       23.1700   56.2950   39.8620 N.ar  128  HIS128     -0.2268
     29  CD2       22.7630   58.4210   40.1480 C.ar  128  HIS128      0.1154
     30  CE1       22.9310   56.4760   41.1450 C.ar  128  HIS128      0.1986
     31  NE2       22.6750   57.7620   41.3440 N.ar  128  HIS128     -0.2212
     32  N         29.2020   59.2430   38.1400 N.3   131  GLN131     -0.1231
     33  CA        29.2160   60.2990   39.1390 C.3   131  GLN131      0.1698
     34  C         29.4060   59.7290   40.5410 C.2   131  GLN131      0.2592
     35  O         30.1270   60.3100   41.3470 O.2   131  GLN131     -0.2718
     36  CB        27.9400   61.1300   39.0610 C.3   131  GLN131      0.0381
     37  CG        27.8790   61.9970   37.7840 C.3   131  GLN131      0.0905
     38  CD        26.7220   62.9740   37.7920 C.2   131  GLN131      0.2608
     39  OE1       26.6860   63.8770   38.6190 O.2   131  GLN131     -0.2717
     40  NE2       25.7760   62.8040   36.8670 N.am  131  GLN131     -0.0878
     41  N         28.8060   58.5790   40.8390 N.am  132  HIS132     -0.1976
     42  CA        29.0720   57.9660   42.1290 C.3   132  HIS132      0.1656
     43  C         30.4870   57.4140   42.2060 C.2   132  HIS132      0.2291
     44  O         31.0680   57.3430   43.2970 O.2   132  HIS132     -0.2864
     45  CB        28.0540   56.8710   42.4440 C.3   132  HIS132      0.0771
     46  CG        26.8240   57.4090   43.0900 C.ar  132  HIS132      0.0820
     47  ND1       26.7120   57.5730   44.4560 N.ar  132  HIS132     -0.2267
     48  CD2       25.6680   57.8780   42.5560 C.ar  132  HIS132      0.1154
     49  CE1       25.5300   58.0950   44.7340 C.ar  132  HIS132      0.1986
     50  NE2       24.8920   58.3000   43.6010 N.ar  132  HIS132     -0.2212
     51  N         32.3230   60.3220   43.5190 N.3   135  THR135     -0.1218
     52  CA        32.0220   60.4090   44.9470 C.3   135  THR135      0.1862
     53  C         32.8620   59.4080   45.7730 C.2   135  THR135      0.2287
     54  O         33.4400   59.7640   46.8030 O.2   135  THR135     -0.2866
     55  CB        30.5280   60.1660   45.2010 C.3   135  THR135      0.1770
     56  OG1       29.7730   61.1650   44.5080 O.3   135  THR135     -0.2211
     57  CG2       30.2030   60.2290   46.6850 C.3   135  THR135      0.0375
     58  N         14.0040   60.8640   36.1000 N.3   371  TYR371     -0.1241
     59  CA        14.4820   61.0910   37.4590 C.3   371  TYR371      0.1605
     60  C         14.1940   62.5560   37.8210 C.2   371  TYR371      0.2264
     61  O         15.0600   63.4290   37.7310 O.2   371  TYR371     -0.2867
     62  CB        15.9740   60.7370   37.5260 C.3   371  TYR371      0.0534
     63  CG        16.6690   60.8230   38.8640 C.ar  371  TYR371     -0.0201
     64  CD1       16.0260   61.2870   40.0070 C.ar  371  TYR371     -0.0009
     65  CD2       17.9960   60.4390   38.9750 C.ar  371  TYR371     -0.0009
     66  CE1       16.6960   61.3640   41.2210 C.ar  371  TYR371      0.0417
     67  CE2       18.6700   60.5140   40.1790 C.ar  371  TYR371      0.0417
     68  CZ        18.0140   60.9730   41.2970 C.ar  371  TYR371      0.1957
     69  OH        18.6820   61.0520   42.4950 O.3   371  TYR371     -0.2866
     70  N         16.2890   64.7930   40.2670 N.3   374  TYR374     -0.1241
     71  CA        17.7410   64.9100   40.0500 C.3   374  TYR374      0.1605
     72  C         18.2150   66.3650   40.1700 C.2   374  TYR374      0.2264
     73  O         19.2310   66.6360   40.8150 O.2   374  TYR374     -0.2867
     74  CB        18.1450   64.3490   38.6790 C.3   374  TYR374      0.0534
     75  CG        19.6310   64.5170   38.3490 C.ar  374  TYR374     -0.0201
     76  CD1       20.5830   63.5980   38.8000 C.ar  374  TYR374     -0.0009
     77  CD2       20.0830   65.5920   37.5920 C.ar  374  TYR374     -0.0009
     78  CE1       21.9400   63.7490   38.4990 C.ar  374  TYR374      0.0417
     79  CE2       21.4560   65.7530   37.2990 C.ar  374  TYR374      0.0417
     80  CZ        22.3690   64.8290   37.7580 C.ar  374  TYR374      0.1957
     81  OH        23.7220   64.9710   37.4740 O.3   374  TYR374     -0.2866
     82  N         17.1570   71.2870   44.0190 N.3   378  PHE378     -0.1241
     83  CA        18.3740   72.0320   44.3410 C.3   378  PHE378      0.1605
     84  C         18.4340   73.3770   43.6270 C.2   378  PHE378      0.2264
     85  O         19.4120   74.1250   43.7530 O.2   378  PHE378     -0.2867
     86  CB        19.5840   71.1560   44.0100 C.3   378  PHE378      0.0534
     87  CG        19.4440   69.7680   44.5480 C.ar  378  PHE378     -0.0203
     88  CD1       19.4500   69.5460   45.9190 C.ar  378  PHE378     -0.0042
     89  CD2       19.2180   68.6930   43.7010 C.ar  378  PHE378     -0.0042
     90  CE1       19.2580   68.2680   46.4400 C.ar  378  PHE378     -0.0003
     91  CE2       19.0270   67.4100   44.2190 C.ar  378  PHE378     -0.0003
     92  CZ        19.0420   67.2030   45.5910 C.ar  378  PHE378     -0.0000
     93  N         27.4020   70.4090   30.7450 N.3   406  PHE406     -0.1227
     94  CA        27.1690   69.6690   31.9890 C.3   406  PHE406      0.1736
     95  C         27.2730   70.5880   33.2180 C.2   406  PHE406      0.2595
     96  O         28.1560   71.4410   33.2940 O.2   406  PHE406     -0.2718
     97  CB        28.1450   68.4990   32.1550 C.3   406  PHE406      0.0547
     98  CG        27.8080   67.6080   33.3280 C.ar  406  PHE406     -0.0202
     99  CD1       28.2030   67.9440   34.6130 C.ar  406  PHE406     -0.0042
    100  CD2       27.0730   66.4550   33.1480 C.ar  406  PHE406     -0.0042
    101  CE1       27.8710   67.1440   35.7010 C.ar  406  PHE406     -0.0003
    102  CE2       26.7310   65.6460   34.2320 C.ar  406  PHE406     -0.0003
    103  CZ        27.1270   65.9870   35.5060 C.ar  406  PHE406     -0.0000
    104  N         26.3610   70.3960   34.1670 N.am  407  ARG407     -0.1966
    105  CA        26.2880   71.2210   35.3710 C.3   407  ARG407      0.1729
    106  C         26.3960   70.4010   36.6610 C.2   407  ARG407      0.2616
    107  O         25.5150   69.6010   36.9800 O.2   407  ARG407     -0.2715
    108  CB        24.9810   72.0160   35.3850 C.3   407  ARG407      0.0348
    109  CG        24.7920   72.8950   34.1550 C.3   407  ARG407      0.0492
    110  CD        23.3660   73.4630   34.0660 C.3   407  ARG407      0.2205
    111  NE        23.1690   74.6380   34.9100 N.pl3 407  ARG407     -0.0865
    112  CZ        21.9840   75.1880   35.1800 C.cat 407  ARG407      0.5346
    113  NH1       20.8600   74.6770   34.6870 N.pl3 407  ARG407      0.1354
    114  NH2       21.9210   76.2640   35.9480 N.pl3 407  ARG407      0.1354
    115  N         27.4760   70.6300   37.4010 N.am  408  ASN408     -0.1958
    116  CA        27.6560   70.0820   38.7410 C.3   408  ASN408      0.1819
    117  C         27.2340   71.1840   39.6970 C.2   408  ASN408      0.2621
    118  O         27.1530   72.3430   39.2930 O.2   408  ASN408     -0.2715
    119  CB        29.1240   69.6560   38.9230 C.3   408  ASN408      0.1195
    120  CG        29.4090   68.9400   40.2290 C.2   408  ASN408      0.2630
    121  OD1       28.5090   68.5490   40.9920 O.2   408  ASN408     -0.2716
    122  ND2       30.7100   68.7380   40.4840 N.am  408  ASN408     -0.0877
    123  N         26.9300   70.8450   40.9420 N.am  409  TRP409     -0.1960
    124  CA        26.6390   71.8630   41.9480 C.3   409  TRP409      0.1771
    125  C         26.9360   71.3030   43.3290 C.2   409  TRP409      0.2619
    126  O         26.9510   70.0800   43.5170 O.2   409  TRP409     -0.2715
    127  CB        25.1730   72.3240   41.8720 C.3   409  TRP409      0.0590
    128  CG        24.1840   71.2230   42.2050 C.ar  409  TRP409      0.0006
    129  CD1       23.6690   70.9210   43.4370 C.ar  409  TRP409      0.0946
    130  CD2       23.6010   70.2850   41.2870 C.ar  409  TRP409      0.0152
    131  NE1       22.8040   69.8500   43.3410 N.ar  409  TRP409     -0.2442
    132  CE2       22.7470   69.4430   42.0320 C.ar  409  TRP409      0.0810
    133  CE3       23.7220   70.0780   39.9120 C.ar  409  TRP409      0.0012
    134  CZ2       22.0240   68.4070   41.4440 C.ar  409  TRP409      0.0191
    135  CZ3       23.0030   69.0580   39.3300 C.ar  409  TRP409      0.0001
    136  CH2       22.1560   68.2340   40.0940 C.ar  409  TRP409      0.0015
    137  N         27.1840   72.1810   44.2970 N.am  410  ASP410     -0.1971
    138  CA        27.3920   71.7200   45.6640 C.3   410  ASP410      0.1709
    139  C         27.2560   72.8640   46.6390 C.2   410  ASP410      0.2293
    140  O         27.2250   74.0310   46.2480 O.2   410  ASP410     -0.2864
    141  CB        28.7680   71.0560   45.8080 C.3   410  ASP410      0.1436
    142  CG        28.7330   69.8210   46.7080 C.2   410  ASP410      0.3671
    143  OD1       28.0280   69.8530   47.7370 O.co2 410  ASP410     -0.2456
    144  OD2       29.4170   68.8240   46.3790 O.co2 410  ASP410     -0.2456
@<TRIPOS>BOND
     1    93    94    1
     2    94    97    1
     3    94    95    1
     4    97    98    1
     5   100    98   ar
     6   100   102   ar
     7    95    96    2
     8    95   104   am
     9    98    99   ar
    10   110   109    1
    11   110   111    1
    12   109   108    1
    13   104   105    1
    14   102   103   ar
    15    99   101   ar
    16   113   112    1
    17   111   112    2
    18   112   114    1
    19   105   108    1
    20   105   106    1
    21   103   101   ar
    22    22    23    1
    23    58    59    1
    24   106   107    2
    25   106   115   am
    26    40    38   am
    27    79    77   ar
    28    79    80   ar
    29   115   116    1
    30    23    26    1
    31    23    24    1
    32    59    62    1
    33    59    60    1
    34    81    80    1
    35    62    63    1
    36    77    75   ar
    37    61    60    2
    38    26    27    1
    39    80    78   ar
    40    37    38    1
    41    37    36    1
    42    38    39    2
    43    24    25    2
    44    32    33    1
    45    75    74    1
    46    75    76   ar
    47    78    76   ar
    48    74    71    1
    49   116   119    1
    50   116   117    1
    51    63    65   ar
    52    63    64   ar
    53   119   120    1
    54    65    67   ar
    55    36    33    1
    56    33    34    1
    57    27    28   ar
    58    27    29   ar
    59   118   117    2
    60   135   133   ar
    61   135   136   ar
    62   117   123   am
    63    28    30   ar
    64   133   130   ar
    65    64    66   ar
    66    71    72    1
    67    71    70    1
    68   136   134   ar
    69    29    31   ar
    70    72    73    2
    71    67    68   ar
    72   120   122   am
    73   120   121    2
    74    34    41   am
    75    34    35    2
    76    41    42    1
    77   123   124    1
    78    30    31   ar
    79    66    68   ar
    80   130   132   ar
    81   130   128   ar
    82    68    69    1
    83   134   132   ar
    84   127   124    1
    85   127   128    1
    86   124   125    1
    87   132   131   ar
    88    42    43    1
    89    42    45    1
    90   128   129   ar
    91    43    44    2
    92    45    46    1
    93    48    46   ar
    94    48    50   ar
    95    46    47   ar
    96   125   126    2
    97   125   137   am
    98   131   129   ar
    99     4     3    2
   100    51    52    1
   101    50    49   ar
   102    84    85    2
   103    84    83    1
   104    89    91   ar
   105    89    87   ar
   106    86    83    1
   107    86    87    1
   108    82    83    1
   109     3     2    1
   110    91    92   ar
   111   137   138    1
   112    10     8   ar
   113    10     9   ar
   114    47    49   ar
   115    56    55    1
   116    87    88   ar
   117     8     6   ar
   118    52    55    1
   119    52    53    1
   120    55    57    1
   121     9     7   ar
   122    92    90   ar
   123     6     7   ar
   124     6     5    1
   125     2     1    1
   126     2     5    1
   127   138   141    1
   128   138   139    1
   129    53    54    2
   130   141   142    1
   131    88    90   ar
   132   140   139    2
   133   144   142   ar
   134   142   143   ar
   135    21    19    1
   136    19    20    1
   137    19    18    2
   138    18    17    1
   139    17    16    1
   140    16    15    1
   141    15    12    1
   142    12    11    1
   143    12    13    1
   144    13    14    2
