@<TRIPOS>MOLECULE
tmp/4x8gA00.pdb
 205 200 0 0 0
SMALL
GASTEIGER

@<TRIPOS>ATOM
      1  N         26.8580   45.0220   13.2240 N.3   310  ASP310     -0.1239
      2  CA        25.6650   44.5230   13.8980 C.3   310  ASP310      0.1674
      3  C         24.4000   45.0950   13.2660 C.2   310  ASP310      0.2266
      4  O         23.2880   44.6900   13.6050 O.2   310  ASP310     -0.2867
      5  CB        25.7080   44.8630   15.3890 C.3   310  ASP310      0.1410
      6  CG        26.4660   43.9060   16.2410 C.2   310  ASP310      0.3668
      7  OD1       26.9200   42.8830   15.7750 O.co2 310  ASP310     -0.2456
      8  OD2       26.5420   44.2290   17.4950 O.co2 310  ASP310     -0.2456
      9  N         20.8730   42.3810   15.1940 N.3   353  GLY353     -0.1225
     10  CA        21.4210   41.6250   16.3040 C.3   353  GLY353      0.1811
     11  C         20.2780   40.8160   16.8850 C.2   353  GLY353      0.2280
     12  O         20.4770   39.7880   17.5330 O.2   353  GLY353     -0.2866
     13  N         18.6560   46.0580   25.5400 N.3   414  VAL414     -0.1245
     14  CA        18.8380   46.1840   24.1030 C.3   414  VAL414      0.1561
     15  C         17.6820   45.4940   23.3830 C.2   414  VAL414      0.2260
     16  O         17.0180   46.0940   22.5380 O.2   414  VAL414     -0.2867
     17  CB        20.1790   45.5830   23.6490 C.3   414  VAL414      0.0252
     18  CG1       20.5180   46.0500   22.2440 C.3   414  VAL414      0.0019
     19  CG2       21.2830   45.9730   24.6190 C.3   414  VAL414      0.0019
     20  N         17.9540   42.4260   21.7820 N.3   416  HIS416     -0.1241
     21  CA        18.4240   41.5430   20.7180 C.3   416  HIS416      0.1621
     22  C         18.4580   40.0900   21.1870 C.2   416  HIS416      0.2264
     23  O         18.6130   39.8200   22.3760 O.2   416  HIS416     -0.2867
     24  CB        19.8060   41.9830   20.2300 C.3   416  HIS416      0.0745
     25  CG        19.8110   43.3210   19.5550 C.ar  416  HIS416      0.0817
     26  ND1       20.8790   43.7750   18.8150 N.ar  416  HIS416     -0.2268
     27  CD2       18.8760   44.3000   19.5100 C.ar  416  HIS416      0.1154
     28  CE1       20.6030   44.9790   18.3400 C.ar  416  HIS416      0.1986
     29  NE2       19.3950   45.3190   18.7480 N.ar  416  HIS416     -0.2212
     30  N         20.6280   37.7200   20.1130 N.3   418  ASP418     -0.1225
     31  CA        21.9710   37.1510   20.0950 C.3   418  ASP418      0.1805
     32  C         22.6650   37.2910   21.4440 C.2   418  ASP418      0.2597
     33  O         23.6850   36.6510   21.6940 O.2   418  ASP418     -0.2718
     34  CB        22.8170   37.8130   19.0050 C.3   418  ASP418      0.1424
     35  CG        23.1240   39.2690   19.3070 C.2   418  ASP418      0.3668
     36  OD1       22.3320   39.9100   20.0300 O.co2 418  ASP418     -0.2456
     37  OD2       24.1570   39.7750   18.8190 O.co2 418  ASP418     -0.2456
     38  N         22.1090   38.1300   22.3120 N.am  419  GLU419     -0.1979
     39  CA        22.7290   38.3930   23.6050 C.3   419  GLU419      0.1602
     40  C         22.2210   37.4550   24.6980 C.2   419  GLU419      0.2287
     41  O         22.5060   37.6640   25.8760 O.2   419  GLU419     -0.2864
     42  CB        22.5010   39.8480   24.0220 C.3   419  GLU419      0.0415
     43  CG        21.0540   40.1920   24.3080 C.3   419  GLU419      0.1163
     44  CD        20.8570   41.6530   24.6640 C.2   419  GLU419      0.3649
     45  OE1       21.5500   42.1440   25.5810 O.co2 419  GLU419     -0.2457
     46  OE2       20.0100   42.3100   24.0240 O.co2 419  GLU419     -0.2457
     47  N         36.5290   41.7840   38.5730 N.3   460  PHE460     -0.1241
     48  CA        36.8850   43.0640   37.9630 C.3   460  PHE460      0.1605
     49  C         38.3510   43.4030   38.2020 C.2   460  PHE460      0.2264
     50  O         38.7270   44.5740   38.2660 O.2   460  PHE460     -0.2867
     51  CB        35.9980   44.1900   38.5030 C.3   460  PHE460      0.0534
     52  CG        34.5800   44.1450   38.0110 C.ar  460  PHE460     -0.0203
     53  CD1       33.9900   45.2740   37.4770 C.ar  460  PHE460     -0.0042
     54  CD2       33.8370   42.9790   38.0860 C.ar  460  PHE460     -0.0042
     55  CE1       32.6870   45.2420   37.0260 C.ar  460  PHE460     -0.0003
     56  CE2       32.5400   42.9380   37.6350 C.ar  460  PHE460     -0.0003
     57  CZ        31.9620   44.0720   37.1040 C.ar  460  PHE460     -0.0000
     58  N         41.5390   45.6660   35.8230 N.3   463  ILE463     -0.1245
     59  CA        40.7640   46.5630   34.9760 C.3   463  ILE463      0.1561
     60  C         41.0900   48.0150   35.3150 C.2   463  ILE463      0.2260
     61  O         41.2810   48.3600   36.4810 O.2   463  ILE463     -0.2867
     62  CB        39.2520   46.3050   35.1340 C.3   463  ILE463      0.0252
     63  CG1       38.9520   44.8140   34.9720 C.3   463  ILE463      0.0019
     64  CG2       38.4520   47.1020   34.1220 C.3   463  ILE463      0.0019
     65  CD1       39.3650   44.2530   33.6330 C.3   463  ILE463      0.0001
     66  N         37.1910   50.0770   37.2440 N.3   466  LYS466     -0.1245
     67  CA        36.1920   49.1270   37.7120 C.3   466  LYS466      0.1565
     68  C         36.2740   48.9420   39.2220 C.2   466  LYS466      0.2260
     69  O         37.3010   49.2230   39.8390 O.2   466  LYS466     -0.2867
     70  CB        36.3660   47.7820   37.0080 C.3   466  LYS466      0.0317
     71  CG        35.5440   47.6370   35.7410 C.3   466  LYS466      0.0294
     72  CD        34.1600   48.3000   35.9030 C.2   466  LYS466     -0.0067
     73  CE        33.3780   48.6790   34.6060 C.2   466  LYS466      0.1012
     74  NZ        32.0050   49.2800   34.8130 N.pl3 466  LYS466     -0.1270
     75  N         22.2730   42.7270   35.4030 N.3   517  LYS517     -0.1245
     76  CA        21.8510   43.7560   36.3450 C.3   517  LYS517      0.1561
     77  C         20.6730   44.5340   35.7690 C.2   517  LYS517      0.2260
     78  O         20.6950   44.9340   34.6050 O.2   517  LYS517     -0.2867
     79  CB        23.0070   44.7030   36.6740 C.3   517  LYS517      0.0271
     80  CG        23.5280   45.5260   35.5040 C.3   517  LYS517      0.0035
     81  CD        24.6010   46.4430   36.0400 C.3   517  LYS517      0.0206
     82  CE        25.5640   46.9220   34.9480 C.3   517  LYS517      0.1093
     83  NZ        24.8970   47.7110   33.9350 N.3   517  LYS517     -0.1314
     84  N         20.7270   44.5180   31.4740 N.3   525  GLU525     -0.1231
     85  CA        22.0500   44.5500   30.8610 C.3   525  GLU525      0.1699
     86  C         22.9320   43.4850   31.4980 C.2   525  GLU525      0.2592
     87  O         22.7090   43.0940   32.6420 O.2   525  GLU525     -0.2718
     88  CB        22.7000   45.9260   31.0160 C.3   525  GLU525      0.0402
     89  CG        22.1620   46.9980   30.0890 C.3   525  GLU525      0.1161
     90  CD        22.9380   48.2980   30.2030 C.2   525  GLU525      0.3649
     91  OE1       23.7850   48.4090   31.1150 O.co2 525  GLU525     -0.2457
     92  OE2       22.7050   49.2070   29.3780 O.co2 525  GLU525     -0.2457
     93  N         23.9360   43.0210   30.7600 N.am  526  ALA526     -0.1966
     94  CA        24.8760   42.0360   31.2860 C.3   526  ALA526      0.1728
     95  C         25.7330   42.6400   32.3970 C.2   526  ALA526      0.2616
     96  O         26.2660   43.7400   32.2500 O.2   526  ALA526     -0.2715
     97  CB        25.7560   41.4960   30.1710 C.3   526  ALA526      0.0334
     98  N         25.8640   41.9200   33.5070 N.am  527  PHE527     -0.1960
     99  CA        26.6490   42.4060   34.6360 C.3   527  PHE527      0.1771
    100  C         28.1400   42.3540   34.3130 C.2   527  PHE527      0.2620
    101  O         28.8920   43.2550   34.6730 O.2   527  PHE527     -0.2715
    102  CB        26.3490   41.5960   35.8970 C.3   527  PHE527      0.0574
    103  CG        26.8090   42.2560   37.1670 C.ar  527  PHE527     -0.0200
    104  CD1       26.9430   43.6330   37.2380 C.ar  527  PHE527     -0.0042
    105  CD2       27.1170   41.5000   38.2860 C.ar  527  PHE527     -0.0042
    106  CE1       27.3670   44.2450   38.4040 C.ar  527  PHE527     -0.0003
    107  CE2       27.5440   42.1060   39.4560 C.ar  527  PHE527     -0.0003
    108  CZ        27.6690   43.4800   39.5140 C.ar  527  PHE527     -0.0000
    109  N         28.5610   41.2830   33.6470 N.am  528  PHE528     -0.1960
    110  CA        29.9000   41.2100   33.0730 C.3   528  PHE528      0.1756
    111  C         29.7420   40.8540   31.5940 C.2   528  PHE528      0.2461
    112  O         28.6990   40.3210   31.2140 O.2   528  PHE528     -0.2730
    113  CB        30.7830   40.1990   33.8310 C.3   528  PHE528      0.0574
    114  CG        30.3210   38.7670   33.7380 C.ar  528  PHE528     -0.0200
    115  CD1       30.6080   37.9920   32.6220 C.ar  528  PHE528     -0.0042
    116  CD2       29.6400   38.1820   34.7900 C.ar  528  PHE528     -0.0042
    117  CE1       30.1920   36.6740   32.5480 C.ar  528  PHE528     -0.0003
    118  CE2       29.2260   36.8660   34.7230 C.ar  528  PHE528     -0.0003
    119  CZ        29.5010   36.1110   33.6020 C.ar  528  PHE528     -0.0000
    120  N         30.7570   41.1630   30.7570 N.am  529  PRO529     -0.2716
    121  CA        30.6820   40.9470   29.3030 C.3   529  PRO529      0.1536
    122  C         30.0440   39.6190   28.8960 C.2   529  PRO529      0.2598
    123  O         30.4810   38.5550   29.3340 O.2   529  PRO529     -0.2715
    124  CB        32.1560   40.9970   28.8620 C.3   529  PRO529      0.0310
    125  CG        32.9710   41.0790   30.1370 C.3   529  PRO529      0.0237
    126  CD        32.0680   41.7130   31.1340 C.3   529  PRO529      0.0939
    127  N         29.0090   39.7040   28.0650 N.am  530  ASN530     -0.1973
    128  CA        28.2260   38.5420   27.6620 C.3   530  ASN530      0.1688
    129  C         29.0550   37.5050   26.9080 C.2   530  ASN530      0.2292
    130  O         29.5870   37.7830   25.8330 O.2   530  ASN530     -0.2864
    131  CB        27.0420   38.9910   26.8050 C.3   530  ASN530      0.1181
    132  CG        25.9220   37.9760   26.7810 C.2   530  ASN530      0.2629
    133  OD1       25.6730   37.2820   27.7660 O.2   530  ASN530     -0.2716
    134  ND2       25.2370   37.8860   25.6500 N.am  530  ASN530     -0.0877
    135  N         27.2280   35.3050   23.6590 N.3   533  ASN533     -0.1240
    136  CA        27.4430   35.9710   22.3820 C.3   533  ASN533      0.1653
    137  C         28.9310   35.9810   22.0610 C.2   533  ASN533      0.2266
    138  O         29.7460   36.3850   22.8890 O.2   533  ASN533     -0.2867
    139  CB        26.8900   37.3990   22.4150 C.3   533  ASN533      0.1155
    140  CG        26.8710   38.0550   21.0430 C.2   533  ASN533      0.2627
    141  OD1       27.4780   37.5620   20.0910 O.2   533  ASN533     -0.2716
    142  ND2       26.1740   39.1800   20.9400 N.am  533  ASN533     -0.0877
    143  N         36.6680   38.2350   32.5570 N.3   547  PHE547     -0.1241
    144  CA        37.3810   38.9170   33.6380 C.3   547  PHE547      0.1605
    145  C         36.8100   38.5400   35.0010 C.2   547  PHE547      0.2264
    146  O         36.7800   39.3590   35.9200 O.2   547  PHE547     -0.2867
    147  CB        37.3360   40.4360   33.4500 C.3   547  PHE547      0.0534
    148  CG        38.0850   40.9180   32.2440 C.ar  547  PHE547     -0.0203
    149  CD1       39.2450   40.2830   31.8340 C.ar  547  PHE547     -0.0042
    150  CD2       37.6260   42.0020   31.5150 C.ar  547  PHE547     -0.0042
    151  CE1       39.9370   40.7240   30.7240 C.ar  547  PHE547     -0.0003
    152  CE2       38.3130   42.4480   30.4030 C.ar  547  PHE547     -0.0003
    153  CZ        39.4700   41.8070   30.0070 C.ar  547  PHE547     -0.0000
    154  N         33.7580   43.9440   23.2300 N.3   579  PHE579     -0.1227
    155  CA        32.7660   45.0120   23.1440 C.3   579  PHE579      0.1736
    156  C         33.3380   46.3620   23.5660 C.2   579  PHE579      0.2596
    157  O         34.1930   46.4430   24.4500 O.2   579  PHE579     -0.2718
    158  CB        31.5420   44.6740   23.9970 C.3   579  PHE579      0.0547
    159  CG        30.8840   43.3800   23.6200 C.ar  579  PHE579     -0.0202
    160  CD1       30.1580   43.2800   22.4480 C.ar  579  PHE579     -0.0042
    161  CD2       30.9890   42.2660   24.4380 C.ar  579  PHE579     -0.0042
    162  CE1       29.5540   42.0960   22.0940 C.ar  579  PHE579     -0.0003
    163  CE2       30.3850   41.0770   24.0890 C.ar  579  PHE579     -0.0003
    164  CZ        29.6660   40.9930   22.9140 C.ar  579  PHE579     -0.0000
    165  N         32.8580   47.4200   22.9230 N.am  580  THR580     -0.1939
    166  CA        33.3110   48.7710   23.2270 C.3   580  THR580      0.2028
    167  C         32.1420   49.6760   23.6020 C.2   580  THR580      0.2642
    168  O         31.0050   49.4430   23.1930 O.2   580  THR580     -0.2714
    169  CB        34.0690   49.3920   22.0390 C.3   580  THR580      0.1808
    170  OG1       33.1820   49.5350   20.9230 O.3   580  THR580     -0.2208
    171  CG2       35.2450   48.5160   21.6380 C.3   580  THR580      0.0379
    172  N         32.4340   50.7110   24.3820 N.am  581  TYR581     -0.1973
    173  CA        31.4100   51.6330   24.8570 C.3   581  TYR581      0.1639
    174  C         31.4690   52.9490   24.0860 C.2   581  TYR581      0.2290
    175  O         32.5460   53.4230   23.7250 O.2   581  TYR581     -0.2864
    176  CB        31.5760   51.8820   26.3600 C.3   581  TYR581      0.0560
    177  CG        30.2750   51.9810   27.1340 C.ar  581  TYR581     -0.0198
    178  CD1       29.1620   52.6080   26.5900 C.ar  581  TYR581     -0.0009
    179  CD2       30.1640   51.4430   28.4090 C.ar  581  TYR581     -0.0009
    180  CE1       27.9760   52.6990   27.2970 C.ar  581  TYR581      0.0417
    181  CE2       28.9850   51.5270   29.1220 C.ar  581  TYR581      0.0417
    182  CZ        27.8940   52.1550   28.5630 C.ar  581  TYR581      0.1957
    183  OH        26.7190   52.2390   29.2740 O.3   581  TYR581     -0.2866
    184  N         26.6030   49.8360   23.5600 N.3   586  VAL586     -0.1231
    185  CA        27.6130   48.7820   23.5580 C.3   586  VAL586      0.1692
    186  C         27.5430   47.9740   22.2660 C.2   586  VAL586      0.2592
    187  O         26.5360   47.3250   21.9870 O.2   586  VAL586     -0.2718
    188  CB        27.4410   47.8360   24.7580 C.3   586  VAL586      0.0266
    189  CG1       28.4640   46.7160   24.7000 C.3   586  VAL586      0.0020
    190  CG2       27.5540   48.6100   26.0640 C.3   586  VAL586      0.0020
    191  N         28.6170   48.0130   21.4820 N.am  587  HIS587     -0.1962
    192  CA        28.6260   47.3700   20.1710 C.3   587  HIS587      0.1787
    193  C         29.7900   46.3980   19.9840 C.2   587  HIS587      0.2620
    194  O         30.7150   46.3490   20.7940 O.2   587  HIS587     -0.2715
    195  CB        28.6710   48.4310   19.0660 C.3   587  HIS587      0.0785
    196  CG        27.4570   49.3070   19.0180 C.ar  587  HIS587      0.0821
    197  ND1       26.2500   48.9410   19.5710 N.ar  587  HIS587     -0.2267
    198  CD2       27.2670   50.5350   18.4780 C.ar  587  HIS587      0.1154
    199  CE1       25.3670   49.9050   19.3760 C.ar  587  HIS587      0.1986
    200  NE2       25.9600   50.8830   18.7150 N.ar  587  HIS587     -0.2212
    201  N         29.7230   45.6260   18.9040 N.am  588  ALA588     -0.1977
    202  CA        30.8100   44.7420   18.5010 C.3   588  ALA588      0.1597
    203  C         31.1180   44.9680   17.0250 C.2   588  ALA588      0.2287
    204  O         30.2090   45.1660   16.2190 O.2   588  ALA588     -0.2864
    205  CB        30.4500   43.2900   18.7610 C.3   588  ALA588      0.0319
@<TRIPOS>BOND
     1     1     2    1
     2     3     4    2
     3     3     2    1
     4     2     5    1
     5     9    10    1
     6     5     6    1
     7     7     6   ar
     8   204   203    2
     9     6     8   ar
    10    10    11    1
    11    11    12    2
    12   203   202    1
    13    28    29   ar
    14    28    26   ar
    15   198   200   ar
    16   198   196   ar
    17   202   205    1
    18   202   201    1
    19   200   199   ar
    20    29    27   ar
    21    26    25   ar
    22    37    35   ar
    23   201   193   am
    24    34    35    1
    25    34    31    1
    26   196   195    1
    27   196   197   ar
    28   195   192    1
    29    35    36   ar
    30   199   197   ar
    31    27    25   ar
    32    25    24    1
    33   193   192    1
    34   193   194    2
    35   141   140    2
    36    31    30    1
    37    31    32    1
    38   192   191    1
    39    24    21    1
    40    21    22    1
    41    21    20    1
    42   170   169    1
    43   142   140   am
    44   140   139    1
    45    22    23    2
    46    32    33    2
    47    32    38   am
    48   191   186   am
    49   171   169    1
    50   187   186    2
    51   169   166    1
    52   137   136    1
    53   137   138    2
    54   162   160   ar
    55   162   164   ar
    56    18    17    1
    57   186   185    1
    58    38    39    1
    59   136   139    1
    60   136   135    1
    61   160   159   ar
    62    16    15    2
    63   164   163   ar
    64   165   166    1
    65   165   156   am
    66   155   154    1
    67   155   156    1
    68   155   158    1
    69   168   167    2
    70   166   167    1
    71    15    14    1
    72   185   184    1
    73   185   188    1
    74   156   157    2
    75   167   172   am
    76    39    42    1
    77    39    40    1
    78   159   158    1
    79   159   161   ar
    80    17    14    1
    81    17    19    1
    82   175   174    2
    83    42    43    1
    84    46    44   ar
    85   174   173    1
    86   163   161   ar
    87    14    13    1
    88    43    44    1
    89   172   173    1
    90    44    45   ar
    91    40    41    2
    92   189   188    1
    93   188   190    1
    94   173   176    1
    95   134   132   am
    96   130   129    2
    97   176   177    1
    98   178   177   ar
    99   178   180   ar
   100   132   131    1
   101   132   133    2
   102   131   128    1
   103   129   128    1
   104   177   179   ar
   105   180   182   ar
   106   128   127    1
   107   127   122   am
   108   179   181   ar
   109   182   181   ar
   110   182   183    1
   111   124   121    1
   112   124   125    1
   113   122   121    1
   114   122   123    2
   115   121   120    1
   116    92    90   ar
   117   153   152   ar
   118   153   151   ar
   119    89    90    1
   120    89    88    1
   121   125   126    1
   122    97    94    1
   123    90    91   ar
   124   152   150   ar
   125   151   149   ar
   126   120   126    1
   127   120   111   am
   128    93    94    1
   129    93    86   am
   130    85    88    1
   131    85    84    1
   132    85    86    1
   133   112   111    2
   134    94    95    1
   135    86    87    2
   136   150   148   ar
   137   111   110    1
   138   149   148   ar
   139   148   147    1
   140    96    95    2
   141    95    98   am
   142   117   115   ar
   143   117   119   ar
   144   143   144    1
   145   115   114   ar
   146   110   109    1
   147   110   113    1
   148   147   144    1
   149    98    99    1
   150   119   118   ar
   151    65    63    1
   152   144   145    1
   153   109   100   am
   154   114   113    1
   155   114   116   ar
   156    83    82    1
   157    64    62    1
   158   100    99    1
   159   100   101    2
   160    78    77    2
   161    73    74    1
   162    73    72    2
   163    99   102    1
   164   118   116   ar
   165    82    81    1
   166    63    62    1
   167    59    62    1
   168    59    60    1
   169    59    58    1
   170   145   146    2
   171    60    61    2
   172    75    76    1
   173    80    81    1
   174    80    79    1
   175    71    72    1
   176    71    70    1
   177    77    76    1
   178   102   103    1
   179    76    79    1
   180    70    67    1
   181    55    57   ar
   182    55    53   ar
   183    57    56   ar
   184   103   104   ar
   185   103   105   ar
   186   104   106   ar
   187    66    67    1
   188    53    52   ar
   189    56    54   ar
   190    67    68    1
   191    48    49    1
   192    48    51    1
   193    48    47    1
   194    52    54   ar
   195    52    51    1
   196    49    50    2
   197   105   107   ar
   198   106   108   ar
   199    68    69    2
   200   107   108   ar
