@<TRIPOS>MOLECULE
tmp/4x8jB00.pdb
 80 79 0 0 0
SMALL
GASTEIGER

@<TRIPOS>ATOM
      1  N         -2.7620   56.4840   22.3450 N.3     2  VAL2       -0.1245
      2  CA        -3.5780   55.3770   22.8190 C.3     2  VAL2        0.1561
      3  C         -3.6650   54.2930   21.7480 C.2     2  VAL2        0.2260
      4  O         -3.9350   54.5870   20.5850 O.2     2  VAL2       -0.2867
      5  CB        -5.0020   55.8480   23.1820 C.3     2  VAL2        0.0252
      6  CG1       -5.8770   54.6720   23.6000 C.3     2  VAL2        0.0019
      7  CG2       -4.9440   56.8980   24.2800 C.3     2  VAL2        0.0019
      8  N         -0.8180   53.4540   26.4200 N.3    26  GLY26      -0.1210
      9  CA        -0.8510   54.9040   26.2600 C.3    26  GLY26       0.1956
     10  C         -1.5100   55.6560   27.4010 C.2    26  GLY26       0.2612
     11  O         -1.6430   56.8760   27.3420 O.2    26  GLY26      -0.2717
     12  N         -1.9390   54.9320   28.4290 N.am   27  PHE27      -0.1962
     13  CA        -2.6060   55.5280   29.5800 C.3    27  PHE27       0.1771
     14  C         -2.5570   54.5700   30.7630 C.2    27  PHE27       0.2620
     15  O         -2.2030   53.4030   30.6090 O.2    27  PHE27      -0.2715
     16  CB        -4.0620   55.8740   29.2420 C.3    27  PHE27       0.0574
     17  CG        -4.8750   54.7010   28.7520 C.ar   27  PHE27      -0.0200
     18  CD1       -4.8720   54.3460   27.4110 C.ar   27  PHE27      -0.0042
     19  CD2       -5.6570   53.9610   29.6290 C.ar   27  PHE27      -0.0042
     20  CE1       -5.6250   53.2720   26.9590 C.ar   27  PHE27      -0.0003
     21  CE2       -6.4100   52.8880   29.1840 C.ar   27  PHE27      -0.0003
     22  CZ        -6.3950   52.5420   27.8460 C.ar   27  PHE27      -0.0000
     23  N         -2.9060   55.0680   31.9450 N.am   28  THR28      -0.1951
     24  CA        -2.9850   54.2220   33.1300 C.3    28  THR28       0.1897
     25  C         -4.2840   53.4260   33.0500 C.2    28  THR28       0.2313
     26  O         -5.3760   53.9870   33.1330 O.2    28  THR28      -0.2863
     27  CB        -2.9140   55.0480   34.4230 C.3    28  THR28       0.1794
     28  OG1       -1.6720   55.7630   34.4510 O.3    28  THR28      -0.2208
     29  CG2       -3.0060   54.1450   35.6540 C.3    28  THR28       0.0378
     30  N         -6.0850   51.3000   34.8640 N.3    30  SER30      -0.1202
     31  CA        -7.1140   51.3050   35.9070 C.3    30  SER30       0.2020
     32  C         -7.8190   52.6500   36.0890 C.2    30  SER30       0.2619
     33  O         -8.8570   52.7080   36.7430 O.2    30  SER30      -0.2717
     34  CB        -6.5310   50.8280   37.2350 C.3    30  SER30       0.2103
     35  OG        -6.2780   49.4370   37.1740 O.3    30  SER30      -0.2182
     36  N         -7.2620   53.7210   35.5230 N.am   31  ASP31      -0.1959
     37  CA        -7.9270   55.0280   35.5310 C.3    31  ASP31       0.1840
     38  C         -8.9650   55.1710   34.4190 C.2    31  ASP31       0.2622
     39  O         -9.6620   56.1820   34.3620 O.2    31  ASP31      -0.2715
     40  CB        -6.9030   56.1640   35.3870 C.3    31  ASP31       0.1450
     41  CG        -6.0180   56.3270   36.6100 C.2    31  ASP31       0.3671
     42  OD1       -6.1370   55.5330   37.5670 O.co2  31  ASP31      -0.2456
     43  OD2       -5.1860   57.2560   36.6010 O.co2  31  ASP31      -0.2456
     44  N         -9.0720   54.1740   33.5400 N.am   32  ALA32      -0.1963
     45  CA        -9.9100   54.2930   32.3530 C.3    32  ALA32       0.1728
     46  C        -11.1470   53.4000   32.3740 C.2    32  ALA32       0.2616
     47  O        -11.1100   52.2770   32.8770 O.2    32  ALA32      -0.2715
     48  CB        -9.0860   53.9860   31.1130 C.3    32  ALA32       0.0334
     49  N        -12.2370   53.9290   31.8190 N.am   33  TRP33      -0.1974
     50  CA       -13.4170   53.1370   31.5380 C.3    33  TRP33       0.1640
     51  C        -13.1080   52.2540   30.3330 C.2    33  TRP33       0.2290
     52  O        -12.6930   52.7560   29.2950 O.2    33  TRP33      -0.2864
     53  CB       -14.6080   54.0460   31.2360 C.3    33  TRP33       0.0576
     54  CG       -15.8790   53.3030   31.1520 C.ar   33  TRP33       0.0006
     55  CD1      -16.1420   52.0840   31.6930 C.ar   33  TRP33       0.0946
     56  CD2      -17.0790   53.7270   30.5090 C.ar   33  TRP33       0.0152
     57  NE1      -17.4270   51.7080   31.4140 N.ar   33  TRP33      -0.2442
     58  CE2      -18.0270   52.7020   30.6890 C.ar   33  TRP33       0.0810
     59  CE3      -17.4470   54.8710   29.7980 C.ar   33  TRP33       0.0012
     60  CZ2      -19.3120   52.7840   30.1830 C.ar   33  TRP33       0.0191
     61  CZ3      -18.7270   54.9490   29.2920 C.ar   33  TRP33       0.0001
     62  CH2      -19.6450   53.9110   29.4850 C.ar   33  TRP33       0.0015
     63  N        -12.5010   52.4790   24.9810 N.3    85  SER85      -0.1217
     64  CA       -12.4410   53.3630   26.1340 C.3    85  SER85       0.1889
     65  C        -13.2150   54.6150   25.7380 C.2    85  SER85       0.2288
     66  O        -12.6700   55.4880   25.0620 O.2    85  SER85      -0.2866
     67  CB       -10.9970   53.7080   26.4950 C.3    85  SER85       0.2089
     68  OG       -10.9440   54.4720   27.6890 O.3    85  SER85      -0.2183
     69  N        -11.8650   56.3410   21.8980 N.3    89  TYR89      -0.1241
     70  CA       -10.8770   55.2920   21.6470 C.3    89  TYR89       0.1605
     71  C        -11.5120   53.9280   21.3970 C.2    89  TYR89       0.2264
     72  O        -12.2770   53.4180   22.2160 O.2    89  TYR89      -0.2867
     73  CB        -9.8680   55.2480   22.7920 C.3    89  TYR89       0.0534
     74  CG        -9.2390   56.5990   23.0360 C.ar   89  TYR89      -0.0201
     75  CD1       -8.3060   57.1230   22.1440 C.ar   89  TYR89      -0.0009
     76  CD2       -9.5980   57.3700   24.1390 C.ar   89  TYR89      -0.0009
     77  CE1       -7.7330   58.3670   22.3540 C.ar   89  TYR89       0.0417
     78  CE2       -9.0290   58.6150   24.3570 C.ar   89  TYR89       0.0417
     79  CZ        -8.0970   59.1070   23.4630 C.ar   89  TYR89       0.1957
     80  OH        -7.5330   60.3410   23.6760 O.3    89  TYR89      -0.2866
@<TRIPOS>BOND
     1     4     3    2
     2    71    70    1
     3    71    72    2
     4    70    69    1
     5    70    73    1
     6     3     2    1
     7    75    77   ar
     8    75    74   ar
     9     1     2    1
    10    77    79   ar
    11    73    74    1
    12     2     5    1
    13    74    76   ar
    14     5     6    1
    15     5     7    1
    16    79    80    1
    17    79    78   ar
    18    76    78   ar
    19    63    64    1
    20    66    65    2
    21    65    64    1
    22    64    67    1
    23     9     8    1
    24     9    10    1
    25    67    68    1
    26    20    18   ar
    27    20    22   ar
    28    11    10    2
    29    10    12   am
    30    18    17   ar
    31    22    21   ar
    32    12    13    1
    33    17    16    1
    34    17    19   ar
    35    21    19   ar
    36    16    13    1
    37    61    62   ar
    38    61    59   ar
    39    52    51    2
    40    62    60   ar
    41    13    14    1
    42    59    56   ar
    43    60    58   ar
    44    51    50    1
    45    56    58   ar
    46    56    54   ar
    47    15    14    2
    48    58    57   ar
    49    14    23   am
    50    48    45    1
    51    54    53    1
    52    54    55   ar
    53    53    50    1
    54    57    55   ar
    55    50    49    1
    56    49    46   am
    57    23    24    1
    58    45    46    1
    59    45    44    1
    60    46    47    2
    61    25    24    1
    62    25    26    2
    63    24    27    1
    64    44    38   am
    65    39    38    2
    66    38    37    1
    67    27    28    1
    68    27    29    1
    69    30    31    1
    70    40    37    1
    71    40    41    1
    72    36    37    1
    73    36    32   am
    74    31    32    1
    75    31    34    1
    76    32    33    2
    77    43    41   ar
    78    41    42   ar
    79    35    34    1
