@<TRIPOS>MOLECULE
tmp/4x8nA00.pdb
 135 130 0 0 0
SMALL
GASTEIGER

@<TRIPOS>ATOM
      1  N        -29.3340   12.4960  -28.1920 N.3    27  GLY27      -0.1210
      2  CA       -28.6290   11.2860  -27.8150 C.3    27  GLY27       0.1956
      3  C        -27.3980   11.5650  -26.9750 C.2    27  GLY27       0.2611
      4  O        -26.8840   12.6790  -26.9650 O.2    27  GLY27      -0.2717
      5  N        -26.9330   10.5570  -26.2510 N.am   28  TYR28      -0.1976
      6  CA       -25.7620   10.7170  -25.3970 C.3    28  TYR28       0.1639
      7  C        -24.5520   11.2600  -26.1350 C.2    28  TYR28       0.2290
      8  O        -24.2250   10.8260  -27.2530 O.2    28  TYR28      -0.2864
      9  CB       -25.3780    9.3930  -24.7460 C.3    28  TYR28       0.0560
     10  CG       -25.9690    9.1980  -23.3760 C.ar   28  TYR28      -0.0198
     11  CD1      -25.5340    9.9590  -22.3000 C.ar   28  TYR28      -0.0009
     12  CD2      -26.9340    8.2360  -23.1490 C.ar   28  TYR28      -0.0009
     13  CE1      -26.0550    9.7690  -21.0370 C.ar   28  TYR28       0.0417
     14  CE2      -27.4600    8.0370  -21.8880 C.ar   28  TYR28       0.0417
     15  CZ       -27.0270    8.8070  -20.8420 C.ar   28  TYR28       0.1957
     16  OH       -27.5720    8.6180  -19.5920 O.3    28  TYR28      -0.2866
     17  N        -31.2870   12.2990  -18.7450 N.3    56  ALA56      -0.1245
     18  CA       -30.4290   11.4370  -17.9380 C.3    56  ALA56       0.1562
     19  C        -28.9670   11.8150  -18.0790 C.2    56  ALA56       0.2260
     20  O        -28.5740   12.5140  -19.0160 O.2    56  ALA56      -0.2867
     21  CB       -30.6430    9.9560  -18.3200 C.3    56  ALA56       0.0290
     22  N        -24.7820   10.2030  -17.3120 N.3    58  ARG58      -0.1245
     23  CA       -23.8430    9.1840  -16.8790 C.3    58  ARG58       0.1563
     24  C        -22.5100    9.8890  -16.6360 C.2    58  ARG58       0.2260
     25  O        -21.8960   10.4370  -17.5550 O.2    58  ARG58      -0.2867
     26  CB       -23.7200    8.0690  -17.9220 C.3    58  ARG58       0.0307
     27  CG       -25.0200    7.2560  -18.1120 C.3    58  ARG58       0.0489
     28  CD       -24.8440    6.0130  -19.0320 C.3    58  ARG58       0.2205
     29  NE       -26.1470    5.5300  -19.4820 N.pl3  58  ARG58      -0.0865
     30  CZ       -26.3500    4.4270  -20.2020 C.cat  58  ARG58       0.5346
     31  NH1      -25.3280    3.6560  -20.5610 N.pl3  58  ARG58       0.1354
     32  NH2      -27.5900    4.0930  -20.5520 N.pl3  58  ARG58       0.1354
     33  N        -18.8390   10.6440  -28.6250 N.3    69  GLN69      -0.1231
     34  CA       -20.1620   10.5210  -29.2400 C.3    69  GLN69       0.1698
     35  C        -20.8870    9.2600  -28.7670 C.2    69  GLN69       0.2592
     36  O        -21.4130    8.4830  -29.5660 O.2    69  GLN69      -0.2718
     37  CB       -20.0400   10.5460  -30.7700 C.3    69  GLN69       0.0381
     38  CG       -19.5280   11.8900  -31.3170 C.3    69  GLN69       0.0905
     39  CD       -20.5450   13.0220  -31.1550 C.2    69  GLN69       0.2608
     40  OE1      -21.7470   12.7800  -30.9900 O.2    69  GLN69      -0.2717
     41  NE2      -20.0660   14.2630  -31.2220 N.am   69  GLN69      -0.0878
     42  N        -20.9030    9.0700  -27.4540 N.am   70  ALA70      -0.1966
     43  CA       -21.4830    7.8800  -26.8410 C.3    70  ALA70       0.1713
     44  C        -21.5930    8.1420  -25.3420 C.2    70  ALA70       0.2458
     45  O        -20.9590    9.0720  -24.8350 O.2    70  ALA70      -0.2730
     46  CB       -20.5950    6.6750  -27.1050 C.3    70  ALA70       0.0333
     47  N        -22.3870    7.3300  -24.6250 N.am   71  PRO71      -0.2727
     48  CA       -22.5170    7.5400  -23.1740 C.3    71  PRO71       0.1402
     49  C        -21.2020    7.2200  -22.4890 C.2    71  PRO71       0.2269
     50  O        -20.4910    6.3260  -22.9580 O.2    71  PRO71      -0.2865
     51  CB       -23.5630    6.4920  -22.7520 C.3    71  PRO71       0.0296
     52  CG       -24.1640    5.9690  -24.0340 C.3    71  PRO71       0.0237
     53  CD       -23.1110    6.1320  -25.0800 C.3    71  PRO71       0.0939
     54  N        -19.3060    3.6100  -22.1190 N.3    74  TYR74      -0.1241
     55  CA       -19.6060    2.8750  -23.3550 C.3    74  TYR74       0.1605
     56  C        -18.4980    1.8840  -23.7720 C.2    74  TYR74       0.2264
     57  O        -18.7700    0.7910  -24.2780 O.2    74  TYR74      -0.2867
     58  CB       -19.8730    3.8910  -24.4780 C.3    74  TYR74       0.0534
     59  CG       -19.7060    3.3760  -25.8920 C.ar   74  TYR74      -0.0201
     60  CD1      -20.6580    2.5560  -26.4700 C.ar   74  TYR74      -0.0009
     61  CD2      -18.6040    3.7370  -26.6560 C.ar   74  TYR74      -0.0009
     62  CE1      -20.5120    2.0850  -27.7670 C.ar   74  TYR74       0.0417
     63  CE2      -18.4510    3.2810  -27.9540 C.ar   74  TYR74       0.0417
     64  CZ       -19.4100    2.4560  -28.5040 C.ar   74  TYR74       0.1957
     65  OH       -19.2730    2.0060  -29.7950 O.3    74  TYR74      -0.2866
     66  N        -25.1040    6.0230  -13.7310 N.3    82  ARG82      -0.1245
     67  CA       -26.3300    6.5420  -14.3590 C.3    82  ARG82       0.1563
     68  C        -27.3700    7.1020  -13.3720 C.2    82  ARG82       0.2260
     69  O        -27.7680    6.4310  -12.4160 O.2    82  ARG82      -0.2867
     70  CB       -26.9920    5.4680  -15.2360 C.3    82  ARG82       0.0307
     71  CG       -28.2280    5.9660  -15.9760 C.3    82  ARG82       0.0489
     72  CD       -28.7940    4.8970  -16.9410 C.3    82  ARG82       0.2205
     73  NE       -29.1750    3.6720  -16.2410 N.pl3  82  ARG82      -0.0865
     74  CZ       -29.7020    2.6070  -16.8320 C.cat  82  ARG82       0.5346
     75  NH1      -29.9390    2.6240  -18.1420 N.pl3  82  ARG82       0.1354
     76  NH2      -30.0070    1.5360  -16.1100 N.pl3  82  ARG82       0.1354
     77  N        -30.5530    7.6010  -13.7910 N.3    84  LYS84      -0.1245
     78  CA       -31.6610    6.6680  -13.8200 C.3    84  LYS84       0.1561
     79  C        -31.2150    5.3250  -13.2230 C.2    84  LYS84       0.2260
     80  O        -30.3090    4.6750  -13.7490 O.2    84  LYS84      -0.2867
     81  CB       -32.1200    6.5220  -15.2740 C.3    84  LYS84       0.0271
     82  CG       -33.3860    5.7450  -15.5090 C.3    84  LYS84       0.0035
     83  CD       -33.7320    5.7970  -17.0040 C.3    84  LYS84       0.0206
     84  CE       -34.8220    4.8130  -17.3860 C.3    84  LYS84       0.1093
     85  NZ       -35.1450    4.9130  -18.8370 N.3    84  LYS84      -0.1314
     86  N        -21.8320    1.6970  -15.3250 N.3    89  PHE89      -0.1241
     87  CA       -21.5400    1.2630  -16.6920 C.3    89  PHE89       0.1605
     88  C        -20.0500    1.2280  -17.0160 C.2    89  PHE89       0.2264
     89  O        -19.2800    2.0880  -16.5910 O.2    89  PHE89      -0.2867
     90  CB       -22.2420    2.1660  -17.7110 C.3    89  PHE89       0.0534
     91  CG       -23.7030    1.8680  -17.8820 C.ar   89  PHE89      -0.0203
     92  CD1      -24.6560    2.5670  -17.1590 C.ar   89  PHE89      -0.0042
     93  CD2      -24.1170    0.8800  -18.7700 C.ar   89  PHE89      -0.0042
     94  CE1      -26.0110    2.2950  -17.3240 C.ar   89  PHE89      -0.0003
     95  CE2      -25.4490    0.5920  -18.9350 C.ar   89  PHE89      -0.0003
     96  CZ       -26.4020    1.2970  -18.2150 C.ar   89  PHE89      -0.0000
     97  N        -17.7160   -0.6210  -20.5350 N.3    91  GLN91      -0.1231
     98  CA       -17.8200   -1.3990  -21.7750 C.3    91  GLN91       0.1698
     99  C        -19.2680   -1.7060  -22.1550 C.2    91  GLN91       0.2593
    100  O        -19.5640   -2.7850  -22.6620 O.2    91  GLN91      -0.2718
    101  CB       -16.9590   -2.6730  -21.7340 C.3    91  GLN91       0.0381
    102  CG       -15.4370   -2.3820  -21.7660 C.3    91  GLN91       0.0905
    103  CD       -14.5790   -3.6290  -21.5250 C.2    91  GLN91       0.2608
    104  OE1      -14.8760   -4.7120  -22.0260 O.2    91  GLN91      -0.2717
    105  NE2      -13.5170   -3.4730  -20.7400 N.am   91  GLN91      -0.0878
    106  N        -20.1470   -0.7280  -21.9310 N.am   92  SER92      -0.1938
    107  CA       -21.5690   -0.8280  -22.2480 C.3    92  SER92       0.2055
    108  C        -22.3490   -1.8750  -21.4270 C.2    92  SER92       0.2643
    109  O        -23.4910   -2.2000  -21.7580 O.2    92  SER92      -0.2714
    110  CB       -21.7880   -1.0360  -23.7570 C.3    92  SER92       0.2130
    111  OG       -21.3390    0.0810  -24.5140 O.3    92  SER92      -0.2179
    112  N        -21.7480   -2.3690  -20.3450 N.am   93  ILE93      -0.1963
    113  CA       -22.4220   -3.2990  -19.4330 C.3    93  ILE93       0.1727
    114  C        -22.9680   -2.5770  -18.2040 C.2    93  ILE93       0.2616
    115  O        -22.2100   -1.9990  -17.4300 O.2    93  ILE93      -0.2715
    116  CB       -21.4600   -4.3990  -18.9300 C.3    93  ILE93       0.0290
    117  CG1      -20.8750   -5.1800  -20.1110 C.3    93  ILE93       0.0022
    118  CG2      -22.1780   -5.3420  -17.9390 C.3    93  ILE93       0.0023
    119  CD1      -21.9360   -5.9570  -20.8890 C.3    93  ILE93       0.0001
    120  N        -24.2800   -2.6160  -18.0190 N.am   94  GLY94      -0.1955
    121  CA       -24.8900   -1.9570  -16.8760 C.3    94  GLY94       0.1869
    122  C        -25.0610   -2.9550  -15.7460 C.2    94  GLY94       0.2309
    123  O        -25.5680   -4.0530  -15.9640 O.2    94  GLY94      -0.2863
    124  N        -27.8990   12.9800  -21.6600 N.3   147  TYR147     -0.1241
    125  CA       -28.9200   12.5320  -22.5940 C.3   147  TYR147      0.1605
    126  C        -30.1160   13.4680  -22.5020 C.2   147  TYR147      0.2264
    127  O        -30.6950   13.6440  -21.4320 O.2   147  TYR147     -0.2867
    128  CB       -29.3220   11.0900  -22.2930 C.3   147  TYR147      0.0534
    129  CG       -30.5140   10.5960  -23.0710 C.ar  147  TYR147     -0.0201
    130  CD1      -30.3920   10.2040  -24.4050 C.ar  147  TYR147     -0.0009
    131  CD2      -31.7600   10.5040  -22.4690 C.ar  147  TYR147     -0.0009
    132  CE1      -31.4870    9.7490  -25.1160 C.ar  147  TYR147      0.0417
    133  CE2      -32.8620   10.0600  -23.1650 C.ar  147  TYR147      0.0417
    134  CZ       -32.7290    9.6850  -24.4870 C.ar  147  TYR147      0.1957
    135  OH       -33.8500    9.2340  -25.1570 O.3   147  TYR147     -0.2866
@<TRIPOS>BOND
     1    38    39    1
     2    38    37    1
     3    41    39   am
     4    39    40    2
     5    37    34    1
     6    65    64    1
     7    36    35    2
     8    34    35    1
     9    34    33    1
    10    35    42   am
    11    64    63   ar
    12    64    62   ar
    13     1     2    1
    14    63    61   ar
    15     2     3    1
    16    62    60   ar
    17    42    43    1
    18     8     7    2
    19    46    43    1
    20     3     4    2
    21     3     5   am
    22    43    44    1
    23    61    59   ar
    24    60    59   ar
    25     5     6    1
    26     7     6    1
    27    59    58    1
    28     6     9    1
    29    44    45    2
    30    44    47   am
    31   135   134    1
    32   132   134   ar
    33   132   130   ar
    34    53    47    1
    35    53    52    1
    36     9    10    1
    37    47    48    1
    38   111   110    1
    39   134   133   ar
    40    58    55    1
    41   130   129   ar
    42    57    56    2
    43    52    51    1
    44    56    55    1
    45   110   107    1
    46    10    12   ar
    47    10    11   ar
    48    55    54    1
    49    48    51    1
    50    48    49    1
    51   133   131   ar
    52    12    14   ar
    53   129   131   ar
    54   129   128    1
    55    50    49    2
    56   100    99    2
    57   125   126    1
    58   125   128    1
    59   125   124    1
    60   126   127    2
    61    11    13   ar
    62   107   106    1
    63   107   108    1
    64    99   106   am
    65    99    98    1
    66   104   103    2
    67    14    15   ar
    68    98   101    1
    69    98    97    1
    70   102   101    1
    71   102   103    1
    72   109   108    2
    73   103   105   am
    74   108   112   am
    75    13    15   ar
    76   119   117    1
    77    15    16    1
    78    31    30    1
    79    32    30    1
    80   112   113    1
    81    30    29    2
    82   117   116    1
    83    29    28    1
    84   113   116    1
    85   113   114    1
    86    28    27    1
    87    20    19    2
    88    95    93   ar
    89    95    96   ar
    90   116   118    1
    91    85    84    1
    92    93    91   ar
    93    17    18    1
    94    21    18    1
    95    96    94   ar
    96   114   120   am
    97   114   115    2
    98    75    74    1
    99    27    26    1
   100    19    18    1
   101   120   121    1
   102    26    23    1
   103    91    90    1
   104    91    92   ar
   105    90    87    1
   106    25    24    2
   107    84    83    1
   108    94    92   ar
   109    22    23    1
   110    88    87    1
   111    88    89    2
   112    83    82    1
   113    72    73    1
   114    72    71    1
   115    23    24    1
   116   121   122    1
   117    74    73    2
   118    74    76    1
   119    87    86    1
   120    71    70    1
   121   123   122    2
   122    82    81    1
   123    81    78    1
   124    70    67    1
   125    67    66    1
   126    67    68    1
   127    78    77    1
   128    78    79    1
   129    80    79    2
   130    68    69    2
