@<TRIPOS>MOLECULE
tmp/4x8rA00.pdb
 140 132 0 0 0
SMALL
GASTEIGER

@<TRIPOS>ATOM
      1  N          7.7380   43.0660   39.5180 N.3    11  THR11      -0.1203
      2  CA         7.1020   43.3360   38.2340 C.3    11  THR11       0.1994
      3  C          5.5820   43.5810   38.4170 C.2    11  THR11       0.2617
      4  O          4.9560   44.2440   37.6050 O.2    11  THR11      -0.2717
      5  CB         7.3510   42.1960   37.2230 C.3    11  THR11       0.1784
      6  OG1        6.9470   42.5920   35.9020 O.3    11  THR11      -0.2211
      7  CG2        6.6130   40.9410   37.5970 C.3    11  THR11       0.0376
      8  N          5.0050   43.1040   39.5140 N.am   12  HIS12      -0.1975
      9  CA         3.5560   43.1480   39.6690 C.3    12  HIS12       0.1656
     10  C          3.1200   44.4770   40.2780 C.2    12  HIS12       0.2291
     11  O          3.9130   45.1370   40.9220 O.2    12  HIS12      -0.2864
     12  CB         3.0600   42.0000   40.5680 C.3    12  HIS12       0.0771
     13  CG         3.2030   40.6550   39.9610 C.ar   12  HIS12       0.0820
     14  ND1        2.5600   40.2880   38.7980 N.ar   12  HIS12      -0.2267
     15  CD2        3.9360   39.5810   40.3560 C.ar   12  HIS12       0.1154
     16  CE1        2.8720   39.0280   38.5180 C.ar   12  HIS12       0.1986
     17  NE2        3.7030   38.5850   39.4450 N.ar   12  HIS12      -0.2212
     18  N         -0.9710   43.2500   44.5670 N.3    16  TYR16      -0.1241
     19  CA        -0.7180   41.8570   44.1960 C.3    16  TYR16       0.1605
     20  C         -0.0560   41.1160   45.3800 C.2    16  TYR16       0.2264
     21  O          0.7070   41.7250   46.1350 O.2    16  TYR16      -0.2867
     22  CB         0.1790   41.8100   42.9410 C.3    16  TYR16       0.0534
     23  CG         0.2090   40.4980   42.1830 C.ar   16  TYR16      -0.0201
     24  CD1       -0.7380   40.2210   41.2150 C.ar   16  TYR16      -0.0009
     25  CD2        1.2050   39.5540   42.4110 C.ar   16  TYR16      -0.0009
     26  CE1       -0.7120   39.0330   40.5020 C.ar   16  TYR16       0.0417
     27  CE2        1.2400   38.3620   41.7130 C.ar   16  TYR16       0.0417
     28  CZ         0.2830   38.1140   40.7440 C.ar   16  TYR16       0.1957
     29  OH         0.3190   36.9350   40.0400 O.3    16  TYR16      -0.2866
     30  N         11.7270   42.0480   34.8120 N.3    49  GLU49      -0.1245
     31  CA        12.1840   41.2080   35.9070 C.3    49  GLU49       0.1567
     32  C         13.6170   40.6770   35.7230 C.2    49  GLU49       0.2260
     33  O         14.4340   40.7710   36.6430 O.2    49  GLU49      -0.2867
     34  CB        11.1920   40.0320   36.1020 C.3    49  GLU49       0.0388
     35  CG        11.5580   39.1140   37.2120 C.3    49  GLU49       0.1160
     36  CD        10.3840   38.2530   37.6780 C.2    49  GLU49       0.3649
     37  OE1        9.3860   38.8090   38.1880 O.co2  49  GLU49      -0.2457
     38  OE2       10.4650   37.0070   37.5370 O.co2  49  GLU49      -0.2457
     39  N         11.8350   40.3910   44.1430 N.3    64  ARG64      -0.1245
     40  CA        10.8990   39.2620   44.2070 C.3    64  ARG64       0.1563
     41  C         10.7580   38.7480   42.7760 C.2    64  ARG64       0.2260
     42  O         10.2950   39.4730   41.9080 O.2    64  ARG64      -0.2867
     43  CB         9.5500   39.7020   44.7670 C.3    64  ARG64       0.0307
     44  CG         8.6070   38.5930   45.2590 C.3    64  ARG64       0.0489
     45  CD         8.0500   37.7140   44.1430 C.3    64  ARG64       0.2205
     46  NE         7.5650   38.5160   43.0370 N.pl3  64  ARG64      -0.0865
     47  CZ         7.4470   38.0980   41.7750 C.cat  64  ARG64       0.5346
     48  NH1        7.7330   36.8450   41.4220 N.pl3  64  ARG64       0.1354
     49  NH2        7.0500   38.9630   40.8600 N.pl3  64  ARG64       0.1354
     50  N         10.3440   35.2290   39.8080 N.3    66  SER66      -0.1217
     51  CA        10.1160   33.8530   39.4260 C.3    66  SER66       0.1889
     52  C         11.4310   33.1470   39.1100 C.2    66  SER66       0.2288
     53  O         12.3110   33.7220   38.4790 O.2    66  SER66      -0.2866
     54  CB         9.2290   33.7750   38.2060 C.3    66  SER66       0.2089
     55  OG         9.0860   32.4200   37.8050 O.3    66  SER66      -0.2183
     56  N         12.6040   33.4030   35.4080 N.3    69  SER69      -0.1217
     57  CA        13.2050   34.5690   34.7710 C.3    69  SER69       0.1889
     58  C         14.7470   34.4660   34.7630 C.2    69  SER69       0.2288
     59  O         15.4170   35.3210   34.1910 O.2    69  SER69      -0.2866
     60  CB        12.7830   35.8720   35.4470 C.3    69  SER69       0.2089
     61  OG        11.3730   36.0490   35.4520 O.3    69  SER69      -0.2183
     62  N          0.6350   27.4400   36.1060 N.3   123  ARG123     -0.1245
     63  CA         0.4700   28.1860   34.8730 C.3   123  ARG123      0.1563
     64  C         -0.2260   27.3660   33.7830 C.2   123  ARG123      0.2260
     65  O          0.0540   26.1770   33.5910 O.2   123  ARG123     -0.2867
     66  CB         1.8350   28.6760   34.3690 C.3   123  ARG123      0.0307
     67  CG         2.6530   29.4720   35.4240 C.3   123  ARG123      0.0489
     68  CD         4.0710   29.7230   34.9680 C.3   123  ARG123      0.2205
     69  NE         4.2050   30.6180   33.8150 N.pl3 123  ARG123     -0.0865
     70  CZ         4.5600   31.9140   33.8740 C.cat 123  ARG123      0.5346
     71  NH1        4.7300   32.5260   35.0370 N.pl3 123  ARG123      0.1354
     72  NH2        4.7270   32.6130   32.7600 N.pl3 123  ARG123      0.1354
     73  N          3.9880   33.2780   23.8810 N.3   143  ARG143     -0.1245
     74  CA         5.0570   33.8400   24.7000 C.3   143  ARG143      0.1563
     75  C          5.3410   32.9300   25.8720 C.2   143  ARG143      0.2260
     76  O          4.4150   32.3720   26.4950 O.2   143  ARG143     -0.2867
     77  CB         4.7000   35.2240   25.2210 C.3   143  ARG143      0.0307
     78  CG         5.7420   35.8570   26.0980 C.3   143  ARG143      0.0489
     79  CD         5.4380   35.6210   27.5870 C.3   143  ARG143      0.2205
     80  NE         6.4070   36.2540   28.4770 N.pl3 143  ARG143     -0.0865
     81  CZ         6.3390   36.2120   29.7980 C.cat 143  ARG143      0.5346
     82  NH1        5.3450   35.5620   30.3950 N.pl3 143  ARG143      0.1354
     83  NH2        7.2480   36.8180   30.5260 N.pl3 143  ARG143      0.1354
     84  N          7.5660   40.1960   30.6150 N.3   162  TYR162     -0.1241
     85  CA         6.1510   40.1320   30.9930 C.3   162  TYR162      0.1605
     86  C          5.3570   41.3760   30.5230 C.2   162  TYR162      0.2264
     87  O          4.2340   41.2540   30.0380 O.2   162  TYR162     -0.2867
     88  CB         6.0980   39.9860   32.5080 C.3   162  TYR162      0.0534
     89  CG         4.7370   39.8360   33.1630 C.ar  162  TYR162     -0.0201
     90  CD1        3.8340   38.8710   32.7530 C.ar  162  TYR162     -0.0009
     91  CD2        4.3900   40.6370   34.2490 C.ar  162  TYR162     -0.0009
     92  CE1        2.6000   38.7280   33.3890 C.ar  162  TYR162      0.0417
     93  CE2        3.1560   40.4960   34.8960 C.ar  162  TYR162      0.0417
     94  CZ         2.2770   39.5410   34.4670 C.ar  162  TYR162      0.1957
     95  OH         1.0590   39.4010   35.1080 O.3   162  TYR162     -0.2866
     96  N          0.0560   31.5240   32.1530 N.3   179  ASN179     -0.1225
     97  CA         0.2670   32.0550   33.4840 C.3   179  ASN179      0.1785
     98  C         -0.8250   31.6060   34.4410 C.2   179  ASN179      0.2597
     99  O         -1.7800   30.9460   34.0420 O.2   179  ASN179     -0.2718
    100  CB         0.3350   33.5870   33.4570 C.3   179  ASN179      0.1169
    101  CG         1.4890   34.1160   34.2960 C.2   179  ASN179      0.2627
    102  OD1        1.6330   33.7550   35.4700 O.2   179  ASN179     -0.2716
    103  ND2        2.3600   34.9140   33.6840 N.am  179  ASN179     -0.0877
    104  N         -0.6460   31.9840   35.7020 N.am  180  ASN180     -0.1974
    105  CA        -1.6130   31.7160   36.7580 C.3   180  ASN180      0.1688
    106  C         -2.7850   32.6880   36.6820 C.2   180  ASN180      0.2292
    107  O         -2.7590   33.6540   35.9070 O.2   180  ASN180     -0.2864
    108  CB        -0.9170   31.7730   38.1180 C.3   180  ASN180      0.1181
    109  CG        -0.1350   33.0760   38.3540 C.2   180  ASN180      0.2629
    110  OD1       -0.6240   34.1640   38.0970 O.2   180  ASN180     -0.2716
    111  ND2        1.0720   32.9450   38.8860 N.am  180  ASN180     -0.0877
    112  N         -2.0580   36.5290   37.4830 N.3   183  SER183     -0.1217
    113  CA        -1.3270   37.2400   36.4180 C.3   183  SER183      0.1889
    114  C         -2.2070   37.4850   35.2190 C.2   183  SER183      0.2288
    115  O         -2.2110   38.5740   34.6670 O.2   183  SER183     -0.2866
    116  CB        -0.0820   36.4650   35.9820 C.3   183  SER183      0.2089
    117  OG         0.8690   36.4170   37.0140 O.3   183  SER183     -0.2183
    118  N          9.1020   30.7790   43.3110 N.3   205  GLU205     -0.1245
    119  CA         9.4440   32.1910   43.3440 C.3   205  GLU205      0.1567
    120  C         10.1930   32.4760   44.6280 C.2   205  GLU205      0.2260
    121  O         10.0550   31.7510   45.6170 O.2   205  GLU205     -0.2867
    122  CB         8.2060   33.0880   43.2730 C.3   205  GLU205      0.0388
    123  CG         7.2410   32.7470   42.1680 C.3   205  GLU205      0.1160
    124  CD         6.3230   33.8940   41.7870 C.2   205  GLU205      0.3649
    125  OE1        6.0480   34.7860   42.6370 O.co2 205  GLU205     -0.2457
    126  OE2        5.8800   33.9170   40.6070 O.co2 205  GLU205     -0.2457
    127  N         -2.0740   34.7090   48.4610 N.3   240  TRP240     -0.1241
    128  CA        -2.0440   34.0850   47.1500 C.3   240  TRP240      0.1605
    129  C         -3.2960   33.2520   46.9300 C.2   240  TRP240      0.2264
    130  O         -3.9480   33.3320   45.8810 O.2   240  TRP240     -0.2867
    131  CB        -0.7660   33.2250   46.9850 C.3   240  TRP240      0.0550
    132  CG        -0.7680   32.5960   45.6620 C.ar  240  TRP240      0.0003
    133  CD1       -1.0640   31.2890   45.3680 C.ar  240  TRP240      0.0946
    134  CD2       -0.5400   33.2480   44.4170 C.ar  240  TRP240      0.0152
    135  NE1       -1.0400   31.0990   44.0170 N.ar  240  TRP240     -0.2442
    136  CE2       -0.7090   32.2890   43.4060 C.ar  240  TRP240      0.0810
    137  CE3       -0.2250   34.5620   44.0530 C.ar  240  TRP240      0.0012
    138  CZ2       -0.5660   32.6040   42.0440 C.ar  240  TRP240      0.0191
    139  CZ3       -0.0830   34.8690   42.6980 C.ar  240  TRP240      0.0001
    140  CH2       -0.2510   33.8970   41.7230 C.ar  240  TRP240      0.0015
@<TRIPOS>BOND
     1    73    74    1
     2    74    77    1
     3    74    75    1
     4    77    78    1
     5    75    76    2
     6    78    79    1
     7    79    80    1
     8    80    81    2
     9    81    82    1
    10    81    83    1
    11    87    86    2
    12    86    85    1
    13    84    85    1
    14    85    88    1
    15    96    97    1
    16    88    89    1
    17    90    89   ar
    18    90    92   ar
    19    72    70    1
    20    89    91   ar
    21    92    94   ar
    22   100    97    1
    23   100   101    1
    24    97    98    1
    25    65    64    2
    26   103   101   am
    27    64    63    1
    28    69    70    2
    29    69    68    1
    30    70    71    1
    31    99    98    2
    32    59    58    2
    33    91    93   ar
    34   101   102    2
    35    66    63    1
    36    66    67    1
    37    98   104   am
    38    94    93   ar
    39    94    95    1
    40   115   114    2
    41    58    57    1
    42    57    56    1
    43    57    60    1
    44    30    31    1
    45    63    62    1
    46    68    67    1
    47   114   113    1
    48    60    61    1
    49   104   105    1
    50    32    31    1
    51    32    33    2
    52     6     5    1
    53   107   106    2
    54    31    34    1
    55   116   113    1
    56   116   117    1
    57    34    35    1
    58   113   112    1
    59   106   105    1
    60   105   108    1
    61    35    36    1
    62     5     7    1
    63     5     2    1
    64    38    36   ar
    65     4     3    2
    66    36    37   ar
    67    55    54    1
    68   110   109    2
    69   108   109    1
    70    54    51    1
    71     2     3    1
    72     2     1    1
    73   109   111   am
    74     3     8   am
    75    53    52    2
    76    16    14   ar
    77    16    17   ar
    78    14    13   ar
    79    52    51    1
    80    51    50    1
    81    17    15   ar
    82     8     9    1
    83     9    10    1
    84     9    12    1
    85    13    15   ar
    86    13    12    1
    87    29    28    1
    88    10    11    2
    89    26    28   ar
    90    26    24   ar
    91   126   124   ar
    92    28    27   ar
    93    49    47    1
    94    24    23   ar
    95    48    47    1
    96    27    25   ar
    97   140   138   ar
    98   140   139   ar
    99    47    46    2
   100   124   123    1
   101   124   125   ar
   102    42    41    2
   103   138   136   ar
   104   123   122    1
   105    23    25   ar
   106    23    22    1
   107   139   137   ar
   108    41    40    1
   109    22    19    1
   110    46    45    1
   111   122   119    1
   112   118   119    1
   113   119   120    1
   114   136   135   ar
   115   136   134   ar
   116   135   133   ar
   117   137   134   ar
   118    39    40    1
   119    45    44    1
   120    19    18    1
   121    19    20    1
   122    40    43    1
   123   134   132   ar
   124   120   121    2
   125    43    44    1
   126   133   132   ar
   127    20    21    2
   128   132   131    1
   129   130   129    2
   130   129   128    1
   131   131   128    1
   132   128   127    1
