@<TRIPOS>MOLECULE
tmp/4x8sA00.pdb
 109 108 0 0 0
SMALL
GASTEIGER

@<TRIPOS>ATOM
      1  N          4.8250   33.9610   17.4570 N.3    41  HIS41      -0.1241
      2  CA         4.6070   35.2910   18.0440 C.3    41  HIS41       0.1621
      3  C          5.6780   36.3190   17.6350 C.2    41  HIS41       0.2264
      4  O          5.4130   37.5230   17.7080 O.2    41  HIS41      -0.2867
      5  CB         4.4010   35.2230   19.5750 C.3    41  HIS41       0.0745
      6  CG         5.6360   35.2170   20.4100 C.ar   41  HIS41       0.0817
      7  ND1        6.1130   34.0520   20.9800 N.ar   41  HIS41      -0.2268
      8  CD2        6.4230   36.2470   20.7990 C.ar   41  HIS41       0.1154
      9  CE1        7.1920   34.3920   21.6530 C.ar   41  HIS41       0.1986
     10  NE2        7.4160   35.7090   21.5740 N.ar   41  HIS41      -0.2212
     11  N         15.9060   31.4750   34.0110 N.3   181  ASP181     -0.1225
     12  CA        14.8040   31.3930   33.0560 C.3   181  ASP181      0.1805
     13  C         15.2360   31.8940   31.7040 C.2   181  ASP181      0.2598
     14  O         16.3030   32.5070   31.5760 O.2   181  ASP181     -0.2718
     15  CB        13.6520   32.3350   33.5480 C.3   181  ASP181      0.1424
     16  CG        12.2530   32.0740   32.9830 C.2   181  ASP181      0.3668
     17  OD1       12.0840   31.0710   32.2210 O.co2 181  ASP181     -0.2456
     18  OD2       11.3230   32.8690   33.2970 O.co2 181  ASP181     -0.2456
     19  N         14.4260   31.6510   30.6680 N.am  182  SER182     -0.1938
     20  CA        14.6950   32.2960   29.3850 C.3   182  SER182      0.2055
     21  C         13.9170   33.6320   29.4570 C.2   182  SER182      0.2643
     22  O         13.1510   33.8400   30.4110 O.2   182  SER182     -0.2714
     23  CB        14.3040   31.4260   28.1910 C.3   182  SER182      0.2130
     24  OG        13.1000   30.7060   28.3760 O.3   182  SER182     -0.2179
     25  N         14.1500   34.5540   28.5130 N.am  183  CYS183     -0.1953
     26  CA        13.5310   35.8820   28.5500 C.3   183  CYS183      0.1843
     27  C         12.9420   36.2570   27.1990 C.2   183  CYS183      0.2625
     28  O         13.0280   35.4750   26.2580 O.2   183  CYS183     -0.2714
     29  CB        14.5130   36.9390   29.0740 C.3   183  CYS183      0.0997
     30  SG        13.7340   38.2970   30.0160 S.3   183  CYS183     -0.0797
     31  N         12.2920   37.4370   27.1330 N.am  184  LYS184     -0.1977
     32  CA        11.5740   37.9570   25.9550 C.3   184  LYS184      0.1596
     33  C         12.3250   37.8210   24.6200 C.2   184  LYS184      0.2287
     34  O         11.7430   37.3280   23.6400 O.2   184  LYS184     -0.2864
     35  CB        11.1470   39.4280   26.1800 C.3   184  LYS184      0.0298
     36  CG        10.2770   39.6620   27.4270 C.3   184  LYS184      0.0038
     37  CD         9.0060   38.8120   27.4400 C.3   184  LYS184      0.0206
     38  CE         8.1940   39.0030   28.6940 C.3   184  LYS184      0.1093
     39  NZ         7.2360   37.8820   28.8860 N.3   184  LYS184     -0.1314
     40  N         12.8690   34.3340   22.6640 N.3   187  SER187     -0.1217
     41  CA        11.6820   33.8070   21.9660 C.3   187  SER187      0.1889
     42  C         12.0700   33.1310   20.6730 C.2   187  SER187      0.2288
     43  O         12.8760   33.6710   19.9260 O.2   187  SER187     -0.2866
     44  CB        10.7300   34.9530   21.6050 C.3   187  SER187      0.2089
     45  OG         9.9660   35.3850   22.7150 O.3   187  SER187     -0.2183
     46  N         11.3310   28.4740   22.8870 N.3   205  VAL205     -0.1231
     47  CA        11.1030   29.5350   23.8840 C.3   205  VAL205      0.1692
     48  C          9.8280   30.2760   23.4350 C.2   205  VAL205      0.2593
     49  O          9.7900   30.8410   22.3430 O.2   205  VAL205     -0.2718
     50  CB        12.3060   30.5170   24.0290 C.3   205  VAL205      0.0266
     51  CG1       11.9670   31.6370   25.0120 C.3   205  VAL205      0.0020
     52  CG2       13.5950   29.7840   24.4450 C.3   205  VAL205      0.0020
     53  N          8.7780   30.1970   24.2450 N.am  206  SER206     -0.1938
     54  CA         7.4830   30.7530   23.8790 C.3   206  SER206      0.2055
     55  C          7.0100   31.9110   24.7680 C.2   206  SER206      0.2643
     56  O          6.8580   33.0110   24.2630 O.2   206  SER206     -0.2714
     57  CB         6.4360   29.6350   23.8260 C.3   206  SER206      0.2130
     58  OG         5.1520   30.1480   23.5170 O.3   206  SER206     -0.2179
     59  N          6.7300   31.6640   26.0620 N.am  207  TRP207     -0.1959
     60  CA         6.1910   32.7080   26.9410 C.3   207  TRP207      0.1771
     61  C          6.3900   32.4240   28.4300 C.2   207  TRP207      0.2620
     62  O          6.8350   31.3480   28.8190 O.2   207  TRP207     -0.2715
     63  CB         4.6860   32.9880   26.6250 C.3   207  TRP207      0.0590
     64  CG         3.7550   31.8460   26.9450 C.ar  207  TRP207      0.0006
     65  CD1        3.4770   30.7720   26.1530 C.ar  207  TRP207      0.0946
     66  CD2        2.9660   31.6810   28.1360 C.ar  207  TRP207      0.0152
     67  NE1        2.5590   29.9510   26.7690 N.ar  207  TRP207     -0.2442
     68  CE2        2.2250   30.4870   27.9870 C.ar  207  TRP207      0.0810
     69  CE3        2.8260   32.4190   29.3280 C.ar  207  TRP207      0.0012
     70  CZ2        1.3530   30.0130   28.9830 C.ar  207  TRP207      0.0191
     71  CZ3        1.9710   31.9440   30.3140 C.ar  207  TRP207      0.0001
     72  CH2        1.2600   30.7450   30.1440 C.ar  207  TRP207      0.0015
     73  N          6.0860   33.4290   29.2380 N.am  208  GLY208     -0.1954
     74  CA         6.1530   33.3740   30.6900 C.3   208  GLY208      0.1869
     75  C          5.6810   34.6790   31.3110 C.2   208  GLY208      0.2309
     76  O          5.5530   35.6920   30.6130 O.2   208  GLY208     -0.2863
     77  N          6.6600   37.6160   33.0550 N.3   210  GLY210     -0.1210
     78  CA         7.9280   38.3160   33.2290 C.3   210  GLY210      0.1956
     79  C          9.0580   37.3460   32.9270 C.2   210  GLY210      0.2612
     80  O          8.8370   36.3620   32.2050 O.2   210  GLY210     -0.2717
     81  N         10.2540   37.5900   33.4920 N.am  211  CYS211     -0.1970
     82  CA        11.4290   36.7150   33.3280 C.3   211  CYS211      0.1712
     83  C         11.9430   36.3850   34.7020 C.2   211  CYS211      0.2296
     84  O         12.2160   37.3050   35.4860 O.2   211  CYS211     -0.2864
     85  CB        12.5180   37.3770   32.4820 C.3   211  CYS211      0.0983
     86  SG        11.9280   38.0580   30.9160 S.3   211  CYS211     -0.0798
     87  N          9.0910   28.9100   32.8850 N.3   218  GLY218     -0.1210
     88  CA         9.0900   29.2090   31.4550 C.3   218  GLY218      0.1956
     89  C          8.1220   28.2770   30.7600 C.2   218  GLY218      0.2612
     90  O          7.9040   27.1580   31.2270 O.2   218  GLY218     -0.2717
     91  N          7.4570   28.7560   29.7030 N.am  219  VAL219     -0.1965
     92  CA         6.5090   27.9620   28.9210 C.3   219  VAL219      0.1727
     93  C          7.0850   27.8400   27.5070 C.2   219  VAL219      0.2616
     94  O          7.4980   28.8380   26.8950 O.2   219  VAL219     -0.2715
     95  CB         5.0440   28.4650   28.9410 C.3   219  VAL219      0.0290
     96  CG1        4.1020   27.3970   28.3680 C.3   219  VAL219      0.0023
     97  CG2        4.6030   28.8310   30.3590 C.3   219  VAL219      0.0023
     98  N          7.1390   26.5950   27.0220 N.am  220  TYR220     -0.1974
     99  CA         7.7550   26.2070   25.7520 C.3   220  TYR220      0.1639
    100  C          6.7460   25.5390   24.8570 C.2   220  TYR220      0.2290
    101  O          5.8920   24.7930   25.3470 O.2   220  TYR220     -0.2864
    102  CB         8.9360   25.2400   26.0300 C.3   220  TYR220      0.0560
    103  CG        10.0300   25.9030   26.8400 C.ar  220  TYR220     -0.0198
    104  CD1        9.9740   25.9340   28.2350 C.ar  220  TYR220     -0.0009
    105  CD2       11.0570   26.6000   26.2140 C.ar  220  TYR220     -0.0009
    106  CE1       10.9110   26.6510   28.9810 C.ar  220  TYR220      0.0417
    107  CE2       11.9980   27.3150   26.9470 C.ar  220  TYR220      0.0417
    108  CZ        11.9260   27.3380   28.3310 C.ar  220  TYR220      0.1957
    109  OH        12.8720   28.0590   29.0360 O.3   220  TYR220     -0.2866
@<TRIPOS>BOND
     1     1     2    1
     2     3     4    2
     3     3     2    1
     4     2     5    1
     5     5     6    1
     6    43    42    2
     7     6     8   ar
     8     6     7   ar
     9    42    41    1
    10     8    10   ar
    11     7     9   ar
    12    10     9   ar
    13    44    41    1
    14    44    45    1
    15    41    40    1
    16    49    48    2
    17    46    47    1
    18    48    47    1
    19    48    53   am
    20    58    57    1
    21    34    33    2
    22    57    54    1
    23    54    53    1
    24    54    55    1
    25    47    50    1
    26    50    52    1
    27    50    51    1
    28    56    55    2
    29    33    32    1
    30    55    59   am
    31   100   101    2
    32   100    99    1
    33    99   102    1
    34    99    98    1
    35    32    35    1
    36    32    31    1
    37   102   103    1
    38    59    60    1
    39    65    67   ar
    40    65    64   ar
    41    35    36    1
    42   105   103   ar
    43   105   107   ar
    44    28    27    2
    45    63    60    1
    46    63    64    1
    47    67    68   ar
    48   103   104   ar
    49    94    93    2
    50    60    61    1
    51    64    66   ar
    52   107   108   ar
    53    98    93   am
    54    31    27   am
    55    27    26    1
    56    36    37    1
    57    37    38    1
    58    93    92    1
    59    68    66   ar
    60    68    70   ar
    61    66    69   ar
    62    23    24    1
    63    23    20    1
    64   104   106   ar
    65   108   106   ar
    66   108   109    1
    67    96    95    1
    68    61    62    2
    69    61    73   am
    70    25    26    1
    71    25    21   am
    72    26    29    1
    73    38    39    1
    74    92    95    1
    75    92    91    1
    76    95    97    1
    77    70    72   ar
    78    29    30    1
    79    73    74    1
    80    69    71   ar
    81    20    21    1
    82    20    19    1
    83    21    22    2
    84    91    89   am
    85    30    86    1
    86    72    71   ar
    87    76    75    2
    88    19    13   am
    89    74    75    1
    90    89    90    2
    91    89    88    1
    92    86    85    1
    93    88    87    1
    94    14    13    2
    95    13    12    1
    96    80    79    2
    97    17    16   ar
    98    85    82    1
    99    79    78    1
   100    79    81   am
   101    16    18   ar
   102    16    15    1
   103    77    78    1
   104    12    15    1
   105    12    11    1
   106    82    81    1
   107    82    83    1
   108    83    84    2
