@<TRIPOS>MOLECULE
tmp/4x8tA00.pdb
 120 120 0 0 0
SMALL
GASTEIGER

@<TRIPOS>ATOM
      1  N          4.9240   32.6730   17.6230 N.3    41  HIS41      -0.1241
      2  CA         4.7800   34.0140   18.1790 C.3    41  HIS41       0.1621
      3  C          5.8330   35.0060   17.6550 C.2    41  HIS41       0.2264
      4  O          5.5740   36.2050   17.6590 O.2    41  HIS41      -0.2867
      5  CB         4.6940   33.9840   19.7190 C.3    41  HIS41       0.0745
      6  CG         6.0040   34.0230   20.4410 C.ar   41  HIS41       0.0817
      7  ND1        6.4630   32.9320   21.1680 N.ar   41  HIS41      -0.2268
      8  CD2        6.8860   35.0440   20.5780 C.ar   41  HIS41       0.1154
      9  CE1        7.6160   33.3060   21.6830 C.ar   41  HIS41       0.1986
     10  NE2        7.9180   34.5710   21.3460 N.ar   41  HIS41      -0.2212
     11  N         16.9170   30.4370   33.5930 N.3   182  ASP182     -0.1225
     12  CA        15.7800   30.4060   32.6670 C.3   182  ASP182      0.1805
     13  C         16.1760   30.8670   31.2770 C.2   182  ASP182      0.2598
     14  O         17.1980   31.5090   31.1190 O.2   182  ASP182     -0.2718
     15  CB        14.6690   31.3530   33.1810 C.3   182  ASP182      0.1424
     16  CG        13.2490   30.9640   32.7930 C.2   182  ASP182      0.3668
     17  OD1       13.0850   30.1260   31.8640 O.co2 182  ASP182     -0.2456
     18  OD2       12.3020   31.5210   33.3880 O.co2 182  ASP182     -0.2456
     19  N         15.3400   30.5960   30.2750 N.am  183  SER183     -0.1938
     20  CA        15.5190   31.1860   28.9530 C.3   183  SER183      0.2055
     21  C         14.7190   32.5050   29.0050 C.2   183  SER183      0.2643
     22  O         13.9690   32.7420   29.9540 O.2   183  SER183     -0.2714
     23  CB        15.0430   30.2580   27.8310 C.3   183  SER183      0.2130
     24  OG        13.7060   29.8660   28.0350 O.3   183  SER183     -0.2179
     25  N         14.9520   33.4020   28.0670 N.am  184  CYS184     -0.1953
     26  CA        14.3190   34.7140   28.1280 C.3   184  CYS184      0.1843
     27  C         13.6190   34.9940   26.8160 C.2   184  CYS184      0.2625
     28  O         13.7010   34.1650   25.9180 O.2   184  CYS184     -0.2714
     29  CB        15.3670   35.7700   28.4750 C.3   184  CYS184      0.0997
     30  SG        14.8130   37.0610   29.6370 S.3   184  CYS184     -0.0797
     31  N         12.8930   36.1250   26.7080 N.am  185  LYS185     -0.1977
     32  CA        12.0930   36.4850   25.5280 C.3   185  LYS185      0.1596
     33  C         12.8990   36.5180   24.1820 C.2   185  LYS185      0.2287
     34  O         12.3690   36.0620   23.1610 O.2   185  LYS185     -0.2864
     35  CB        11.2700   37.7760   25.7550 C.3   185  LYS185      0.0298
     36  CG        12.0750   39.0440   25.9770 C.3   185  LYS185      0.0038
     37  CD        11.2040   40.2030   26.4460 C.3   185  LYS185      0.0206
     38  CE        11.0420   40.2820   27.9570 C.3   185  LYS185      0.1093
     39  NZ        12.3390   40.5920   28.6300 N.3   185  LYS185     -0.1314
     40  N         13.2580   32.9840   22.3400 N.3   188  SER188     -0.1217
     41  CA        12.0640   32.4190   21.6800 C.3   188  SER188      0.1889
     42  C         12.3980   31.7660   20.3580 C.2   188  SER188      0.2288
     43  O         13.1560   32.3300   19.5830 O.2   188  SER188     -0.2866
     44  CB        11.0370   33.5110   21.4150 C.3   188  SER188      0.2089
     45  OG        10.5600   34.0860   22.6190 O.3   188  SER188     -0.2183
     46  N         11.6750   27.2310   22.7460 N.3   206  VAL206     -0.1231
     47  CA        11.5730   28.3010   23.7540 C.3   206  VAL206      0.1692
     48  C         10.2710   29.0500   23.4420 C.2   206  VAL206      0.2593
     49  O         10.1360   29.5890   22.3410 O.2   206  VAL206     -0.2718
     50  CB        12.7960   29.2540   23.7660 C.3   206  VAL206      0.0266
     51  CG1       12.6580   30.3170   24.8600 C.3   206  VAL206      0.0020
     52  CG2       14.1060   28.4900   23.9320 C.3   206  VAL206      0.0020
     53  N          9.2990   29.0200   24.3700 N.am  207  SER207     -0.1938
     54  CA         8.0060   29.6400   24.1140 C.3   207  SER207      0.2055
     55  C          7.6600   30.8830   24.9650 C.2   207  SER207      0.2643
     56  O          7.6650   31.9800   24.4290 O.2   207  SER207     -0.2714
     57  CB         6.8850   28.6130   24.2290 C.3   207  SER207      0.2130
     58  OG         5.6570   29.2060   23.8440 O.3   207  SER207     -0.2179
     59  N          7.2650   30.7050   26.2430 N.am  208  TRP208     -0.1959
     60  CA         6.7790   31.7960   27.1030 C.3   208  TRP208      0.1771
     61  C          7.0200   31.5460   28.6130 C.2   208  TRP208      0.2620
     62  O          7.4970   30.4780   29.0070 O.2   208  TRP208     -0.2715
     63  CB         5.2600   32.0140   26.8520 C.3   208  TRP208      0.0590
     64  CG         4.3930   30.8440   27.2490 C.ar  208  TRP208      0.0006
     65  CD1        4.1860   29.7010   26.5360 C.ar  208  TRP208      0.0946
     66  CD2        3.6160   30.7080   28.4560 C.ar  208  TRP208      0.0152
     67  NE1        3.3200   28.8690   27.2100 N.ar  208  TRP208     -0.2442
     68  CE2        2.9320   29.4730   28.3760 C.ar  208  TRP208      0.0810
     69  CE3        3.3780   31.5420   29.5690 C.ar  208  TRP208      0.0012
     70  CZ2        2.0820   29.0180   29.3960 C.ar  208  TRP208      0.0191
     71  CZ3        2.5230   31.1010   30.5670 C.ar  208  TRP208      0.0001
     72  CH2        1.8840   29.8530   30.4770 C.ar  208  TRP208      0.0015
     73  N          6.6310   32.5320   29.4200 N.am  209  GLY209     -0.1954
     74  CA         6.7060   32.5110   30.8770 C.3   209  GLY209      0.1869
     75  C          6.1990   33.8030   31.4800 C.2   209  GLY209      0.2309
     76  O          5.7340   34.6860   30.7480 O.2   209  GLY209     -0.2863
     77  N          7.7390   36.4200   32.9340 N.3   211  GLY211     -0.1210
     78  CA         8.9870   37.1450   33.1330 C.3   211  GLY211      0.1956
     79  C         10.1000   36.1230   33.2280 C.2   211  GLY211      0.2612
     80  O          9.8400   34.9710   33.5890 O.2   211  GLY211     -0.2717
     81  N         11.3260   36.4980   32.8670 N.am  212  CYS212     -0.1970
     82  CA        12.4370   35.5570   32.9130 C.3   212  CYS212      0.1712
     83  C         12.9490   35.4120   34.2960 C.2   212  CYS212      0.2296
     84  O         13.1290   36.4150   34.9900 O.2   212  CYS212     -0.2864
     85  CB        13.5510   35.9790   31.9730 C.3   212  CYS212      0.0983
     86  SG        12.9750   36.5970   30.3830 S.3   212  CYS212     -0.0798
     87  N          8.3590   28.7340   36.0730 N.3   218  PHE218     -0.1227
     88  CA         9.2210   27.9320   35.2020 C.3   218  PHE218      0.1736
     89  C          9.0510   28.3980   33.7770 C.2   218  PHE218      0.2596
     90  O          8.0330   29.0190   33.4370 O.2   218  PHE218     -0.2718
     91  CB         8.8250   26.4430   35.2640 C.3   218  PHE218      0.0547
     92  CG         9.0440   25.7980   36.6100 C.ar  218  PHE218     -0.0202
     93  CD1       10.2690   25.2360   36.9360 C.ar  218  PHE218     -0.0042
     94  CD2        8.0270   25.7620   37.5530 C.ar  218  PHE218     -0.0042
     95  CE1       10.4730   24.6560   38.1870 C.ar  218  PHE218     -0.0003
     96  CE2        8.2300   25.1810   38.7970 C.ar  218  PHE218     -0.0003
     97  CZ         9.4480   24.6200   39.1030 C.ar  218  PHE218     -0.0000
     98  N         10.0350   28.0590   32.9410 N.am  219  GLY219     -0.1942
     99  CA         9.9520   28.3200   31.5200 C.3   219  GLY219      0.2014
    100  C          8.9640   27.3510   30.9140 C.2   219  GLY219      0.2639
    101  O          8.8170   26.2180   31.3910 O.2   219  GLY219     -0.2714
    102  N          8.1980   27.8230   29.9270 N.am  220  VAL220     -0.1963
    103  CA         7.2500   26.9670   29.2290 C.3   220  VAL220      0.1727
    104  C          7.7510   26.7770   27.8070 C.2   220  VAL220      0.2616
    105  O          8.1880   27.7320   27.1610 O.2   220  VAL220     -0.2715
    106  CB         5.7990   27.4640   29.2900 C.3   220  VAL220      0.0290
    107  CG1        4.8540   26.3700   28.8060 C.3   220  VAL220      0.0023
    108  CG2        5.4390   27.9040   30.7110 C.3   220  VAL220      0.0023
    109  N          7.7160   25.5210   27.3440 N.am  221  TYR221     -0.1974
    110  CA         8.2220   25.1020   26.0500 C.3   221  TYR221      0.1639
    111  C          7.1680   24.3810   25.2420 C.2   221  TYR221      0.2290
    112  O          6.4120   23.5890   25.7990 O.2   221  TYR221     -0.2864
    113  CB         9.4200   24.1550   26.2900 C.3   221  TYR221      0.0560
    114  CG        10.5650   24.8470   26.9890 C.ar  221  TYR221     -0.0198
    115  CD1       10.6060   24.9460   28.3810 C.ar  221  TYR221     -0.0009
    116  CD2       11.5950   25.4350   26.2610 C.ar  221  TYR221     -0.0009
    117  CE1       11.5960   25.6870   29.0230 C.ar  221  TYR221      0.0417
    118  CE2       12.6130   26.1460   26.8930 C.ar  221  TYR221      0.0417
    119  CZ        12.6090   26.2720   28.2740 C.ar  221  TYR221      0.1957
    120  OH        13.6020   27.0000   28.8690 O.3   221  TYR221     -0.2866
@<TRIPOS>BOND
     1     1     2    1
     2     3     4    2
     3     3     2    1
     4     2     5    1
     5    43    42    2
     6     5     6    1
     7    42    41    1
     8     6     8   ar
     9     6     7   ar
    10     8    10   ar
    11     7     9   ar
    12    10     9   ar
    13    44    41    1
    14    44    45    1
    15    41    40    1
    16    49    48    2
    17    46    47    1
    18    34    33    2
    19    48    47    1
    20    48    53   am
    21    47    50    1
    22    50    52    1
    23    50    51    1
    24    58    57    1
    25    54    57    1
    26    54    53    1
    27    54    55    1
    28    33    32    1
    29    56    55    2
    30    55    59   am
    31   111   112    2
    32   111   110    1
    33    32    35    1
    34    32    31    1
    35    35    36    1
    36    28    27    2
    37    36    37    1
    38   110   113    1
    39   110   109    1
    40    59    60    1
    41   116   118   ar
    42   116   114   ar
    43   113   114    1
    44    37    38    1
    45    65    67   ar
    46    65    64   ar
    47    31    27   am
    48    27    26    1
    49    63    60    1
    50    63    64    1
    51   118   119   ar
    52   114   115   ar
    53    60    61    1
    54   105   104    2
    55    67    68   ar
    56    64    66   ar
    57   109   104   am
    58   104   103    1
    59    23    24    1
    60    23    20    1
    61    38    39    1
    62    25    26    1
    63    25    21   am
    64    26    29    1
    65   119   120    1
    66   119   117   ar
    67    68    66   ar
    68    68    70   ar
    69   115   117   ar
    70    66    69   ar
    71    29    30    1
    72    61    62    2
    73    61    73   am
    74   107   106    1
    75    20    21    1
    76    20    19    1
    77    21    22    2
    78   103   106    1
    79   103   102    1
    80   106   108    1
    81    70    72   ar
    82    73    74    1
    83    69    71   ar
    84    30    86    1
    85   102   100   am
    86    19    13   am
    87    86    85    1
    88    72    71   ar
    89    76    75    2
    90    74    75    1
    91   100   101    2
    92   100    99    1
    93    14    13    2
    94    13    12    1
    95    99    98    1
    96    17    16   ar
    97    85    82    1
    98    12    15    1
    99    12    11    1
   100    16    15    1
   101    16    18   ar
   102    81    82    1
   103    81    79   am
   104    82    83    1
   105    77    78    1
   106    98    89   am
   107    78    79    1
   108    79    80    2
   109    90    89    2
   110    89    88    1
   111    83    84    2
   112    88    91    1
   113    88    87    1
   114    91    92    1
   115    92    93   ar
   116    92    94   ar
   117    93    95   ar
   118    94    96   ar
   119    95    97   ar
   120    96    97   ar
