@<TRIPOS>MOLECULE
tmp/4x8uA00.pdb
 109 108 0 0 0
SMALL
GASTEIGER

@<TRIPOS>ATOM
      1  N          4.8170   34.0880   17.4540 N.3    41  HIS41      -0.1241
      2  CA         4.5980   35.4340   18.0230 C.3    41  HIS41       0.1621
      3  C          5.6710   36.4530   17.6120 C.2    41  HIS41       0.2264
      4  O          5.3940   37.6530   17.6510 O.2    41  HIS41      -0.2867
      5  CB         4.3720   35.3950   19.5500 C.3    41  HIS41       0.0745
      6  CG         5.6050   35.3760   20.3880 C.ar   41  HIS41       0.0817
      7  ND1        6.0740   34.2000   20.9580 N.ar   41  HIS41      -0.2268
      8  CD2        6.3980   36.4020   20.7800 C.ar   41  HIS41       0.1154
      9  CE1        7.1560   34.5370   21.6330 C.ar   41  HIS41       0.1986
     10  NE2        7.3870   35.8560   21.5570 N.ar   41  HIS41      -0.2212
     11  N         15.7620   31.5790   34.0620 N.3   183  ASP183     -0.1225
     12  CA        14.6720   31.4830   33.0860 C.3   183  ASP183      0.1805
     13  C         15.1310   31.9440   31.7190 C.2   183  ASP183      0.2598
     14  O         16.2130   32.5240   31.5830 O.2   183  ASP183     -0.2718
     15  CB        13.5270   32.4540   33.5310 C.3   183  ASP183      0.1424
     16  CG        12.1430   32.1880   32.9480 C.2   183  ASP183      0.3668
     17  OD1       11.9780   31.1570   32.2150 O.co2 183  ASP183     -0.2456
     18  OD2       11.2150   32.9910   33.2290 O.co2 183  ASP183     -0.2456
     19  N         14.2910   31.7200   30.7060 N.am  184  SER184     -0.1938
     20  CA        14.5840   32.3150   29.4080 C.3   184  SER184      0.2055
     21  C         13.8450   33.6640   29.4730 C.2   184  SER184      0.2643
     22  O         13.0770   33.8970   30.4310 O.2   184  SER184     -0.2714
     23  CB        14.1220   31.4400   28.2470 C.3   184  SER184      0.2130
     24  OG        12.8800   30.8300   28.5320 O.3   184  SER184     -0.2179
     25  N         14.1260   34.5760   28.5290 N.am  185  CYS185     -0.1953
     26  CA        13.5330   35.9160   28.5680 C.3   185  CYS185      0.1843
     27  C         12.9640   36.3360   27.2120 C.2   185  CYS185      0.2625
     28  O         13.1300   35.6270   26.2260 O.2   185  CYS185     -0.2714
     29  CB        14.5420   36.9340   29.1080 C.3   185  CYS185      0.0997
     30  SG        13.8130   38.2570   30.1230 S.3   185  CYS185     -0.0797
     31  N         12.2850   37.5000   27.1990 N.am  186  LYS186     -0.1977
     32  CA        11.6080   38.1580   26.0680 C.3   186  LYS186      0.1596
     33  C         12.3230   37.9360   24.7120 C.2   186  LYS186      0.2287
     34  O         11.7280   37.3380   23.7940 O.2   186  LYS186     -0.2864
     35  CB        11.4930   39.6770   26.3720 C.3   186  LYS186      0.0298
     36  CG        10.6710   40.4740   25.3620 C.3   186  LYS186      0.0038
     37  CD        11.1250   41.9300   25.2990 C.3   186  LYS186      0.0206
     38  CE        11.9670   42.2360   24.0700 C.3   186  LYS186      0.1093
     39  NZ        13.3260   41.6220   24.1210 N.3   186  LYS186     -0.1314
     40  N         12.8400   34.3960   22.7300 N.3   189  SER189     -0.1217
     41  CA        11.6610   33.8430   22.0430 C.3   189  SER189      0.1889
     42  C         12.0470   33.2210   20.7190 C.2   189  SER189      0.2288
     43  O         12.8420   33.7970   19.9750 O.2   189  SER189     -0.2866
     44  CB        10.6370   34.9480   21.7620 C.3   189  SER189      0.2089
     45  OG         9.9400   35.3370   22.9370 O.3   189  SER189     -0.2183
     46  N         11.2660   28.5000   22.8690 N.3   207  VAL207     -0.1231
     47  CA        11.0500   29.5790   23.8710 C.3   207  VAL207      0.1692
     48  C          9.7910   30.3530   23.4490 C.2   207  VAL207      0.2593
     49  O          9.7340   30.8830   22.3370 O.2   207  VAL207     -0.2718
     50  CB        12.2700   30.5210   24.0340 C.3   207  VAL207      0.0266
     51  CG1       11.9650   31.6340   25.0420 C.3   207  VAL207      0.0020
     52  CG2       13.5180   29.7320   24.4440 C.3   207  VAL207      0.0020
     53  N          8.7440   30.2880   24.2810 N.am  208  SER208     -0.1938
     54  CA         7.4600   30.8630   23.9110 C.3   208  SER208      0.2055
     55  C          6.9980   32.0330   24.8000 C.2   208  SER208      0.2643
     56  O          6.9260   33.1460   24.3140 O.2   208  SER208     -0.2714
     57  CB         6.3960   29.7630   23.8440 C.3   208  SER208      0.2130
     58  OG         5.1180   30.2830   23.5100 O.3   208  SER208     -0.2179
     59  N          6.6440   31.7840   26.0650 N.am  209  TRP209     -0.1959
     60  CA         6.1230   32.8420   26.9390 C.3   209  TRP209      0.1771
     61  C          6.3280   32.5480   28.4310 C.2   209  TRP209      0.2620
     62  O          6.7990   31.4780   28.8040 O.2   209  TRP209     -0.2715
     63  CB         4.6280   33.1280   26.6250 C.3   209  TRP209      0.0590
     64  CG         3.7120   31.9790   26.9330 C.ar  209  TRP209      0.0006
     65  CD1        3.4510   30.9050   26.1350 C.ar  209  TRP209      0.0946
     66  CD2        2.9020   31.8150   28.1070 C.ar  209  TRP209      0.0152
     67  NE1        2.5500   30.0670   26.7500 N.ar  209  TRP209     -0.2442
     68  CE2        2.1870   30.6070   27.9580 C.ar  209  TRP209      0.0810
     69  CE3        2.7330   32.5590   29.2910 C.ar  209  TRP209      0.0012
     70  CZ2        1.3050   30.1260   28.9460 C.ar  209  TRP209      0.0191
     71  CZ3        1.8940   32.0630   30.2810 C.ar  209  TRP209      0.0001
     72  CH2        1.1870   30.8650   30.1020 C.ar  209  TRP209      0.0015
     73  N          5.9870   33.5370   29.2500 N.am  210  GLY210     -0.1954
     74  CA         6.0460   33.4980   30.7060 C.3   210  GLY210      0.1869
     75  C          5.5680   34.8120   31.3060 C.2   210  GLY210      0.2309
     76  O          5.3970   35.7970   30.5790 O.2   210  GLY210     -0.2863
     77  N          6.6020   37.8110   32.9230 N.3   212  GLY212     -0.1210
     78  CA         7.8860   38.4950   33.0490 C.3   212  GLY212      0.1956
     79  C          9.0110   37.5090   32.7660 C.2   212  GLY212      0.2612
     80  O          8.8090   36.5450   32.0080 O.2   212  GLY212     -0.2717
     81  N         10.1860   37.7260   33.3880 N.am  213  CYS213     -0.1970
     82  CA        11.3790   36.8690   33.2520 C.3   213  CYS213      0.1712
     83  C         11.8240   36.5070   34.6530 C.2   213  CYS213      0.2296
     84  O         12.0430   37.4220   35.4550 O.2   213  CYS213     -0.2864
     85  CB        12.5070   37.5770   32.4970 C.3   213  CYS213      0.0983
     86  SG        11.9870   38.4360   30.9920 S.3   213  CYS213     -0.0798
     87  N          9.0350   29.0070   32.8720 N.3   220  GLY220     -0.1210
     88  CA         9.0010   29.3200   31.4450 C.3   220  GLY220      0.1956
     89  C          8.0270   28.3820   30.7500 C.2   220  GLY220      0.2612
     90  O          7.8220   27.2660   31.2210 O.2   220  GLY220     -0.2717
     91  N          7.3380   28.8530   29.6990 N.am  221  VAL221     -0.1965
     92  CA         6.4020   28.0360   28.9240 C.3   221  VAL221      0.1727
     93  C          7.0030   27.9130   27.5060 C.2   221  VAL221      0.2616
     94  O          7.4340   28.9140   26.8990 O.2   221  VAL221     -0.2715
     95  CB         4.9320   28.5240   28.9290 C.3   221  VAL221      0.0290
     96  CG1        3.9990   27.4540   28.3400 C.3   221  VAL221      0.0023
     97  CG2        4.4760   28.8610   30.3430 C.3   221  VAL221      0.0023
     98  N          7.0900   26.6570   27.0310 N.am  222  TYR222     -0.1974
     99  CA         7.7270   26.2710   25.7690 C.3   222  TYR222      0.1639
    100  C          6.7180   25.6000   24.8440 C.2   222  TYR222      0.2290
    101  O          5.8470   24.8820   25.3170 O.2   222  TYR222     -0.2864
    102  CB         8.9030   25.3080   26.0800 C.3   222  TYR222      0.0560
    103  CG         9.9860   25.9810   26.9000 C.ar  222  TYR222     -0.0198
    104  CD1        9.9020   26.0370   28.2950 C.ar  222  TYR222     -0.0009
    105  CD2       11.0110   26.6840   26.2830 C.ar  222  TYR222     -0.0009
    106  CE1       10.8220   26.7730   29.0460 C.ar  222  TYR222      0.0417
    107  CE2       11.9420   27.4070   27.0210 C.ar  222  TYR222      0.0417
    108  CZ        11.8390   27.4620   28.4010 C.ar  222  TYR222      0.1957
    109  OH        12.7840   28.1850   29.1010 O.3   222  TYR222     -0.2866
@<TRIPOS>BOND
     1     1     2    1
     2     3     4    2
     3     3     2    1
     4     2     5    1
     5     5     6    1
     6    43    42    2
     7     6     8   ar
     8     6     7   ar
     9    42    41    1
    10     8    10   ar
    11     7     9   ar
    12    10     9   ar
    13    44    41    1
    14    44    45    1
    15    41    40    1
    16    49    48    2
    17    46    47    1
    18    48    47    1
    19    48    53   am
    20    58    57    1
    21    34    33    2
    22    57    54    1
    23    47    50    1
    24    54    53    1
    25    54    55    1
    26    50    52    1
    27    50    51    1
    28    38    39    1
    29    38    37    1
    30    56    55    2
    31    33    32    1
    32    55    59   am
    33   100   101    2
    34   100    99    1
    35    37    36    1
    36    36    35    1
    37    99   102    1
    38    99    98    1
    39    59    60    1
    40    32    35    1
    41    32    31    1
    42   102   103    1
    43    65    67   ar
    44    65    64   ar
    45    28    27    2
    46   105   103   ar
    47   105   107   ar
    48    63    64    1
    49    63    60    1
    50    67    68   ar
    51    94    93    2
    52   103   104   ar
    53    64    66   ar
    54    60    61    1
    55   107   108   ar
    56    98    93   am
    57    31    27   am
    58    27    26    1
    59    93    92    1
    60    68    66   ar
    61    68    70   ar
    62    66    69   ar
    63    23    24    1
    64    23    20    1
    65   104   106   ar
    66    96    95    1
    67   108   106   ar
    68   108   109    1
    69    61    62    2
    70    61    73   am
    71    25    26    1
    72    25    21   am
    73    26    29    1
    74    92    95    1
    75    92    91    1
    76    95    97    1
    77    70    72   ar
    78    29    30    1
    79    73    74    1
    80    69    71   ar
    81    20    21    1
    82    20    19    1
    83    21    22    2
    84    91    89   am
    85    72    71   ar
    86    30    86    1
    87    76    75    2
    88    19    13   am
    89    74    75    1
    90    89    90    2
    91    89    88    1
    92    86    85    1
    93    88    87    1
    94    14    13    2
    95    13    12    1
    96    80    79    2
    97    17    16   ar
    98    85    82    1
    99    79    78    1
   100    79    81   am
   101    77    78    1
   102    16    18   ar
   103    16    15    1
   104    12    15    1
   105    12    11    1
   106    82    81    1
   107    82    83    1
   108    83    84    2
