@<TRIPOS>MOLECULE
tmp/4x8vA00.pdb
 199 197 0 0 0
SMALL
GASTEIGER

@<TRIPOS>ATOM
      1  N         15.5090   40.4330   16.6660 N.3    25  LEU25      -0.1231
      2  CA        14.0940   40.1040   16.7120 C.3    25  LEU25       0.1693
      3  C         13.8100   38.9410   17.6570 C.2    25  LEU25       0.2592
      4  O         13.0190   39.0750   18.5900 O.2    25  LEU25      -0.2718
      5  CB        13.5380   39.8120   15.2870 C.3    25  LEU25       0.0284
      6  CG        12.0560   39.4120   15.1970 C.3    25  LEU25       0.0019
      7  CD1       11.1250   40.6050   15.5230 C.3    25  LEU25       0.0001
      8  CD2       11.7210   38.7770   13.8320 C.3    25  LEU25       0.0001
      9  N         14.4300   37.7980   17.3830 N.am   26  CYS26      -0.1970
     10  CA        14.1690   36.5190   18.0440 C.3    26  CYS26       0.1712
     11  C         15.3110   35.5750   17.8160 C.2    26  CYS26       0.2296
     12  O         16.2050   35.8500   17.0140 O.2    26  CYS26      -0.2864
     13  CB        12.8810   35.9170   17.4700 C.3    26  CYS26       0.0983
     14  SG        11.3770   36.4620   18.3120 S.3    26  CYS26      -0.0798
     15  N          4.7720   34.0100   17.5280 N.3    41  HIS41      -0.1226
     16  CA         4.5940   35.3260   18.1380 C.3    41  HIS41       0.1752
     17  C          5.6930   36.3400   17.7510 C.2    41  HIS41       0.2596
     18  O          5.4420   37.5360   17.7860 O.2    41  HIS41      -0.2718
     19  CB         4.3860   35.2070   19.6510 C.3    41  HIS41       0.0759
     20  CG         5.6070   35.2440   20.5090 C.ar   41  HIS41       0.0818
     21  ND1        6.1510   34.0840   21.0340 N.ar   41  HIS41      -0.2268
     22  CD2        6.2730   36.3020   21.0170 C.ar   41  HIS41       0.1154
     23  CE1        7.1600   34.4660   21.7900 C.ar   41  HIS41       0.1986
     24  NE2        7.2830   35.7870   21.8030 N.ar   41  HIS41      -0.2212
     25  N          6.8610   35.8530   17.2970 N.am   42  CYS42      -0.1970
     26  CA         7.9860   36.6460   16.8010 C.3    42  CYS42       0.1712
     27  C          7.6140   37.4750   15.5790 C.2    42  CYS42       0.2296
     28  O          8.2950   38.4530   15.2820 O.2    42  CYS42      -0.2864
     29  CB         9.1610   35.7310   16.4670 C.3    42  CYS42       0.0983
     30  SG        10.0050   35.0440   17.9050 S.3    42  CYS42      -0.0798
     31  N          4.3810   38.7120   14.8500 N.3    44  ASP44      -0.1225
     32  CA         3.1160   39.4350   15.0620 C.3    44  ASP44       0.1805
     33  C          3.1230   40.9150   14.5850 C.2    44  ASP44       0.2597
     34  O          2.1270   41.3970   14.0510 O.2    44  ASP44      -0.2718
     35  CB         2.6610   39.3520   16.5460 C.3    44  ASP44       0.1424
     36  CG         1.8450   38.1300   16.9090 C.2    44  ASP44       0.3668
     37  OD1        1.8690   37.1540   16.1390 O.co2  44  ASP44      -0.2456
     38  OD2        1.2040   38.1380   17.9840 O.co2  44  ASP44      -0.2456
     39  N          4.2180   41.6210   14.8020 N.am   45  LYS45      -0.1979
     40  CA         4.3110   43.0450   14.4750 C.3    45  LYS45       0.1596
     41  C          5.1170   43.3170   13.2000 C.2    45  LYS45       0.2287
     42  O          5.4940   44.4650   12.9600 O.2    45  LYS45      -0.2864
     43  CB         4.9050   43.8310   15.6720 C.3    45  LYS45       0.0298
     44  CG         4.2470   43.5530   17.0220 C.3    45  LYS45       0.0038
     45  CD         4.9710   44.3460   18.1080 C.3    45  LYS45       0.0206
     46  CE         4.4760   44.1140   19.5190 C.3    45  LYS45       0.1093
     47  NZ         5.2650   44.9080   20.5090 N.3    45  LYS45      -0.1314
     48  N         -1.3800   37.6770   19.2370 N.3    85  GLY85      -0.1210
     49  CA        -1.6770   38.2630   20.5400 C.3    85  GLY85       0.1956
     50  C         -2.0210   37.2540   21.6110 C.2    85  GLY85       0.2613
     51  O         -2.3060   37.6350   22.7530 O.2    85  GLY85      -0.2717
     52  N         -2.0100   35.9390   21.2420 N.am   86  THR86      -0.1938
     53  CA        -2.2870   34.8160   22.1590 C.3    86  THR86       0.2028
     54  C         -1.0550   33.9050   22.2620 C.2    86  THR86       0.2642
     55  O         -0.0310   34.1610   21.6120 O.2    86  THR86      -0.2714
     56  CB        -3.5990   34.1030   21.8110 C.3    86  THR86       0.1808
     57  OG1       -3.4560   33.4080   20.5780 O.3    86  THR86      -0.2208
     58  CG2       -4.8000   35.0570   21.7480 C.3    86  THR86       0.0379
     59  N         -1.1460   32.8610   23.1040 N.am   87  THR87      -0.1950
     60  CA        -0.0460   31.9400   23.4560 C.3    87  THR87       0.1897
     61  C         -0.0270   30.5730   22.7830 C.2    87  THR87       0.2313
     62  O          1.0510   30.0030   22.6380 O.2    87  THR87      -0.2863
     63  CB        -0.0290   31.7150   25.0050 C.3    87  THR87       0.1794
     64  OG1       -1.3140   31.2490   25.4340 O.3    87  THR87      -0.2208
     65  CG2        0.3430   32.9720   25.7730 C.3    87  THR87       0.0378
     66  N          2.3500   28.1920   19.2960 N.3    90  ASP90      -0.1239
     67  CA         3.4550   29.1300   19.0890 C.3    90  ASP90       0.1674
     68  C          4.6570   28.5440   18.3700 C.2    90  ASP90       0.2266
     69  O          5.7050   28.3110   18.9790 O.2    90  ASP90      -0.2867
     70  CB         3.8720   29.7830   20.4060 C.3    90  ASP90       0.1410
     71  CG         4.6170   31.0820   20.2180 C.2    90  ASP90       0.3668
     72  OD1        4.5980   31.6350   19.0620 O.co2  90  ASP90      -0.2456
     73  OD2        5.2040   31.5650   21.2060 O.co2  90  ASP90      -0.2456
     74  N         -2.6160   32.8200   31.0110 N.3   169  PRO169     -0.2116
     75  CA        -3.0930   31.7710   30.0990 C.3   169  PRO169      0.1372
     76  C         -2.9310   30.3500   30.6330 C.2   169  PRO169      0.2244
     77  O         -2.0890   30.0910   31.5000 O.2   169  PRO169     -0.2868
     78  CB        -2.2810   32.0120   28.8230 C.3   169  PRO169      0.0268
     79  CG        -1.9040   33.4440   28.8840 C.3   169  PRO169      0.0207
     80  CD        -1.6350   33.6940   30.3360 C.3   169  PRO169      0.0892
     81  N         16.0610   31.7140   34.1310 N.3   186  ASP186     -0.1225
     82  CA        14.9640   31.6140   33.1660 C.3   186  ASP186      0.1805
     83  C         15.4280   31.9860   31.7740 C.2   186  ASP186      0.2598
     84  O         16.5730   32.4190   31.5740 O.2   186  ASP186     -0.2718
     85  CB        13.8150   32.5890   33.5470 C.3   186  ASP186      0.1424
     86  CG        12.3850   32.0770   33.3670 C.2   186  ASP186      0.3668
     87  OD1       12.1720   31.1320   32.5440 O.co2 186  ASP186     -0.2456
     88  OD2       11.4750   32.6300   34.0240 O.co2 186  ASP186     -0.2456
     89  N         14.5130   31.8250   30.8100 N.am  187  SER187     -0.1938
     90  CA        14.6740   32.3240   29.4580 C.3   187  SER187      0.2055
     91  C         13.8840   33.6650   29.4930 C.2   187  SER187      0.2643
     92  O         13.2110   33.9500   30.4950 O.2   187  SER187     -0.2714
     93  CB        14.1200   31.3420   28.4250 C.3   187  SER187      0.2130
     94  OG        12.7870   30.9630   28.7170 O.3   187  SER187     -0.2179
     95  N         14.0160   34.5110   28.4680 N.am  188  CYS188     -0.1953
     96  CA        13.2960   35.7770   28.4810 C.3   188  CYS188      0.1843
     97  C         12.7000   36.0730   27.1280 C.2   188  CYS188      0.2625
     98  O         12.9380   35.3120   26.1810 O.2   188  CYS188     -0.2714
     99  CB        14.1830   36.9150   28.9850 C.3   188  CYS188      0.0997
    100  SG        13.2700   38.4110   29.5000 S.3   188  CYS188     -0.0797
    101  N         11.9360   37.1840   27.0200 N.am  189  LYS189     -0.1977
    102  CA        11.2810   37.5830   25.7830 C.3   189  LYS189      0.1596
    103  C         12.2010   37.6350   24.5770 C.2   189  LYS189      0.2287
    104  O         11.7590   37.2750   23.5010 O.2   189  LYS189     -0.2864
    105  CB        10.4970   38.8920   25.9430 C.3   189  LYS189      0.0298
    106  CG        11.2960   40.1490   26.2210 C.3   189  LYS189      0.0038
    107  CD        10.3670   41.2980   26.5600 C.3   189  LYS189      0.0206
    108  CE        11.1260   42.5910   26.7210 C.3   189  LYS189      0.1093
    109  NZ        10.2840   43.6450   27.3340 N.3   189  LYS189     -0.1314
    110  N         12.8990   34.3680   22.8000 N.3   192  SER192     -0.1217
    111  CA        11.7060   33.8650   22.0920 C.3   192  SER192      0.1889
    112  C         12.0790   33.2270   20.7700 C.2   192  SER192      0.2288
    113  O         12.9320   33.7610   20.0490 O.2   192  SER192     -0.2866
    114  CB        10.7050   34.9900   21.8260 C.3   192  SER192      0.2089
    115  OG         9.9700   35.3110   22.9980 O.3   192  SER192     -0.2183
    116  N         11.2000   28.5260   22.9890 N.3   210  VAL210     -0.1231
    117  CA        11.0330   29.6230   23.9780 C.3   210  VAL210      0.1692
    118  C          9.8040   30.3970   23.5230 C.2   210  VAL210      0.2593
    119  O          9.8250   30.9850   22.4450 O.2   210  VAL210     -0.2718
    120  CB        12.3110   30.5200   24.1010 C.3   210  VAL210      0.0266
    121  CG1       12.1450   31.5870   25.1720 C.3   210  VAL210      0.0020
    122  CG2       13.5550   29.6830   24.3870 C.3   210  VAL210      0.0020
    123  N          8.7060   30.2960   24.2910 N.am  211  SER211     -0.1938
    124  CA         7.3950   30.8630   23.9460 C.3   211  SER211      0.2055
    125  C          6.9170   32.0200   24.8500 C.2   211  SER211      0.2643
    126  O          6.8470   33.1450   24.3760 O.2   211  SER211     -0.2714
    127  CB         6.3550   29.7460   23.9030 C.3   211  SER211      0.2130
    128  OG         5.0700   30.2210   23.5450 O.3   211  SER211     -0.2179
    129  N          6.5590   31.7570   26.1250 N.am  212  TRP212     -0.1959
    130  CA         6.0370   32.8030   27.0150 C.3   212  TRP212      0.1771
    131  C          6.1850   32.5100   28.5160 C.2   212  TRP212      0.2620
    132  O          6.6340   31.4420   28.8980 O.2   212  TRP212     -0.2715
    133  CB         4.5470   33.0440   26.6980 C.3   212  TRP212      0.0590
    134  CG         3.6510   31.8880   26.9970 C.ar  212  TRP212      0.0006
    135  CD1        3.4790   30.7700   26.2400 C.ar  212  TRP212      0.0946
    136  CD2        2.8110   31.7320   28.1480 C.ar  212  TRP212      0.0152
    137  NE1        2.5990   29.9110   26.8560 N.ar  212  TRP212     -0.2442
    138  CE2        2.1430   30.4950   28.0140 C.ar  212  TRP212      0.0810
    139  CE3        2.5460   32.5250   29.2800 C.ar  212  TRP212      0.0012
    140  CZ2        1.2650   30.0090   28.9930 C.ar  212  TRP212      0.0191
    141  CZ3        1.6700   32.0490   30.2400 C.ar  212  TRP212      0.0001
    142  CH2        1.0390   30.8050   30.0890 C.ar  212  TRP212      0.0015
    143  N          5.7310   33.4510   29.3370 N.am  213  GLY213     -0.1940
    144  CA         5.7140   33.3590   30.7900 C.3   213  GLY213      0.2014
    145  C          5.0390   34.5560   31.4300 C.2   213  GLY213      0.2639
    146  O          4.3680   35.3380   30.7410 O.2   213  GLY213     -0.2714
    147  N          5.2500   34.7240   32.7610 N.am  214  GLN214     -0.1963
    148  CA         4.6550   35.7760   33.6040 C.3   214  GLN214      0.1733
    149  C          5.7300   36.7520   34.1250 C.2   214  GLN214      0.2617
    150  O          5.6950   37.1700   35.2860 O.2   214  GLN214     -0.2715
    151  CB         3.9220   35.1100   34.7750 C.3   214  GLN214      0.0408
    152  CG         2.8330   34.1450   34.3310 C.3   214  GLN214      0.0908
    153  CD         1.4650   34.6960   34.6080 C.2   214  GLN214      0.2608
    154  OE1        0.8320   34.3440   35.6120 O.2   214  GLN214     -0.2717
    155  NE2        0.9890   35.5850   33.7370 N.am  214  GLN214     -0.0878
    156  N          6.6530   37.1150   33.2470 N.am  215  GLY215     -0.1940
    157  CA         7.7920   37.9660   33.5440 C.3   215  GLY215      0.2014
    158  C          8.9890   37.0540   33.6630 C.2   215  GLY215      0.2639
    159  O          8.8550   35.9320   34.1670 O.2   215  GLY215     -0.2714
    160  N         10.1460   37.5000   33.1740 N.am  216  CYS216     -0.1967
    161  CA        11.3800   36.7320   33.1870 C.3   216  CYS216      0.1712
    162  C         11.9140   36.5860   34.5880 C.2   216  CYS216      0.2296
    163  O         12.0570   37.5810   35.3020 O.2   216  CYS216     -0.2864
    164  CB        12.3950   37.3620   32.2480 C.3   216  CYS216      0.0983
    165  SG        11.6900   37.8120   30.6450 S.3   216  CYS216     -0.0798
    166  N          7.2410   29.5530   36.1930 N.3   222  PHE222     -0.1227
    167  CA         8.1700   28.8770   35.2820 C.3   222  PHE222      0.1736
    168  C          8.0240   29.4430   33.8630 C.2   222  PHE222      0.2596
    169  O          7.0620   30.1620   33.5800 O.2   222  PHE222     -0.2718
    170  CB         7.8960   27.3620   35.2570 C.3   222  PHE222      0.0547
    171  CG         8.0640   26.6570   36.5820 C.ar  222  PHE222     -0.0202
    172  CD1        9.2940   26.1250   36.9540 C.ar  222  PHE222     -0.0042
    173  CD2        6.9830   26.4950   37.4450 C.ar  222  PHE222     -0.0042
    174  CE1        9.4520   25.4880   38.1840 C.ar  222  PHE222     -0.0003
    175  CE2        7.1410   25.8540   38.6740 C.ar  222  PHE222     -0.0003
    176  CZ         8.3770   25.3630   39.0400 C.ar  222  PHE222     -0.0000
    177  N          8.9900   29.1180   33.0010 N.am  223  GLY223     -0.1942
    178  CA         8.9810   29.4620   31.5840 C.3   223  GLY223      0.2014
    179  C          8.1170   28.4600   30.8490 C.2   223  GLY223      0.2639
    180  O          8.0490   27.2950   31.2540 O.2   223  GLY223     -0.2714
    181  N          7.3820   28.9150   29.8280 N.am  224  VAL224     -0.1963
    182  CA         6.4890   28.0660   29.0480 C.3   224  VAL224      0.1727
    183  C          7.0590   27.9560   27.6240 C.2   224  VAL224      0.2616
    184  O          7.5000   28.9580   27.0310 O.2   224  VAL224     -0.2715
    185  CB         4.9790   28.4930   29.1260 C.3   224  VAL224      0.0290
    186  CG1        4.0620   27.3850   28.6240 C.3   224  VAL224      0.0023
    187  CG2        4.5700   28.8780   30.5560 C.3   224  VAL224      0.0023
    188  N          7.1190   26.7030   27.1220 N.am  225  TYR225     -0.1974
    189  CA         7.7080   26.2860   25.8500 C.3   225  TYR225      0.1639
    190  C          6.7240   25.5430   24.9840 C.2   225  TYR225      0.2290
    191  O          5.9130   24.7710   25.4960 O.2   225  TYR225     -0.2864
    192  CB         8.9340   25.3860   26.1100 C.3   225  TYR225      0.0560
    193  CG        10.0090   26.0700   26.9290 C.ar  225  TYR225     -0.0198
    194  CD1        9.9210   26.1370   28.3230 C.ar  225  TYR225     -0.0009
    195  CD2       11.0940   26.6820   26.3150 C.ar  225  TYR225     -0.0009
    196  CE1       10.8730   26.8220   29.0770 C.ar  225  TYR225      0.0417
    197  CE2       12.0680   27.3430   27.0600 C.ar  225  TYR225      0.0417
    198  CZ        11.9490   27.4240   28.4400 C.ar  225  TYR225      0.1957
    199  OH        12.9050   28.0940   29.1710 O.3   225  TYR225     -0.2866
@<TRIPOS>BOND
     1    42    41    2
     2    41    40    1
     3     8     6    1
     4    34    33    2
     5    40    39    1
     6    40    43    1
     7    33    39   am
     8    33    32    1
     9    31    32    1
    10    32    35    1
    11     6     5    1
    12     6     7    1
    13    28    27    2
    14     5     2    1
    15    27    26    1
    16    43    44    1
    17    37    36   ar
    18    29    26    1
    19    29    30    1
    20    35    36    1
    21     1     2    1
    22     2     3    1
    23    26    25    1
    24    36    38   ar
    25    12    11    2
    26    44    45    1
    27    25    17   am
    28     9     3   am
    29     9    10    1
    30    13    10    1
    31    13    14    1
    32    15    16    1
    33     3     4    2
    34    17    18    2
    35    17    16    1
    36    11    10    1
    37    30    14    1
    38    45    46    1
    39    16    19    1
    40    68    69    2
    41    68    67    1
    42    72    71   ar
    43    67    66    1
    44    67    70    1
    45    48    49    1
    46    46    47    1
    47    19    20    1
    48   113   112    2
    49    71    70    1
    50    71    73   ar
    51    20    22   ar
    52    20    21   ar
    53    49    50    1
    54    57    56    1
    55   112   111    1
    56    22    24   ar
    57    21    23   ar
    58    52    50   am
    59    52    53    1
    60    50    51    2
    61    55    54    2
    62    58    56    1
    63    23    24   ar
    64    56    53    1
    65   114   111    1
    66   114   115    1
    67   111   110    1
    68    53    54    1
    69    54    59   am
    70   119   118    2
    71    62    61    2
    72    61    60    1
    73   116   117    1
    74    59    60    1
    75    60    63    1
    76   104   103    2
    77   118   117    1
    78   118   123   am
    79   128   127    1
    80   127   124    1
    81   124   123    1
    82   124   125    1
    83   117   120    1
    84   120   122    1
    85   120   121    1
    86   126   125    2
    87   103   102    1
    88   125   129   am
    89   190   191    2
    90   190   189    1
    91    63    64    1
    92    63    65    1
    93   102   105    1
    94   102   101    1
    95   189   192    1
    96   189   188    1
    97   105   106    1
    98   192   193    1
    99   129   130    1
   100    98    97    2
   101   106   107    1
   102   135   137   ar
   103   135   134   ar
   104   195   193   ar
   105   195   197   ar
   106   107   108    1
   107   133   134    1
   108   133   130    1
   109   108   109    1
   110   137   138   ar
   111   193   194   ar
   112   134   136   ar
   113   130   131    1
   114   101    97   am
   115   184   183    2
   116   197   198   ar
   117   188   183   am
   118    97    96    1
   119   183   182    1
   120   138   136   ar
   121   138   140   ar
   122   136   139   ar
   123   194   196   ar
   124    93    94    1
   125    93    90    1
   126   198   196   ar
   127   198   199    1
   128    95    96    1
   129    95    91   am
   130    96    99    1
   131   131   132    2
   132   131   143   am
   133   186   185    1
   134    78    79    1
   135    78    75    1
   136    79    80    1
   137    99   100    1
   138   140   142   ar
   139   182   185    1
   140   182   181    1
   141   185   187    1
   142   139   141   ar
   143   143   144    1
   144    90    91    1
   145    90    89    1
   146    91    92    2
   147   100   165    1
   148   181   179   am
   149   142   141   ar
   150    75    76    1
   151    75    74    1
   152    80    74    1
   153    76    77    2
   154   165   164    1
   155   146   145    2
   156   144   145    1
   157    89    83   am
   158   179   180    2
   159   179   178    1
   160   145   147   am
   161    84    83    2
   162   178   177    1
   163    83    82    1
   164   164   161    1
   165    87    86   ar
   166   147   148    1
   167   177   168   am
   168    82    85    1
   169    82    81    1
   170   160   161    1
   171   160   158   am
   172   161   162    1
   173   156   157    1
   174   156   149   am
   175    86    85    1
   176    86    88   ar
   177   157   158    1
   178   169   168    2
   179   148   149    1
   180   148   151    1
   181   158   159    2
   182   155   153   am
   183   168   167    1
   184   149   150    2
   185   152   153    1
   186   152   151    1
   187   162   163    2
   188   153   154    2
   189   170   167    1
   190   170   171    1
   191   167   166    1
   192   171   172   ar
   193   171   173   ar
   194   172   174   ar
   195   173   175   ar
   196   174   176   ar
   197   175   176   ar
