@<TRIPOS>MOLECULE
tmp/4x8yA00.pdb
 146 146 0 0 0
SMALL
GASTEIGER

@<TRIPOS>ATOM
      1  N         52.7090  -20.5240   70.7030 N.3    24  MET24      -0.1245
      2  CA        52.2900  -20.9000   69.3540 C.3    24  MET24       0.1570
      3  C         53.5530  -21.0990   68.5070 C.2    24  MET24       0.2261
      4  O         54.4550  -20.2680   68.5770 O.2    24  MET24      -0.2867
      5  CB        51.4250  -19.7730   68.7780 C.3    24  MET24       0.0387
      6  CG        50.6580  -20.0450   67.5330 C.3    24  MET24       0.0595
      7  SD        49.7300  -18.5230   67.2140 S.3    24  MET24      -0.1393
      8  CE        49.7210  -18.5930   65.4290 C.3    24  MET24       0.0692
      9  N         43.3480  -11.5580   72.0560 N.3    38  LYS38      -0.1231
     10  CA        42.1780  -11.2000   71.2500 C.3    38  LYS38       0.1693
     11  C         42.0920  -12.0870   70.0030 C.2    38  LYS38       0.2592
     12  O         41.0070  -12.3170   69.4660 O.2    38  LYS38      -0.2718
     13  CB        42.2110   -9.7260   70.8320 C.3    38  LYS38       0.0285
     14  CG        43.4030   -9.3490   69.9680 C.3    38  LYS38       0.0035
     15  CD        43.3610   -7.8900   69.5230 C.3    38  LYS38       0.0206
     16  CE        42.3300   -7.6700   68.4240 C.3    38  LYS38       0.1093
     17  NZ        42.4620   -6.3210   67.8050 N.3    38  LYS38      -0.1314
     18  N         43.2420  -12.5550   69.5340 N.am   39  PHE39      -0.1962
     19  CA        43.2980  -13.4730   68.3990 C.3    39  PHE39       0.1771
     20  C         43.2790  -14.9400   68.8150 C.2    39  PHE39       0.2619
     21  O         42.6020  -15.7540   68.1830 O.2    39  PHE39      -0.2715
     22  CB        44.5510  -13.2210   67.5540 C.3    39  PHE39       0.0574
     23  CG        44.6140  -11.8420   66.9570 C.ar   39  PHE39      -0.0200
     24  CD1       43.6730  -11.4300   66.0200 C.ar   39  PHE39      -0.0042
     25  CD2       45.6090  -10.9520   67.3380 C.ar   39  PHE39      -0.0042
     26  CE1       43.7180  -10.1400   65.4770 C.ar   39  PHE39      -0.0003
     27  CE2       45.6690   -9.6660   66.7920 C.ar   39  PHE39      -0.0003
     28  CZ        44.7200   -9.2630   65.8620 C.ar   39  PHE39      -0.0000
     29  N         44.0240  -15.2810   69.8660 N.am   40  TYR40      -0.1974
     30  CA        44.3640  -16.6840   70.1110 C.3    40  TYR40       0.1639
     31  C         43.6930  -17.2550   71.3550 C.2    40  TYR40       0.2290
     32  O         43.8240  -18.4420   71.6290 O.2    40  TYR40      -0.2864
     33  CB        45.8890  -16.8550   70.2080 C.3    40  TYR40       0.0560
     34  CG        46.5890  -16.2790   69.0140 C.ar   40  TYR40      -0.0198
     35  CD1       46.3730  -16.8080   67.7450 C.ar   40  TYR40      -0.0009
     36  CD2       47.4380  -15.1850   69.1360 C.ar   40  TYR40      -0.0009
     37  CE1       46.9690  -16.2670   66.6420 C.ar   40  TYR40       0.0417
     38  CE2       48.0490  -14.6360   68.0280 C.ar   40  TYR40       0.0417
     39  CZ        47.8070  -15.1890   66.7790 C.ar   40  TYR40       0.1957
     40  OH        48.3980  -14.6630   65.6610 O.3    40  TYR40      -0.2866
     41  N         41.2960  -17.0690   65.9410 N.3    46  TYR46      -0.1241
     42  CA        42.4050  -17.9520   65.5930 C.3    46  TYR46       0.1605
     43  C         42.7830  -18.8040   66.8080 C.2    46  TYR46       0.2264
     44  O         43.9120  -19.2920   66.9170 O.2    46  TYR46      -0.2867
     45  CB        43.6120  -17.1370   65.0780 C.3    46  TYR46       0.0534
     46  CG        43.1960  -16.1390   64.0110 C.ar   46  TYR46      -0.0201
     47  CD1       42.4080  -16.5390   62.9370 C.ar   46  TYR46      -0.0009
     48  CD2       43.5290  -14.7930   64.1140 C.ar   46  TYR46      -0.0009
     49  CE1       41.9980  -15.6330   61.9700 C.ar   46  TYR46       0.0417
     50  CE2       43.1190  -13.8740   63.1540 C.ar   46  TYR46       0.0417
     51  CZ        42.3470  -14.3030   62.0950 C.ar   46  TYR46       0.1957
     52  OH        41.9290  -13.4190   61.1520 O.3    46  TYR46      -0.2866
     53  N         44.8800  -22.2110   67.0440 N.3    49  PHE49      -0.1241
     54  CA        46.3460  -22.3220   67.0510 C.3    49  PHE49       0.1605
     55  C         46.9690  -22.2350   68.4440 C.2    49  PHE49       0.2264
     56  O         48.1610  -22.4340   68.5970 O.2    49  PHE49      -0.2867
     57  CB        46.9740  -21.2360   66.1790 C.3    49  PHE49       0.0534
     58  CG        46.6340  -21.3640   64.7230 C.ar   49  PHE49      -0.0203
     59  CD1       46.6330  -22.6040   64.1060 C.ar   49  PHE49      -0.0042
     60  CD2       46.2890  -20.2550   63.9890 C.ar   49  PHE49      -0.0042
     61  CE1       46.3170  -22.7270   62.7500 C.ar   49  PHE49      -0.0003
     62  CE2       45.9770  -20.3650   62.6290 C.ar   49  PHE49      -0.0003
     63  CZ        45.9820  -21.5980   62.0230 C.ar   49  PHE49      -0.0000
     64  N         48.5190  -24.8130   59.1820 N.3    57  GLY57      -0.1210
     65  CA        47.3320  -23.9700   59.0330 C.3    57  GLY57       0.1956
     66  C         47.6390  -22.6070   58.4170 C.2    57  GLY57       0.2611
     67  O         46.9290  -22.1430   57.5100 O.2    57  GLY57      -0.2717
     68  N         48.6840  -21.9460   58.9160 N.am   58  LEU58      -0.1979
     69  CA        49.1170  -20.6740   58.3310 C.3    58  LEU58       0.1596
     70  C         49.5950  -20.8100   56.8860 C.2    58  LEU58       0.2287
     71  O         49.2870  -19.9560   56.0230 O.2    58  LEU58      -0.2864
     72  CB        50.2240  -20.0460   59.2020 C.3    58  LEU58       0.0297
     73  CG        49.7150  -19.6900   60.6110 C.3    58  LEU58       0.0022
     74  CD1       50.8950  -19.2900   61.5010 C.3    58  LEU58       0.0001
     75  CD2       48.7100  -18.5590   60.5310 C.3    58  LEU58       0.0001
     76  N         46.6250  -21.5510   54.5890 N.3    61  PHE61      -0.1227
     77  CA        45.4490  -20.7340   54.9230 C.3    61  PHE61       0.1736
     78  C         44.2500  -21.5990   55.2800 C.2    61  PHE61       0.2596
     79  O         43.2330  -21.5950   54.5690 O.2    61  PHE61      -0.2718
     80  CB        45.0760  -19.7800   53.7660 C.3    61  PHE61       0.0547
     81  CG        46.0710  -18.6690   53.5560 C.ar   61  PHE61      -0.0202
     82  CD1       46.1590  -17.6200   54.4520 C.ar   61  PHE61      -0.0042
     83  CD2       46.9190  -18.6810   52.4560 C.ar   61  PHE61      -0.0042
     84  CE1       47.0860  -16.6020   54.2680 C.ar   61  PHE61      -0.0003
     85  CE2       47.8390  -17.6590   52.2610 C.ar   61  PHE61      -0.0003
     86  CZ        47.9210  -16.6270   53.1740 C.ar   61  PHE61      -0.0000
     87  N         44.3630  -22.3410   56.3800 N.am   62  CYS62      -0.1956
     88  CA        43.2930  -23.2590   56.7610 C.3    62  CYS62       0.1843
     89  C         43.0960  -23.2080   58.2830 C.2    62  CYS62       0.2625
     90  O         44.0140  -23.5140   59.0210 O.2    62  CYS62      -0.2714
     91  CB        43.6270  -24.6800   56.3030 C.3    62  CYS62       0.0997
     92  SG        42.2880  -25.8850   56.4630 S.3    62  CYS62      -0.0797
     93  N         41.9160  -22.7900   58.7240 N.am   63  LEU63      -0.1977
     94  CA        41.5900  -22.7270   60.1490 C.3    63  LEU63       0.1596
     95  C         40.8760  -23.9750   60.6160 C.2    63  LEU63       0.2287
     96  O         40.5090  -24.0750   61.7830 O.2    63  LEU63      -0.2864
     97  CB        40.7090  -21.5150   60.4690 C.3    63  LEU63       0.0297
     98  CG        41.3570  -20.1390   60.5270 C.3    63  LEU63       0.0022
     99  CD1       40.2770  -19.0870   60.8040 C.3    63  LEU63       0.0001
    100  CD2       42.4400  -20.1190   61.6190 C.3    63  LEU63       0.0001
    101  N         54.7410  -15.5830   57.2350 N.3    89  TRP89      -0.1241
    102  CA        54.0980  -15.5320   58.5540 C.3    89  TRP89       0.1605
    103  C         55.1510  -15.5200   59.6610 C.2    89  TRP89       0.2264
    104  O         55.0110  -14.8140   60.6650 O.2    89  TRP89      -0.2867
    105  CB        53.1860  -16.7280   58.7820 C.3    89  TRP89       0.0550
    106  CG        51.8220  -16.6850   58.1380 C.ar   89  TRP89       0.0003
    107  CD1       51.3570  -17.5090   57.1690 C.ar   89  TRP89       0.0946
    108  CD2       50.7460  -15.8150   58.4830 C.ar   89  TRP89       0.0152
    109  NE1       50.0510  -17.2040   56.8790 N.ar   89  TRP89      -0.2442
    110  CE2       49.6540  -16.1620   57.6730 C.ar   89  TRP89       0.0810
    111  CE3       50.5980  -14.7800   59.4160 C.ar   89  TRP89       0.0012
    112  CZ2       48.4270  -15.5020   57.7480 C.ar   89  TRP89       0.0191
    113  CZ3       49.3840  -14.1240   59.4870 C.ar   89  TRP89       0.0001
    114  CH2       48.3160  -14.4900   58.6690 C.ar   89  TRP89       0.0015
    115  N         55.5360  -12.8230   62.8490 N.3    93  PHE93      -0.1241
    116  CA        55.5770  -13.1920   64.2680 C.3    93  PHE93       0.1605
    117  C         56.9230  -12.8350   64.9030 C.2    93  PHE93       0.2264
    118  O         56.9790  -12.4090   66.0550 O.2    93  PHE93      -0.2867
    119  CB        55.2590  -14.6790   64.4400 C.3    93  PHE93       0.0534
    120  CG        53.7840  -14.9910   64.3650 C.ar   93  PHE93      -0.0203
    121  CD1       53.1500  -15.1290   63.1420 C.ar   93  PHE93      -0.0042
    122  CD2       53.0370  -15.1340   65.5250 C.ar   93  PHE93      -0.0042
    123  CE1       51.7990  -15.4080   63.0770 C.ar   93  PHE93      -0.0003
    124  CE2       51.6920  -15.4150   65.4710 C.ar   93  PHE93      -0.0003
    125  CZ        51.0680  -15.5510   64.2550 C.ar   93  PHE93      -0.0000
    126  N         56.6610   -9.1380   65.6890 N.3    96  LYS96      -0.1231
    127  CA        55.6490   -8.7190   66.6640 C.3    96  LYS96       0.1693
    128  C         55.7830   -9.3640   68.0570 C.2    96  LYS96       0.2592
    129  O         55.5400   -8.7110   69.0690 O.2    96  LYS96      -0.2718
    130  CB        54.2440   -9.0020   66.1000 C.3    96  LYS96       0.0285
    131  CG        53.1000   -8.5580   67.0220 C.3    96  LYS96       0.0035
    132  CD        51.7550   -8.6020   66.3140 C.3    96  LYS96       0.0206
    133  CE        50.6480   -8.0650   67.2220 C.3    96  LYS96       0.1093
    134  NZ        49.3070   -8.1860   66.5850 N.3    96  LYS96      -0.1314
    135  N         56.1820  -10.6290   68.1090 N.am   97  TYR97      -0.1976
    136  CA        56.1100  -11.3980   69.3560 C.3    97  TYR97       0.1639
    137  C         57.4700  -11.8780   69.8600 C.2    97  TYR97       0.2290
    138  O         58.4410  -11.9370   69.1030 O.2    97  TYR97      -0.2864
    139  CB        55.1790  -12.6010   69.1660 C.3    97  TYR97       0.0560
    140  CG        53.7350  -12.2350   68.8950 C.ar   97  TYR97      -0.0198
    141  CD1       52.9190  -11.7560   69.9140 C.ar   97  TYR97      -0.0009
    142  CD2       53.1790  -12.3860   67.6200 C.ar   97  TYR97      -0.0009
    143  CE1       51.5850  -11.4360   69.6760 C.ar   97  TYR97       0.0417
    144  CE2       51.8470  -12.0740   67.3740 C.ar   97  TYR97       0.0417
    145  CZ        51.0600  -11.5920   68.4060 C.ar   97  TYR97       0.1957
    146  OH        49.7430  -11.2850   68.1770 O.3    97  TYR97      -0.2866
@<TRIPOS>BOND
     1    85    83   ar
     2    85    86   ar
     3    83    81   ar
     4    86    84   ar
     5    81    80    1
     6    81    82   ar
     7    80    77    1
     8    84    82   ar
     9    79    78    2
    10    76    77    1
    11    77    78    1
    12    78    87   am
    13    71    70    2
    14    91    92    1
    15    91    88    1
    16    87    88    1
    17    88    89    1
    18   109   107   ar
    19   109   110   ar
    20    70    69    1
    21   107   106   ar
    22   101   102    1
    23    67    66    2
    24   110   112   ar
    25   110   108   ar
    26   112   114   ar
    27   106   108   ar
    28   106   105    1
    29    89    93   am
    30    89    90    2
    31    69    68    1
    32    69    72    1
    33    66    68   am
    34    66    65    1
    35   108   111   ar
    36   102   105    1
    37   102   103    1
    38   114   113   ar
    39    93    94    1
    40    65    64    1
    41    72    73    1
    42   111   113   ar
    43   103   104    2
    44    94    97    1
    45    94    95    1
    46    97    98    1
    47    98    99    1
    48    98   100    1
    49    75    73    1
    50    73    74    1
    51    95    96    2
    52    52    51    1
    53    49    51   ar
    54    49    47   ar
    55    63    62   ar
    56    63    61   ar
    57    51    50   ar
    58    62    60   ar
    59    61    59   ar
    60   115   116    1
    61    47    46   ar
    62   123   121   ar
    63   123   125   ar
    64   121   120   ar
    65    50    48   ar
    66    60    58   ar
    67    46    48   ar
    68    46    45    1
    69    59    58   ar
    70   125   124   ar
    71   116   119    1
    72   116   117    1
    73   120   119    1
    74   120   122   ar
    75    58    57    1
    76   117   118    2
    77    45    42    1
    78     8     7    1
    79   124   122   ar
    80    26    28   ar
    81    26    24   ar
    82    42    41    1
    83    42    43    1
    84    40    39    1
    85   126   127    1
    86    28    27   ar
    87    24    23   ar
    88   130   127    1
    89   130   131    1
    90    57    54    1
    91   132   131    1
    92   132   133    1
    93   134   133    1
    94    37    39   ar
    95    37    35   ar
    96   127   128    1
    97    39    38   ar
    98    27    25   ar
    99    43    44    2
   100    23    25   ar
   101    23    22    1
   102    53    54    1
   103    54    55    1
   104     7     6    1
   105   144   142   ar
   106   144   145   ar
   107     6     5    1
   108    22    19    1
   109   142   140   ar
   110    35    34   ar
   111    17    16    1
   112    38    36   ar
   113   128   135   am
   114   128   129    2
   115   135   136    1
   116   146   145    1
   117    21    20    2
   118    19    20    1
   119    19    18    1
   120   145   143   ar
   121    16    15    1
   122    55    56    2
   123     3     4    2
   124     3     2    1
   125     5     2    1
   126    20    29   am
   127   140   139    1
   128   140   141   ar
   129    34    36   ar
   130    34    33    1
   131   138   137    2
   132   139   136    1
   133     2     1    1
   134   136   137    1
   135    12    11    2
   136    15    14    1
   137    18    11   am
   138   143   141   ar
   139    29    30    1
   140    14    13    1
   141    11    10    1
   142    30    33    1
   143    30    31    1
   144    13    10    1
   145    10     9    1
   146    31    32    2
