@<TRIPOS>MOLECULE
tmp/4x90D07.pdb
 104 96 0 0 0
SMALL
GASTEIGER

@<TRIPOS>ATOM
      1  N          1.7570   15.3200  -19.3320 N.3    10  ASP10      -0.1239
      2  CA         3.1210   15.0880  -19.7990 C.3    10  ASP10       0.1674
      3  C          4.1170   15.5060  -18.7110 C.2    10  ASP10       0.2266
      4  O          3.9530   16.5360  -18.0590 O.2    10  ASP10      -0.2867
      5  CB         3.3200   15.8740  -21.1130 C.3    10  ASP10       0.1410
      6  CG         4.4500   15.3370  -21.9940 C.2    10  ASP10       0.3668
      7  OD1        5.1900   14.3770  -21.6200 O.co2  10  ASP10      -0.2456
      8  OD2        4.5770   15.8950  -23.1260 O.co2  10  ASP10      -0.2456
      9  N         -4.0380   18.4920  -18.0870 N.3   162  SER162     -0.1202
     10  CA        -3.2690   18.6520  -19.3210 C.3   162  SER162      0.2020
     11  C         -3.4470   17.4530  -20.2520 C.2   162  SER162      0.2618
     12  O         -4.5880   17.0320  -20.4860 O.2   162  SER162     -0.2717
     13  CB        -1.8120   18.9710  -18.9500 C.3   162  SER162      0.2103
     14  OG        -1.1500   19.5540  -20.0600 O.3   162  SER162     -0.2182
     15  N         -2.3620   16.8710  -20.7520 N.am  163  MET163     -0.1979
     16  CA        -2.4600   15.7180  -21.6380 C.3   163  MET163      0.1605
     17  C         -3.2210   14.5400  -21.0250 C.2   163  MET163      0.2287
     18  O         -3.7430   13.6900  -21.7640 O.2   163  MET163     -0.2864
     19  CB        -1.0480   15.2380  -22.0300 C.3   163  MET163      0.0413
     20  CG        -1.0400   14.0990  -23.0020 C.3   163  MET163      0.0598
     21  SD         0.6620   13.7610  -23.5500 S.3   163  MET163     -0.1393
     22  CE         1.2590   12.6750  -22.3030 C.3   163  MET163      0.0692
     23  N         -5.7630   20.0730  -23.5460 N.3   193  PRO193     -0.2116
     24  CA        -5.3500   20.4900  -24.8920 C.3   193  PRO193      0.1372
     25  C         -6.1190   19.7510  -25.9870 C.2   193  PRO193      0.2244
     26  O         -5.5260   19.0620  -26.8150 O.2   193  PRO193     -0.2868
     27  CB        -3.8680   20.1150  -24.9100 C.3   193  PRO193      0.0268
     28  CG        -3.8330   18.8500  -24.1410 C.3   193  PRO193      0.0207
     29  CD        -4.8360   19.0470  -23.0070 C.3   193  PRO193      0.0892
     30  N         -1.7710   21.6380  -29.2250 N.3   197  VAL197     -0.1245
     31  CA        -1.2960   22.9650  -28.8450 C.3   197  VAL197      0.1561
     32  C         -0.2130   23.4510  -29.8090 C.2   197  VAL197      0.2260
     33  O          0.5960   22.6870  -30.3010 O.2   197  VAL197     -0.2867
     34  CB        -0.7650   23.0410  -27.3840 C.3   197  VAL197      0.0252
     35  CG1       -1.8450   22.6100  -26.3910 C.3   197  VAL197      0.0019
     36  CG2        0.4580   22.1990  -27.2120 C.3   197  VAL197      0.0019
     37  N          2.4800   25.1540  -29.3730 N.3   199  LYS199     -0.1231
     38  CA         3.8970   25.1330  -28.9900 C.3   199  LYS199      0.1693
     39  C          4.6600   23.8430  -29.3320 C.2   199  LYS199      0.2592
     40  O          5.8970   23.8600  -29.3910 O.2   199  LYS199     -0.2718
     41  CB         4.1060   25.5360  -27.5440 C.3   199  LYS199      0.0285
     42  CG         3.7840   24.4980  -26.5150 C.3   199  LYS199      0.0035
     43  CD         4.0620   25.0210  -25.1090 C.3   199  LYS199      0.0206
     44  CE         5.5160   25.4200  -24.9620 C.3   199  LYS199      0.1093
     45  NZ         5.9520   25.3910  -23.5360 N.3   199  LYS199     -0.1314
     46  N          3.9280   22.7720  -29.6290 N.am  200  THR200     -0.1953
     47  CA         4.5480   21.5240  -30.1270 C.3   200  THR200      0.1897
     48  C          5.3920   21.7550  -31.4000 C.2   200  THR200      0.2313
     49  O          6.4370   21.1190  -31.5910 O.2   200  THR200     -0.2863
     50  CB         3.4880   20.4350  -30.4140 C.3   200  THR200      0.1794
     51  OG1        2.5380   20.9600  -31.3230 O.3   200  THR200     -0.2208
     52  CG2        2.7230   20.0660  -29.1970 C.3   200  THR200      0.0378
     53  N          8.8010   23.0680  -30.2240 N.3   203  VAL203     -0.1245
     54  CA         9.5280   21.9690  -29.5690 C.3   203  VAL203      0.1561
     55  C         10.2080   21.0490  -30.6050 C.2   203  VAL203      0.2260
     56  O         11.4310   20.7960  -30.5350 O.2   203  VAL203     -0.2867
     57  CB         8.5840   21.1600  -28.6460 C.3   203  VAL203      0.0252
     58  CG1        9.3140   19.9390  -28.0940 C.3   203  VAL203      0.0019
     59  CG2        8.0520   22.0270  -27.5060 C.3   203  VAL203      0.0019
     60  N          4.3720   11.3230  -27.7380 N.3   229  SER229     -0.1202
     61  CA         3.3000   12.1950  -27.2340 C.3   229  SER229      0.2020
     62  C          3.4410   13.6130  -27.7620 C.2   229  SER229      0.2619
     63  O          2.4550   14.3210  -27.8800 O.2   229  SER229     -0.2717
     64  CB         3.2490   12.1820  -25.6730 C.3   229  SER229      0.2103
     65  OG         4.5360   12.4520  -25.1310 O.3   229  SER229     -0.2182
     66  N          4.6590   14.0640  -28.0490 N.am  230  THR230     -0.1952
     67  CA         4.8490   15.4120  -28.6270 C.3   230  THR230      0.1897
     68  C          4.1910   15.5660  -29.9990 C.2   230  THR230      0.2313
     69  O          3.4510   16.5130  -30.2090 O.2   230  THR230     -0.2863
     70  CB         6.3450   15.7450  -28.7290 C.3   230  THR230      0.1794
     71  OG1        6.9060   15.5720  -27.4100 O.3   230  THR230     -0.2208
     72  CG2        6.5870   17.1670  -29.1690 C.3   230  THR230      0.0378
     73  N          0.3510   15.6170  -30.0870 N.3   233  LEU233     -0.1245
     74  CA        -0.3150   16.8470  -29.6930 C.3   233  LEU233      0.1561
     75  C         -0.1010   18.0330  -30.6540 C.2   233  LEU233      0.2260
     76  O         -0.4340   19.1690  -30.2920 O.2   233  LEU233     -0.2867
     77  CB         0.0730   17.2030  -28.2630 C.3   233  LEU233      0.0270
     78  CG        -0.5040   16.2330  -27.2210 C.3   233  LEU233      0.0019
     79  CD1       -0.0920   16.7150  -25.8580 C.3   233  LEU233      0.0001
     80  CD2       -2.0020   16.0900  -27.3170 C.3   233  LEU233      0.0001
     81  N          0.0300   27.6050  -22.0330 N.3   326  THR326     -0.1203
     82  CA         0.4100   26.3900  -22.7630 C.3   326  THR326      0.1994
     83  C         -0.7090   25.9690  -23.7140 C.2   326  THR326      0.2617
     84  O         -0.4970   25.8180  -24.9100 O.2   326  THR326     -0.2717
     85  CB         0.6960   25.2420  -21.7710 C.3   326  THR326      0.1784
     86  OG1        1.8110   25.6120  -20.9480 O.3   326  THR326     -0.2211
     87  CG2        1.0030   23.9200  -22.4940 C.3   326  THR326      0.0376
     88  N         -1.9130   25.8220  -23.1740 N.am  327  VAL327     -0.1979
     89  CA        -3.0980   25.4520  -23.9480 C.3   327  VAL327      0.1595
     90  C         -3.8020   26.6770  -24.5280 C.2   327  VAL327      0.2287
     91  O         -4.1880   27.5740  -23.8100 O.2   327  VAL327     -0.2864
     92  CB        -4.0790   24.6770  -23.0610 C.3   327  VAL327      0.0276
     93  CG1       -5.3590   24.3460  -23.8130 C.3   327  VAL327      0.0022
     94  CG2       -3.4040   23.4080  -22.5590 C.3   327  VAL327      0.0022
     95  N         -1.2870   27.3960  -16.5710 N.3   356  HIS356     -0.1241
     96  CA        -1.4630   25.9610  -16.8410 C.3   356  HIS356      0.1621
     97  C         -1.0990   25.0250  -15.6880 C.2   356  HIS356      0.2264
     98  O         -1.8510   24.1150  -15.3720 O.2   356  HIS356     -0.2867
     99  CB        -0.6220   25.5900  -18.0460 C.3   356  HIS356      0.0745
    100  CG        -0.8800   24.2080  -18.5490 C.ar  356  HIS356      0.0817
    101  ND1       -2.0960   23.8260  -19.0720 N.ar  356  HIS356     -0.2268
    102  CD2       -0.0830   23.1200  -18.6060 C.ar  356  HIS356      0.1154
    103  CE1       -2.0280   22.5570  -19.4430 C.ar  356  HIS356      0.1986
    104  NE2       -0.8300   22.1070  -19.1530 N.ar  356  HIS356     -0.2212
@<TRIPOS>BOND
     1    49    48    2
     2    48    47    1
     3    51    50    1
     4    75    76    2
     5    75    74    1
     6    55    56    2
     7    55    54    1
     8    50    47    1
     9    50    52    1
    10    33    32    2
    11    53    54    1
    12    69    68    2
    13    47    46    1
    14    73    74    1
    15    68    67    1
    16    32    31    1
    17    74    77    1
    18    46    39   am
    19    54    57    1
    20    40    39    2
    21    37    38    1
    22    39    38    1
    23    30    31    1
    24    72    70    1
    25    38    41    1
    26    31    34    1
    27    70    67    1
    28    70    71    1
    29    57    58    1
    30    57    59    1
    31    67    66    1
    32    77    78    1
    33    66    62   am
    34    63    62    2
    35    62    61    1
    36    60    61    1
    37    41    42    1
    38    34    36    1
    39    34    35    1
    40    80    78    1
    41    61    64    1
    42    78    79    1
    43    26    25    2
    44    42    43    1
    45    25    24    1
    46    64    65    1
    47    43    44    1
    48    44    45    1
    49    27    24    1
    50    27    28    1
    51    84    83    2
    52    24    23    1
    53    90    89    1
    54    90    91    2
    55    28    29    1
    56    89    88    1
    57    89    92    1
    58    93    92    1
    59    83    88   am
    60    83    82    1
    61    21    20    1
    62    21    22    1
    63    23    29    1
    64     8     6   ar
    65    92    94    1
    66    20    19    1
    67    82    81    1
    68    82    85    1
    69    87    85    1
    70    19    16    1
    71     6     7   ar
    72     6     5    1
    73    85    86    1
    74    18    17    2
    75    16    17    1
    76    16    15    1
    77     5     2    1
    78    15    11   am
    79    12    11    2
    80    11    10    1
    81    14    13    1
    82     2     1    1
    83     2     3    1
    84   103   104   ar
    85   103   101   ar
    86    10    13    1
    87    10     9    1
    88   104   102   ar
    89   101   100   ar
    90     3     4    2
    91   102   100   ar
    92   100    99    1
    93    99    96    1
    94    96    95    1
    95    96    97    1
    96    97    98    2
