@<TRIPOS>MOLECULE
tmp/4x90D08.pdb
 88 82 0 0 0
SMALL
GASTEIGER

@<TRIPOS>ATOM
      1  N          5.1490   14.6970  -18.5020 N.3    11  LEU11      -0.1245
      2  CA         6.1310   14.8970  -17.4390 C.3    11  LEU11       0.1561
      3  C          5.5490   14.7160  -16.0350 C.2    11  LEU11       0.2260
      4  O          6.2110   15.0390  -15.0570 O.2    11  LEU11      -0.2867
      5  CB         6.7890   16.2890  -17.5110 C.3    11  LEU11       0.0270
      6  CG         7.3270   16.7640  -18.8660 C.3    11  LEU11       0.0019
      7  CD1        7.9900   18.1160  -18.6860 C.3    11  LEU11       0.0001
      8  CD2        8.3230   15.7630  -19.4080 C.3    11  LEU11       0.0001
      9  N         13.2270   10.2920  -13.8520 N.3    40  TRP40      -0.1227
     10  CA        12.4710   11.5440  -13.8260 C.3    40  TRP40       0.1737
     11  C         11.6750   11.5770  -12.5160 C.2    40  TRP40       0.2595
     12  O         10.9450   10.6230  -12.2360 O.2    40  TRP40      -0.2718
     13  CB        11.4850   11.6160  -14.9940 C.3    40  TRP40       0.0564
     14  CG        10.7000   12.8760  -15.0350 C.ar   40  TRP40       0.0003
     15  CD1        9.4030   13.0670  -14.6170 C.ar   40  TRP40       0.0946
     16  CD2       11.1760   14.1380  -15.4740 C.ar   40  TRP40       0.0152
     17  NE1        9.0410   14.3780  -14.8030 N.ar   40  TRP40      -0.2442
     18  CE2       10.1150   15.0530  -15.3410 C.ar   40  TRP40       0.0810
     19  CE3       12.4060   14.5850  -16.0040 C.ar   40  TRP40       0.0012
     20  CZ2       10.2410   16.3920  -15.7020 C.ar   40  TRP40       0.0191
     21  CZ3       12.5310   15.9130  -16.3630 C.ar   40  TRP40       0.0001
     22  CH2       11.4540   16.8050  -16.1970 C.ar   40  TRP40       0.0015
     23  N         11.7740   12.6250  -11.6960 N.am   41  LEU41      -0.1980
     24  CA        12.6060   13.8150  -11.8940 C.3    41  LEU41       0.1596
     25  C         13.7860   13.7630  -10.9380 C.2    41  LEU41       0.2287
     26  O         13.6050   13.6250   -9.7210 O.2    41  LEU41      -0.2864
     27  CB        11.7610   15.0610  -11.6100 C.3    41  LEU41       0.0297
     28  CG        12.4920   16.4130  -11.5310 C.3    41  LEU41       0.0022
     29  CD1       13.1570   16.7120  -12.8650 C.3    41  LEU41       0.0001
     30  CD2       11.4860   17.5100  -11.1900 C.3    41  LEU41       0.0001
     31  N         17.1850   16.1340  -10.6040 N.3    43  LEU43      -0.1245
     32  CA        17.8400   17.3300  -11.1470 C.3    43  LEU43       0.1561
     33  C         19.3290   17.1140  -11.4420 C.2    43  LEU43       0.2260
     34  O         19.8780   17.7140  -12.3500 O.2    43  LEU43      -0.2867
     35  CB        17.6900   18.4930  -10.1570 C.3    43  LEU43       0.0270
     36  CG        16.2610   18.9590   -9.8900 C.3    43  LEU43       0.0019
     37  CD1       16.2830   19.9980   -8.7730 C.3    43  LEU43       0.0001
     38  CD2       15.6490   19.5170  -11.1640 C.3    43  LEU43       0.0001
     39  N         20.4040   16.2020  -15.0510 N.3    46  LEU46      -0.1245
     40  CA        20.1620   17.1890  -16.1090 C.3    46  LEU46       0.1561
     41  C         21.2810   18.2490  -16.2420 C.2    46  LEU46       0.2260
     42  O         21.2070   19.1420  -17.0920 O.2    46  LEU46      -0.2867
     43  CB        18.8120   17.8790  -15.8610 C.3    46  LEU46       0.0270
     44  CG        17.6340   16.9200  -15.6060 C.3    46  LEU46       0.0019
     45  CD1       16.3400   17.6630  -15.2820 C.3    46  LEU46       0.0001
     46  CD2       17.4390   16.0340  -16.8300 C.3    46  LEU46       0.0001
     47  N          7.2510   14.7740   -8.2560 N.3    91  LEU91      -0.1245
     48  CA         7.9690   14.2340   -9.3990 C.3    91  LEU91       0.1561
     49  C          9.3850   13.8560   -8.9940 C.2    91  LEU91       0.2260
     50  O          9.9630   12.9060   -9.5260 O.2    91  LEU91      -0.2867
     51  CB         7.9830   15.2280  -10.5490 C.3    91  LEU91       0.0270
     52  CG         6.6090   15.6830  -11.0170 C.3    91  LEU91       0.0019
     53  CD1        6.7400   16.7100  -12.1340 C.3    91  LEU91       0.0001
     54  CD2        5.7420   14.5150  -11.4490 C.3    91  LEU91       0.0001
     55  N         10.4490   21.9440   -6.5780 N.3    98  VAL98      -0.1245
     56  CA        10.5880   21.8870   -8.0490 C.3    98  VAL98       0.1561
     57  C          9.6980   20.7790   -8.6480 C.2    98  VAL98       0.2260
     58  O          9.1630   20.9370   -9.7420 O.2    98  VAL98      -0.2867
     59  CB        12.0810   21.7140   -8.5220 C.3    98  VAL98       0.0252
     60  CG1       12.5920   20.3000   -8.2680 C.3    98  VAL98       0.0019
     61  CG2       12.2090   22.0330  -10.0000 C.3    98  VAL98       0.0019
     62  N         12.8800   25.4480  -19.4680 N.3   211  ARG211     -0.1231
     63  CA        12.8520   24.9470  -18.0990 C.3   211  ARG211      0.1694
     64  C         14.1680   24.2600  -17.7300 C.2   211  ARG211      0.2591
     65  O         14.2240   23.4790  -16.7880 O.2   211  ARG211     -0.2718
     66  CB        11.6500   24.0290  -17.9160 C.3   211  ARG211      0.0321
     67  CG        10.3600   24.8260  -17.9690 C.3   211  ARG211      0.0489
     68  CD         9.1420   24.0090  -17.5680 C.3   211  ARG211      0.2205
     69  NE         7.9550   24.4770  -18.2740 N.pl3 211  ARG211     -0.0865
     70  CZ         6.7780   23.8550  -18.2600 C.cat 211  ARG211      0.5346
     71  NH1        6.6110   22.7350  -17.5640 N.pl3 211  ARG211      0.1354
     72  NH2        5.7580   24.3610  -18.9470 N.pl3 211  ARG211      0.1354
     73  N         15.2270   24.5780  -18.4740 N.am  212  ILE212     -0.1980
     74  CA        16.5430   23.9900  -18.2550 C.3   212  ILE212      0.1595
     75  C         17.5300   24.8090  -19.1010 C.2   212  ILE212      0.2287
     76  O         18.1850   24.2830  -20.0110 O.2   212  ILE212     -0.2864
     77  CB        16.5470   22.4770  -18.6190 C.3   212  ILE212      0.0276
     78  CG1       17.9460   21.8640  -18.5530 C.3   212  ILE212      0.0022
     79  CG2       15.9510   22.2380  -20.0120 C.3   212  ILE212      0.0022
     80  CD1       17.9270   20.3840  -18.2670 C.3   212  ILE212      0.0001
     81  N          0.0820   25.1950  -15.1210 N.3   357  ILE357     -0.1245
     82  CA         0.5080   24.3810  -13.9870 C.3   357  ILE357      0.1561
     83  C         -0.0190   24.8780  -12.6490 C.2   357  ILE357      0.2260
     84  O         -0.4580   24.0770  -11.7920 O.2   357  ILE357     -0.2867
     85  CB         2.0320   24.3110  -13.9090 C.3   357  ILE357      0.0252
     86  CG1        2.5630   23.6410  -15.1690 C.3   357  ILE357      0.0019
     87  CG2        2.4510   23.5230  -12.6680 C.3   357  ILE357      0.0019
     88  CD1        4.0660   23.7080  -15.3040 C.3   357  ILE357      0.0001
@<TRIPOS>BOND
     1    79    77    1
     2    76    75    2
     3    62    63    1
     4     8     6    1
     5    75    74    1
     6    72    70    1
     7     6     7    1
     8     6     5    1
     9    77    78    1
    10    77    74    1
    11    78    80    1
    12     1     2    1
    13    73    74    1
    14    73    64   am
    15    69    70    2
    16    69    68    1
    17    70    71    1
    18    63    66    1
    19    63    64    1
    20    67    66    1
    21    67    68    1
    22    64    65    2
    23     5     2    1
    24     2     3    1
    25    42    41    2
    26    46    44    1
    27    21    22   ar
    28    21    19   ar
    29    41    40    1
    30    22    20   ar
    31    40    43    1
    32    40    39    1
    33     3     4    2
    34    19    16   ar
    35    43    44    1
    36    20    18   ar
    37    44    45    1
    38    16    18   ar
    39    16    14   ar
    40    18    17   ar
    41    88    86    1
    42    86    85    1
    43    81    82    1
    44    14    13    1
    45    14    15   ar
    46    13    10    1
    47    17    15   ar
    48    82    85    1
    49    82    83    1
    50    85    87    1
    51     9    10    1
    52    10    11    1
    53    29    28    1
    54    83    84    2
    55    11    12    2
    56    11    23   am
    57    34    33    2
    58    53    52    1
    59    24    23    1
    60    24    27    1
    61    24    25    1
    62    27    28    1
    63    28    30    1
    64    54    52    1
    65    33    32    1
    66    38    36    1
    67    32    31    1
    68    32    35    1
    69    52    51    1
    70    25    26    2
    71    51    48    1
    72    35    36    1
    73    61    59    1
    74    36    37    1
    75    58    57    2
    76    50    49    2
    77    48    49    1
    78    48    47    1
    79    57    56    1
    80    59    60    1
    81    59    56    1
    82    56    55    1
