@<TRIPOS>MOLECULE
tmp/4x90D06.pdb
 84 77 0 0 0
SMALL
GASTEIGER

@<TRIPOS>ATOM
      1  N          1.7570   15.3200  -19.3320 N.3    10  ASP10      -0.1225
      2  CA         3.1210   15.0880  -19.7990 C.3    10  ASP10       0.1805
      3  C          4.1170   15.5060  -18.7110 C.2    10  ASP10       0.2597
      4  O          3.9530   16.5360  -18.0590 O.2    10  ASP10      -0.2718
      5  CB         3.3200   15.8740  -21.1130 C.3    10  ASP10       0.1424
      6  CG         4.4500   15.3370  -21.9940 C.2    10  ASP10       0.3668
      7  OD1        5.1900   14.3770  -21.6200 O.co2  10  ASP10      -0.2456
      8  OD2        4.5770   15.8950  -23.1260 O.co2  10  ASP10      -0.2456
      9  N          5.1490   14.6970  -18.5020 N.am   11  LEU11      -0.1979
     10  CA         6.1310   14.8970  -17.4390 C.3    11  LEU11       0.1596
     11  C          5.5490   14.7160  -16.0350 C.2    11  LEU11       0.2287
     12  O          6.2110   15.0390  -15.0570 O.2    11  LEU11      -0.2864
     13  CB         6.7890   16.2890  -17.5110 C.3    11  LEU11       0.0297
     14  CG         7.3270   16.7640  -18.8660 C.3    11  LEU11       0.0022
     15  CD1        7.9900   18.1160  -18.6860 C.3    11  LEU11       0.0001
     16  CD2        8.3230   15.7630  -19.4080 C.3    11  LEU11       0.0001
     17  N          2.4800   25.1540  -29.3730 N.3   199  LYS199     -0.1245
     18  CA         3.8970   25.1330  -28.9900 C.3   199  LYS199      0.1561
     19  C          4.6600   23.8430  -29.3320 C.2   199  LYS199      0.2260
     20  O          5.8970   23.8600  -29.3910 O.2   199  LYS199     -0.2867
     21  CB         4.1060   25.5360  -27.5440 C.3   199  LYS199      0.0271
     22  CG         3.7840   24.4980  -26.5150 C.3   199  LYS199      0.0035
     23  CD         4.0620   25.0210  -25.1090 C.3   199  LYS199      0.0206
     24  CE         5.5160   25.4200  -24.9620 C.3   199  LYS199      0.1093
     25  NZ         5.9520   25.3910  -23.5360 N.3   199  LYS199     -0.1314
     26  N          8.8010   23.0680  -30.2240 N.3   203  VAL203     -0.1245
     27  CA         9.5280   21.9690  -29.5690 C.3   203  VAL203      0.1561
     28  C         10.2080   21.0490  -30.6050 C.2   203  VAL203      0.2260
     29  O         11.4310   20.7960  -30.5350 O.2   203  VAL203     -0.2867
     30  CB         8.5840   21.1600  -28.6460 C.3   203  VAL203      0.0252
     31  CG1        9.3140   19.9390  -28.0940 C.3   203  VAL203      0.0019
     32  CG2        8.0520   22.0270  -27.5060 C.3   203  VAL203      0.0019
     33  N         13.0340   23.0260  -26.8760 N.3   208  ASP208     -0.1239
     34  CA        12.5560   23.9330  -25.8380 C.3   208  ASP208      0.1674
     35  C         13.3310   23.6740  -24.5490 C.2   208  ASP208      0.2266
     36  O         13.0890   22.6690  -23.8800 O.2   208  ASP208     -0.2867
     37  CB        11.0490   23.7400  -25.6090 C.3   208  ASP208      0.1410
     38  CG        10.4550   24.7390  -24.6090 C.2   208  ASP208      0.3668
     39  OD1       11.2060   25.6020  -24.0760 O.co2 208  ASP208     -0.2456
     40  OD2        9.2080   24.6810  -24.4050 O.co2 208  ASP208     -0.2456
     41  N         13.3970   26.0610  -22.1010 N.3   210  ASN210     -0.1225
     42  CA        12.9300   27.1520  -21.2020 C.3   210  ASN210      0.1785
     43  C         12.9370   26.7500  -19.7190 C.2   210  ASN210      0.2597
     44  O         12.9890   27.5940  -18.8190 O.2   210  ASN210     -0.2718
     45  CB        11.5130   27.6320  -21.5630 C.3   210  ASN210      0.1169
     46  CG        11.4760   28.4600  -22.8470 C.2   210  ASN210      0.2627
     47  OD1       12.5020   28.6860  -23.5060 O.2   210  ASN210     -0.2716
     48  ND2       10.2850   28.9010  -23.2150 N.am  210  ASN210     -0.0877
     49  N         12.8800   25.4480  -19.4680 N.am  211  ARG211     -0.1979
     50  CA        12.8520   24.9470  -18.0990 C.3   211  ARG211      0.1597
     51  C         14.1680   24.2600  -17.7300 C.2   211  ARG211      0.2287
     52  O         14.2240   23.4790  -16.7880 O.2   211  ARG211     -0.2864
     53  CB        11.6500   24.0290  -17.9160 C.3   211  ARG211      0.0334
     54  CG        10.3600   24.8260  -17.9690 C.3   211  ARG211      0.0492
     55  CD         9.1420   24.0090  -17.5680 C.3   211  ARG211      0.2205
     56  NE         7.9550   24.4770  -18.2740 N.pl3 211  ARG211     -0.0865
     57  CZ         6.7780   23.8550  -18.2600 C.cat 211  ARG211      0.5346
     58  NH1        6.6110   22.7350  -17.5640 N.pl3 211  ARG211      0.1354
     59  NH2        5.7580   24.3610  -18.9470 N.pl3 211  ARG211      0.1354
     60  N         15.7300   14.5020  -27.1640 N.3   223  GLN223     -0.1231
     61  CA        14.7690   13.7850  -26.3470 C.3   223  GLN223      0.1698
     62  C         13.3460   14.1320  -26.7010 C.2   223  GLN223      0.2592
     63  O         12.4760   13.2680  -26.7720 O.2   223  GLN223     -0.2718
     64  CB        14.9770   14.0450  -24.8420 C.3   223  GLN223      0.0381
     65  CG        14.0480   13.2410  -23.9260 C.3   223  GLN223      0.0905
     66  CD        12.6470   13.7910  -23.7590 C.2   223  GLN223      0.2608
     67  OE1       11.6520   13.0440  -23.6870 O.2   223  GLN223     -0.2717
     68  NE2       12.5530   15.0950  -23.6390 N.am  223  GLN223     -0.0878
     69  N         13.0840   15.4200  -26.8800 N.am  224  GLN224     -0.1979
     70  CA        11.7300   15.8800  -27.0940 C.3   224  GLN224      0.1601
     71  C         11.1270   15.2960  -28.3680 C.2   224  GLN224      0.2287
     72  O          9.9540   14.8940  -28.4010 O.2   224  GLN224     -0.2864
     73  CB        11.6990   17.4230  -27.0950 C.3   224  GLN224      0.0394
     74  CG        12.0140   17.9950  -25.7060 C.3   224  GLN224      0.0908
     75  CD        12.3530   19.4710  -25.6770 C.2   224  GLN224      0.2608
     76  OE1       12.8850   20.0450  -26.6370 O.2   224  GLN224     -0.2717
     77  NE2       12.0320   20.1050  -24.5530 N.am  224  GLN224     -0.0878
     78  N          4.6590   14.0640  -28.0490 N.3   230  THR230     -0.1218
     79  CA         4.8490   15.4120  -28.6270 C.3   230  THR230      0.1862
     80  C          4.1910   15.5660  -29.9990 C.2   230  THR230      0.2287
     81  O          3.4510   16.5130  -30.2090 O.2   230  THR230     -0.2866
     82  CB         6.3450   15.7450  -28.7290 C.3   230  THR230      0.1770
     83  OG1        6.9060   15.5720  -27.4100 O.3   230  THR230     -0.2211
     84  CG2        6.5870   17.1670  -29.1690 C.3   230  THR230      0.0375
@<TRIPOS>BOND
     1    28    29    2
     2    28    27    1
     3    26    27    1
     4    81    80    2
     5    80    79    1
     6    27    30    1
     7    20    19    2
     8    17    18    1
     9    19    18    1
    10    84    82    1
    11    18    21    1
    12    82    79    1
    13    82    83    1
    14    30    31    1
    15    30    32    1
    16    79    78    1
    17    72    71    2
    18    71    70    1
    19    21    22    1
    20    60    61    1
    21    73    70    1
    22    73    74    1
    23    70    69    1
    24    69    62   am
    25    33    34    1
    26    63    62    2
    27    62    61    1
    28    76    75    2
    29    22    23    1
    30    61    64    1
    31    34    37    1
    32    34    35    1
    33    74    75    1
    34    75    77   am
    35    37    38    1
    36    23    24    1
    37    24    25    1
    38    64    65    1
    39    38    40   ar
    40    38    39   ar
    41    35    36    2
    42    65    66    1
    43    66    67    2
    44    66    68   am
    45    47    46    2
    46    48    46   am
    47     8     6   ar
    48    46    45    1
    49    41    42    1
    50     6     7   ar
    51     6     5    1
    52    45    42    1
    53    42    43    1
    54     5     2    1
    55     2     1    1
    56     2     3    1
    57    43    49   am
    58    43    44    2
    59    49    50    1
    60    16    14    1
    61    59    57    1
    62    14    15    1
    63    14    13    1
    64     3     9   am
    65     3     4    2
    66     9    10    1
    67    56    57    2
    68    56    55    1
    69    57    58    1
    70    50    53    1
    71    50    51    1
    72    54    53    1
    73    54    55    1
    74    51    52    2
    75    13    10    1
    76    10    11    1
    77    11    12    2
