@<TRIPOS>MOLECULE
tmp/4x91A04.pdb
 190 182 0 0 0
SMALL
GASTEIGER

@<TRIPOS>ATOM
      1  N          1.5170  -14.4000   19.7320 N.3    10  ASP10      -0.1225
      2  CA         2.8660  -14.2040   20.2140 C.3    10  ASP10       0.1805
      3  C          3.7860  -14.6990   19.1320 C.2    10  ASP10       0.2597
      4  O          3.5190  -15.7330   18.5300 O.2    10  ASP10      -0.2718
      5  CB         3.0220  -15.0130   21.5200 C.3    10  ASP10       0.1424
      6  CG         4.1740  -14.5740   22.3790 C.2    10  ASP10       0.3668
      7  OD1        4.9010  -13.6070   22.0690 O.co2  10  ASP10      -0.2456
      8  OD2        4.3500  -15.2390   23.4120 O.co2  10  ASP10      -0.2456
      9  N          4.8660  -13.9710   18.8800 N.am   11  LEU11      -0.1979
     10  CA         5.8130  -14.2930   17.8110 C.3    11  LEU11       0.1596
     11  C          5.1980  -14.1600   16.4110 C.2    11  LEU11       0.2287
     12  O          5.7740  -14.6100   15.4300 O.2    11  LEU11      -0.2864
     13  CB         6.3300  -15.7310   17.9440 C.3    11  LEU11       0.0297
     14  CG         6.7820  -16.2620   19.3090 C.3    11  LEU11       0.0022
     15  CD1        7.1890  -17.7220   19.1410 C.3    11  LEU11       0.0001
     16  CD2        7.9370  -15.4510   19.8770 C.3    11  LEU11       0.0001
     17  N          2.8800  -17.8540    8.1990 N.3   101  TYR101     -0.1241
     18  CA         1.9680  -17.8230    9.3270 C.3   101  TYR101      0.1605
     19  C          0.5270  -17.5560    8.8880 C.2   101  TYR101      0.2264
     20  O         -0.2380  -18.4790    8.8220 O.2   101  TYR101     -0.2867
     21  CB         2.4950  -16.8360   10.3840 C.3   101  TYR101      0.0534
     22  CG         1.6800  -16.6740   11.6560 C.ar  101  TYR101     -0.0201
     23  CD1        1.2510  -17.7650   12.3900 C.ar  101  TYR101     -0.0009
     24  CD2        1.4260  -15.3910   12.1710 C.ar  101  TYR101     -0.0009
     25  CE1        0.5230  -17.5910   13.5750 C.ar  101  TYR101      0.0417
     26  CE2        0.7220  -15.2090   13.3390 C.ar  101  TYR101      0.0417
     27  CZ         0.2610  -16.3040   14.0410 C.ar  101  TYR101      0.1957
     28  OH        -0.4750  -16.0900   15.1800 O.3   101  TYR101     -0.2866
     29  N          4.5110   -8.1180   20.4070 N.3   127  TRP127     -0.1227
     30  CA         3.9960   -9.2450   21.1840 C.3   127  TRP127      0.1737
     31  C          4.8780   -9.6420   22.3940 C.2   127  TRP127      0.2595
     32  O          4.4870  -10.5040   23.1770 O.2   127  TRP127     -0.2718
     33  CB         3.7890  -10.4580   20.2780 C.3   127  TRP127      0.0564
     34  CG         4.7800  -10.5600   19.1910 C.ar  127  TRP127      0.0003
     35  CD1        4.5960  -10.2150   17.8680 C.ar  127  TRP127      0.0946
     36  CD2        6.1320  -11.0010   19.3060 C.ar  127  TRP127      0.0152
     37  NE1        5.7550  -10.4280   17.1630 N.ar  127  TRP127     -0.2442
     38  CE2        6.7120  -10.9120   18.0150 C.ar  127  TRP127      0.0810
     39  CE3        6.9080  -11.4740   20.3610 C.ar  127  TRP127      0.0012
     40  CZ2        8.0320  -11.2970   17.7590 C.ar  127  TRP127      0.0191
     41  CZ3        8.2210  -11.8460   20.1080 C.ar  127  TRP127      0.0001
     42  CH2        8.7720  -11.7570   18.8210 C.ar  127  TRP127      0.0015
     43  N          6.0590   -9.0570   22.5250 N.am  128  ARG128     -0.1980
     44  CA         6.8390   -9.2100   23.7440 C.3   128  ARG128      0.1597
     45  C          6.1230   -8.5600   24.9570 C.2   128  ARG128      0.2287
     46  O          6.3790   -8.9270   26.0960 O.2   128  ARG128     -0.2864
     47  CB         8.2210   -8.5560   23.5840 C.3   128  ARG128      0.0334
     48  CG         9.0470   -9.1870   22.4770 C.3   128  ARG128      0.0492
     49  CD        10.2480   -8.3290   22.1420 C.3   128  ARG128      0.2205
     50  NE         9.8980   -6.9390   21.8670 N.pl3 128  ARG128     -0.0865
     51  CZ        10.7880   -5.9470   21.8500 C.cat 128  ARG128      0.5346
     52  NH1       12.0830   -6.1850   22.0920 N.pl3 128  ARG128      0.1354
     53  NH2       10.3870   -4.7000   21.6000 N.pl3 128  ARG128      0.1354
     54  N         -5.6310  -15.1380   16.4060 N.3   161  HIS161     -0.1226
     55  CA        -4.9950  -16.4130   16.6640 C.3   161  HIS161      0.1752
     56  C         -4.1850  -16.3440   17.9340 C.2   161  HIS161      0.2597
     57  O         -3.4930  -15.3600   18.1890 O.2   161  HIS161     -0.2718
     58  CB        -4.0920  -16.8090   15.5120 C.3   161  HIS161      0.0759
     59  CG        -3.4060  -18.1230   15.7040 C.ar  161  HIS161      0.0818
     60  ND1       -2.0400  -18.2250   15.8540 N.ar  161  HIS161     -0.2268
     61  CD2       -3.8930  -19.3790   15.8010 C.ar  161  HIS161      0.1154
     62  CE1       -1.7130  -19.4870   16.0200 C.ar  161  HIS161      0.1986
     63  NE2       -2.8200  -20.2080   16.0010 N.ar  161  HIS161     -0.2212
     64  N         -4.2890  -17.4040   18.7390 N.am  162  SER162     -0.1938
     65  CA        -3.4900  -17.5520   19.9250 C.3   162  SER162      0.2055
     66  C         -3.5990  -16.2950   20.8020 C.2   162  SER162      0.2642
     67  O         -4.7200  -15.8920   21.1310 O.2   162  SER162     -0.2714
     68  CB        -2.0630  -17.8950   19.5240 C.3   162  SER162      0.2130
     69  OG        -1.3760  -18.4970   20.6090 O.3   162  SER162     -0.2179
     70  N         -2.4780  -15.7120   21.2200 N.am  163  MET163     -0.1976
     71  CA        -2.4950  -14.5710   22.1900 C.3   163  MET163      0.1605
     72  C         -3.2720  -13.3580   21.6560 C.2   163  MET163      0.2287
     73  O         -3.7090  -12.5090   22.4200 O.2   163  MET163     -0.2864
     74  CB        -1.0520  -14.1540   22.5620 C.3   163  MET163      0.0413
     75  CG        -0.9780  -13.0630   23.5890 C.3   163  MET163      0.0598
     76  SD         0.7010  -12.7560   24.1600 S.3   163  MET163     -0.1393
     77  CE         1.2890  -11.6240   22.9150 C.3   163  MET163      0.0692
     78  N         -5.8590  -18.9400   24.0410 N.3   193  PRO193     -0.2116
     79  CA        -5.4470  -19.3430   25.4100 C.3   193  PRO193      0.1372
     80  C         -6.1240  -18.5500   26.5310 C.2   193  PRO193      0.2244
     81  O         -5.4540  -17.9030   27.3570 O.2   193  PRO193     -0.2868
     82  CB        -3.9680  -19.0700   25.4000 C.3   193  PRO193      0.0268
     83  CG        -3.8760  -17.8320   24.5730 C.3   193  PRO193      0.0207
     84  CD        -4.9340  -17.9430   23.4930 C.3   193  PRO193      0.0892
     85  N         -1.7810  -20.7810   29.6070 N.3   197  VAL197     -0.1245
     86  CA        -1.3880  -22.1060   29.1740 C.3   197  VAL197      0.1561
     87  C         -0.2750  -22.6510   30.0570 C.2   197  VAL197      0.2260
     88  O          0.6070  -21.9130   30.4950 O.2   197  VAL197     -0.2867
     89  CB        -0.9090  -22.1480   27.7060 C.3   197  VAL197      0.0252
     90  CG1       -1.9860  -21.6330   26.7760 C.3   197  VAL197      0.0019
     91  CG2        0.3640  -21.3650   27.5100 C.3   197  VAL197      0.0019
     92  N          2.2380  -24.4090   29.5300 N.3   199  LYS199     -0.1231
     93  CA         3.5620  -24.3800   28.9270 C.3   199  LYS199      0.1693
     94  C          4.4190  -23.1740   29.3660 C.2   199  LYS199      0.2592
     95  O          5.6390  -23.2710   29.3910 O.2   199  LYS199     -0.2718
     96  CB         3.3640  -24.4600   27.4020 C.3   199  LYS199      0.0285
     97  CG         4.5420  -24.1730   26.5180 C.3   199  LYS199      0.0035
     98  CD         4.1440  -24.3480   25.0380 C.3   199  LYS199      0.0206
     99  CE         4.1200  -25.8280   24.6300 C.3   199  LYS199      0.1093
    100  NZ         3.7610  -26.0490   23.1940 N.3   199  LYS199     -0.1314
    101  N          3.7710  -22.0830   29.7730 N.am  200  THR200     -0.1953
    102  CA         4.4970  -20.9300   30.3170 C.3   200  THR200      0.1897
    103  C          5.3720  -21.2340   31.5210 C.2   200  THR200      0.2313
    104  O          6.4520  -20.6710   31.6680 O.2   200  THR200     -0.2863
    105  CB         3.5880  -19.7400   30.6660 C.3   200  THR200      0.1794
    106  OG1        2.4490  -20.1750   31.3900 O.3   200  THR200     -0.2208
    107  CG2        3.0980  -19.1030   29.3900 C.3   200  THR200      0.0378
    108  N          8.7210  -22.7110   30.2330 N.3   203  VAL203     -0.1245
    109  CA         9.4660  -21.6530   29.5520 C.3   203  VAL203      0.1561
    110  C         10.2160  -20.8000   30.5880 C.2   203  VAL203      0.2260
    111  O         11.4180  -20.5530   30.4510 O.2   203  VAL203     -0.2867
    112  CB         8.5210  -20.7530   28.7120 C.3   203  VAL203      0.0252
    113  CG1        9.2660  -19.5450   28.1760 C.3   203  VAL203      0.0019
    114  CG2        7.9060  -21.5250   27.5440 C.3   203  VAL203      0.0019
    115  N         15.8340  -14.5540   27.0890 N.3   223  GLN223     -0.1231
    116  CA        14.9240  -13.7680   26.2600 C.3   223  GLN223      0.1698
    117  C         13.4790  -14.0140   26.6380 C.2   223  GLN223      0.2592
    118  O         12.6480  -13.1040   26.7030 O.2   223  GLN223     -0.2718
    119  CB        15.1200  -14.0780   24.7600 C.3   223  GLN223      0.0381
    120  CG        14.2220  -13.2670   23.8360 C.3   223  GLN223      0.0905
    121  CD        12.8340  -13.8380   23.6920 C.2   223  GLN223      0.2608
    122  OE1       11.8220  -13.1020   23.6480 O.2   223  GLN223     -0.2717
    123  NE2       12.7610  -15.1450   23.6060 N.am  223  GLN223     -0.0878
    124  N         13.1610  -15.2710   26.8260 N.am  224  GLN224     -0.1979
    125  CA        11.7750  -15.6670   26.9960 C.3   224  GLN224      0.1601
    126  C         11.2060  -15.1010   28.3090 C.2   224  GLN224      0.2287
    127  O         10.0380  -14.7160   28.3680 O.2   224  GLN224     -0.2864
    128  CB        11.6810  -17.1970   26.9670 C.3   224  GLN224      0.0394
    129  CG        12.0510  -17.8020   25.6330 C.3   224  GLN224      0.0908
    130  CD        12.1930  -19.3060   25.6550 C.2   224  GLN224      0.2608
    131  OE1       12.6390  -19.9100   26.6470 O.2   224  GLN224     -0.2717
    132  NE2       11.8100  -19.9330   24.5520 N.am  224  GLN224     -0.0878
    133  N         10.2460  -11.2010   28.1330 N.3   227  ALA227     -0.1245
    134  CA         8.9780  -10.8700   27.5090 C.3   227  ALA227      0.1562
    135  C          7.8210  -10.8940   28.5210 C.2   227  ALA227      0.2260
    136  O          7.4450  -11.9520   28.9980 O.2   227  ALA227     -0.2867
    137  CB         8.6940  -11.8430   26.3560 C.3   227  ALA227      0.0290
    138  N          4.7150  -10.6930   28.0410 N.3   229  SER229     -0.1202
    139  CA         3.6460  -11.5550   27.5610 C.3   229  SER229      0.2020
    140  C          3.7730  -12.9820   28.1070 C.2   229  SER229      0.2619
    141  O          2.7630  -13.6620   28.2580 O.2   229  SER229     -0.2717
    142  CB         3.5590  -11.5570   26.0050 C.3   229  SER229      0.2103
    143  OG         4.8140  -11.8330   25.3660 O.3   229  SER229     -0.2182
    144  N          4.9850  -13.4500   28.3730 N.am  230  THR230     -0.1952
    145  CA         5.1370  -14.8210   28.8640 C.3   230  THR230      0.1897
    146  C          4.4970  -14.9510   30.2510 C.2   230  THR230      0.2313
    147  O          3.7500  -15.8850   30.4740 O.2   230  THR230     -0.2863
    148  CB         6.6130  -15.2760   28.9440 C.3   230  THR230      0.1794
    149  OG1        7.2380  -15.0900   27.6730 O.3   230  THR230     -0.2208
    150  CG2        6.7080  -16.7470   29.2930 C.3   230  THR230      0.0378
    151  N          0.6900  -14.8440   30.3430 N.3   233  LEU233     -0.1245
    152  CA        -0.0280  -16.0740   29.9600 C.3   233  LEU233      0.1561
    153  C          0.0900  -17.2720   30.9160 C.2   233  LEU233      0.2260
    154  O         -0.2880  -18.3930   30.5390 O.2   233  LEU233     -0.2867
    155  CB         0.3790  -16.5170   28.5430 C.3   233  LEU233      0.0270
    156  CG        -0.0070  -15.5600   27.4200 C.3   233  LEU233      0.0019
    157  CD1        0.4570  -16.1100   26.1010 C.3   233  LEU233      0.0001
    158  CD2       -1.4960  -15.2910   27.3840 C.3   233  LEU233      0.0001
    159  N         -0.5140  -26.7350   22.1760 N.3   326  THR326     -0.1203
    160  CA        -0.0170  -25.5200   22.8350 C.3   326  THR326      0.1994
    161  C         -1.0710  -25.0290   23.8290 C.2   326  THR326      0.2617
    162  O         -0.8010  -24.9150   25.0140 O.2   326  THR326     -0.2717
    163  CB         0.2930  -24.4230   21.7930 C.3   326  THR326      0.1784
    164  OG1        1.4710  -24.7780   21.0630 O.3   326  THR326     -0.2211
    165  CG2        0.5350  -23.0650   22.4630 C.3   326  THR326      0.0376
    166  N         -2.2670  -24.7450   23.3270 N.am  327  VAL327     -0.1979
    167  CA        -3.3860  -24.3350   24.1450 C.3   327  VAL327      0.1595
    168  C         -4.1080  -25.5230   24.7480 C.2   327  VAL327      0.2287
    169  O         -4.6190  -26.4000   24.0290 O.2   327  VAL327     -0.2864
    170  CB        -4.4050  -23.5510   23.3030 C.3   327  VAL327      0.0276
    171  CG1       -5.6460  -23.1950   24.1220 C.3   327  VAL327      0.0022
    172  CG2       -3.7240  -22.3160   22.7340 C.3   327  VAL327      0.0022
    173  N         -2.0100  -26.3310   16.7630 N.3   356  HIS356     -0.1226
    174  CA        -2.1550  -24.9130   17.0590 C.3   356  HIS356      0.1752
    175  C         -1.8850  -23.9670   15.9030 C.2   356  HIS356      0.2595
    176  O         -2.6820  -23.0630   15.6210 O.2   356  HIS356     -0.2718
    177  CB        -1.2270  -24.5410   18.2150 C.3   356  HIS356      0.0759
    178  CG        -1.4000  -23.1380   18.6750 C.ar  356  HIS356      0.0818
    179  ND1       -2.5850  -22.6730   19.2010 N.ar  356  HIS356     -0.2268
    180  CD2       -0.5570  -22.0790   18.6480 C.ar  356  HIS356      0.1154
    181  CE1       -2.4510  -21.3990   19.5230 C.ar  356  HIS356      0.1986
    182  NE2       -1.2260  -21.0200   19.2100 N.ar  356  HIS356     -0.2212
    183  N         -0.7450  -24.1660   15.2550 N.am  357  ILE357     -0.1980
    184  CA        -0.3430  -23.3250   14.1530 C.3   357  ILE357      0.1595
    185  C         -0.9400  -23.8030   12.8300 C.2   357  ILE357      0.2287
    186  O         -1.4460  -22.9800   12.0540 O.2   357  ILE357     -0.2864
    187  CB         1.1780  -23.2450   14.0630 C.3   357  ILE357      0.0276
    188  CG1        1.6890  -22.4320   15.2360 C.3   357  ILE357      0.0022
    189  CG2        1.6030  -22.5950   12.7440 C.3   357  ILE357      0.0022
    190  CD1        3.1790  -22.5270   15.4020 C.3   357  ILE357      0.0001
@<TRIPOS>BOND
     1    17    18    1
     2    20    19    2
     3    19    18    1
     4    18    21    1
     5    21    22    1
     6    22    24   ar
     7    22    23   ar
     8   186   185    2
     9    24    26   ar
    10    23    25   ar
    11   189   187    1
    12   185   184    1
    13    26    27   ar
    14    25    27   ar
    15    27    28    1
    16   187   184    1
    17   187   188    1
    18   184   183    1
    19   188   190    1
    20   183   175   am
    21    12    11    2
    22    58    59    1
    23    58    55    1
    24   176   175    2
    25    59    61   ar
    26    59    60   ar
    27    61    63   ar
    28    60    62   ar
    29   175   174    1
    30    63    62   ar
    31    54    55    1
    32    11    10    1
    33    55    56    1
    34   173   174    1
    35   174   177    1
    36    37    35   ar
    37    37    38   ar
    38    40    38   ar
    39    40    42   ar
    40    10    13    1
    41    10     9    1
    42    35    34   ar
    43    56    57    2
    44    56    64   am
    45    13    14    1
    46    38    36   ar
    47   177   178    1
    48     4     3    2
    49   180   178   ar
    50   180   182   ar
    51   178   179   ar
    52    64    65    1
    53    42    41   ar
    54     9     3   am
    55     3     2    1
    56    15    14    1
    57    34    36   ar
    58    34    33    1
    59   179   181   ar
    60   182   181   ar
    61    36    39   ar
    62    14    16    1
    63    68    65    1
    64    68    69    1
    65     1     2    1
    66    65    66    1
    67    41    39   ar
    68     2     5    1
    69    33    30    1
    70    29    30    1
    71    66    67    2
    72    66    70   am
    73   164   163    1
    74    30    31    1
    75    70    71    1
    76     5     6    1
    77    53    51    1
    78    72    71    1
    79    72    73    2
    80   163   165    1
    81   163   160    1
    82    51    50    2
    83    51    52    1
    84    50    49    1
    85     7     6   ar
    86    49    48    1
    87   159   160    1
    88    71    74    1
    89     6     8   ar
    90    31    43   am
    91    31    32    2
    92    48    47    1
    93    43    44    1
    94    74    75    1
    95   172   170    1
    96   160   161    1
    97    77    76    1
    98   100    99    1
    99   170   171    1
   100   170   167    1
   101   166   161   am
   102   166   167    1
   103    84    78    1
   104    84    83    1
   105    47    44    1
   106    75    76    1
   107   123   121   am
   108   122   121    2
   109   121   120    1
   110    44    45    1
   111   161   162    2
   112   120   119    1
   113   169   168    2
   114    78    79    1
   115   167   168    1
   116   132   130   am
   117    83    82    1
   118    99    98    1
   119   119   116    1
   120    45    46    2
   121    98    97    1
   122   143   142    1
   123    82    79    1
   124    79    80    1
   125   129   130    1
   126   129   128    1
   127   130   131    2
   128   142   139    1
   129   157   156    1
   130   116   117    1
   131   116   115    1
   132   137   134    1
   133    97    96    1
   134    80    81    2
   135   117   118    2
   136   117   124   am
   137    90    89    1
   138   124   125    1
   139   128   125    1
   140   125   126    1
   141   158   156    1
   142    96    93    1
   143   156   155    1
   144   134   133    1
   145   134   135    1
   146    91    89    1
   147   114   112    1
   148   139   138    1
   149   139   140    1
   150   149   148    1
   151    89    86    1
   152   140   141    2
   153   140   144   am
   154   113   112    1
   155   126   127    2
   156   144   145    1
   157   135   136    2
   158   155   152    1
   159   112   109    1
   160   145   148    1
   161   145   146    1
   162    93    94    1
   163    93    92    1
   164   148   150    1
   165    86    85    1
   166    86    87    1
   167    94    95    2
   168    94   101   am
   169   107   105    1
   170   109   108    1
   171   109   110    1
   172   101   102    1
   173   152   151    1
   174   152   153    1
   175    87    88    2
   176   146   147    2
   177   102   105    1
   178   102   103    1
   179   111   110    2
   180   154   153    2
   181   105   106    1
   182   103   104    2
