@<TRIPOS>MOLECULE
tmp/4x91A06.pdb
 111 108 0 0 0
SMALL
GASTEIGER

@<TRIPOS>ATOM
      1  N          4.8660  -13.9710   18.8800 N.3    11  LEU11      -0.1245
      2  CA         5.8130  -14.2930   17.8110 C.3    11  LEU11       0.1561
      3  C          5.1980  -14.1600   16.4110 C.2    11  LEU11       0.2260
      4  O          5.7740  -14.6100   15.4300 O.2    11  LEU11      -0.2867
      5  CB         6.3300  -15.7310   17.9440 C.3    11  LEU11       0.0270
      6  CG         6.7820  -16.2620   19.3090 C.3    11  LEU11       0.0019
      7  CD1        7.1890  -17.7220   19.1410 C.3    11  LEU11       0.0001
      8  CD2        7.9370  -15.4510   19.8770 C.3    11  LEU11       0.0001
      9  N         12.9500  -10.1390   13.9130 N.3    40  TRP40      -0.1241
     10  CA        12.1240  -11.3470   13.9250 C.3    40  TRP40       0.1605
     11  C         11.2530  -11.3250   12.6610 C.2    40  TRP40       0.2264
     12  O         10.5700  -10.3210   12.4430 O.2    40  TRP40      -0.2867
     13  CB        11.2190  -11.3890   15.1710 C.3    40  TRP40       0.0550
     14  CG        10.3570  -12.6310   15.2680 C.ar   40  TRP40       0.0003
     15  CD1        9.0350  -12.7440   14.9270 C.ar   40  TRP40       0.0946
     16  CD2       10.7600  -13.9190   15.7200 C.ar   40  TRP40       0.0152
     17  NE1        8.5850  -14.0070   15.1780 N.ar   40  TRP40      -0.2442
     18  CE2        9.6320  -14.7590   15.6390 C.ar   40  TRP40       0.0810
     19  CE3       11.9710  -14.4460   16.1830 C.ar   40  TRP40       0.0012
     20  CZ2        9.6670  -16.0880   16.0160 C.ar   40  TRP40       0.0191
     21  CZ3       12.0190  -15.7710   16.5490 C.ar   40  TRP40       0.0001
     22  CH2       10.8680  -16.5820   16.4720 C.ar   40  TRP40       0.0015
     23  N         19.7420  -16.5540   14.7250 N.3    46  LEU46      -0.1245
     24  CA        19.5350  -17.5570   15.7750 C.3    46  LEU46       0.1561
     25  C         20.5870  -18.6820   15.7940 C.2    46  LEU46       0.2260
     26  O         20.4910  -19.6110   16.5830 O.2    46  LEU46      -0.2867
     27  CB        18.1330  -18.1580   15.6320 C.3    46  LEU46       0.0270
     28  CG        16.9670  -17.1510   15.5030 C.3    46  LEU46       0.0019
     29  CD1       15.6320  -17.8600   15.3150 C.3    46  LEU46       0.0001
     30  CD2       16.9280  -16.2280   16.7160 C.3    46  LEU46       0.0001
     31  N         21.4460  -11.3680   19.1930 N.3    54  TRP54      -0.1241
     32  CA        20.0140  -11.2730   18.9960 C.3    54  TRP54       0.1605
     33  C         19.3300  -11.0970   20.3490 C.2    54  TRP54       0.2264
     34  O         18.5440  -10.1650   20.5450 O.2    54  TRP54      -0.2867
     35  CB        19.5390  -12.5250   18.2510 C.3    54  TRP54       0.0550
     36  CG        18.0590  -12.6070   18.0600 C.ar   54  TRP54       0.0003
     37  CD1       17.3260  -11.9820   17.1210 C.ar   54  TRP54       0.0946
     38  CD2       17.1570  -13.3850   18.8310 C.ar   54  TRP54       0.0152
     39  NE1       16.0090  -12.3080   17.2600 N.ar   54  TRP54      -0.2442
     40  CE2       15.8780  -13.1750   18.3070 C.ar   54  TRP54       0.0810
     41  CE3       17.3090  -14.2220   19.9360 C.ar   54  TRP54       0.0012
     42  CZ2       14.7410  -13.7850   18.8380 C.ar   54  TRP54       0.0191
     43  CZ3       16.1770  -14.8310   20.4830 C.ar   54  TRP54       0.0001
     44  CH2       14.9130  -14.6100   19.9290 C.ar   54  TRP54       0.0015
     45  N          4.5110   -8.1180   20.4070 N.3   127  TRP127     -0.1241
     46  CA         3.9960   -9.2450   21.1840 C.3   127  TRP127      0.1605
     47  C          4.8780   -9.6420   22.3940 C.2   127  TRP127      0.2264
     48  O          4.4870  -10.5040   23.1770 O.2   127  TRP127     -0.2867
     49  CB         3.7890  -10.4580   20.2780 C.3   127  TRP127      0.0550
     50  CG         4.7800  -10.5600   19.1910 C.ar  127  TRP127      0.0003
     51  CD1        4.5960  -10.2150   17.8680 C.ar  127  TRP127      0.0946
     52  CD2        6.1320  -11.0010   19.3060 C.ar  127  TRP127      0.0152
     53  NE1        5.7550  -10.4280   17.1630 N.ar  127  TRP127     -0.2442
     54  CE2        6.7120  -10.9120   18.0150 C.ar  127  TRP127      0.0810
     55  CE3        6.9080  -11.4740   20.3610 C.ar  127  TRP127      0.0012
     56  CZ2        8.0320  -11.2970   17.7590 C.ar  127  TRP127      0.0191
     57  CZ3        8.2210  -11.8460   20.1080 C.ar  127  TRP127      0.0001
     58  CH2        8.7720  -11.7570   18.8210 C.ar  127  TRP127      0.0015
     59  N         12.6970  -22.9420   26.8060 N.3   208  ASP208     -0.1239
     60  CA        12.1250  -23.8130   25.7770 C.3   208  ASP208      0.1674
     61  C         12.8130  -23.5230   24.4480 C.2   208  ASP208      0.2266
     62  O         12.6000  -22.4730   23.8270 O.2   208  ASP208     -0.2867
     63  CB        10.5920  -23.6150   25.6870 C.3   208  ASP208      0.1410
     64  CG         9.9160  -24.5760   24.7230 C.2   208  ASP208      0.3668
     65  OD1       10.6080  -25.3550   24.0560 O.co2 208  ASP208     -0.2456
     66  OD2        8.6730  -24.5260   24.5920 O.co2 208  ASP208     -0.2456
     67  N         11.8340  -25.4260   19.3170 N.3   211  ARG211     -0.1231
     68  CA        11.8550  -25.0180   17.9260 C.3   211  ARG211      0.1694
     69  C         13.2050  -24.4660   17.4640 C.2   211  ARG211      0.2591
     70  O         13.2880  -23.7950   16.4420 O.2   211  ARG211     -0.2718
     71  CB        10.7430  -23.9890   17.7200 C.3   211  ARG211      0.0321
     72  CG         9.3640  -24.5240   18.1790 C.3   211  ARG211      0.0489
     73  CD         8.4390  -24.6280   16.9790 C.3   211  ARG211      0.2205
     74  NE         7.0410  -24.9210   17.3090 N.pl3 211  ARG211     -0.0865
     75  CZ         6.1310  -25.3020   16.4120 C.cat 211  ARG211      0.5346
     76  NH1        6.4560  -25.4200   15.1280 N.pl3 211  ARG211      0.1354
     77  NH2        4.8840  -25.5530   16.7990 N.pl3 211  ARG211      0.1354
     78  N         14.2530  -24.7590   18.2230 N.am  212  ILE212     -0.1980
     79  CA        15.5780  -24.2410   17.9490 C.3   212  ILE212      0.1595
     80  C         16.5950  -25.0970   18.7350 C.2   212  ILE212      0.2287
     81  O         17.3830  -24.5900   19.5480 O.2   212  ILE212     -0.2864
     82  CB        15.6300  -22.7450   18.3660 C.3   212  ILE212      0.0276
     83  CG1       16.8660  -22.0590   17.8250 C.3   212  ILE212      0.0022
     84  CG2       15.5870  -22.5790   19.8880 C.3   212  ILE212      0.0022
     85  CD1       16.9710  -20.6150   18.2480 C.3   212  ILE212      0.0001
     86  N         18.2560  -19.3420   25.7230 N.3   220  ILE220     -0.1245
     87  CA        17.0200  -18.7460   25.2260 C.3   220  ILE220      0.1561
     88  C         16.0710  -18.3400   26.3660 C.2   220  ILE220      0.2260
     89  O         15.1860  -17.5080   26.1800 O.2   220  ILE220     -0.2867
     90  CB        16.3380  -19.6900   24.2020 C.3   220  ILE220      0.0252
     91  CG1       15.2740  -18.9670   23.4010 C.3   220  ILE220      0.0019
     92  CG2       15.7060  -20.9050   24.8680 C.3   220  ILE220      0.0019
     93  CD1       15.8140  -17.8760   22.5130 C.3   220  ILE220      0.0001
     94  N         15.8340  -14.5540   27.0890 N.3   223  GLN223     -0.1231
     95  CA        14.9240  -13.7680   26.2600 C.3   223  GLN223      0.1698
     96  C         13.4790  -14.0140   26.6380 C.2   223  GLN223      0.2592
     97  O         12.6480  -13.1040   26.7030 O.2   223  GLN223     -0.2718
     98  CB        15.1200  -14.0780   24.7600 C.3   223  GLN223      0.0381
     99  CG        14.2220  -13.2670   23.8360 C.3   223  GLN223      0.0905
    100  CD        12.8340  -13.8380   23.6920 C.2   223  GLN223      0.2608
    101  OE1       11.8220  -13.1020   23.6480 O.2   223  GLN223     -0.2717
    102  NE2       12.7610  -15.1450   23.6060 N.am  223  GLN223     -0.0878
    103  N         13.1610  -15.2710   26.8260 N.am  224  GLN224     -0.1979
    104  CA        11.7750  -15.6670   26.9960 C.3   224  GLN224      0.1601
    105  C         11.2060  -15.1010   28.3090 C.2   224  GLN224      0.2287
    106  O         10.0380  -14.7160   28.3680 O.2   224  GLN224     -0.2864
    107  CB        11.6810  -17.1970   26.9670 C.3   224  GLN224      0.0394
    108  CG        12.0510  -17.8020   25.6330 C.3   224  GLN224      0.0908
    109  CD        12.1930  -19.3060   25.6550 C.2   224  GLN224      0.2608
    110  OE1       12.6390  -19.9100   26.6470 O.2   224  GLN224     -0.2717
    111  NE2       11.8100  -19.9330   24.5520 N.am  224  GLN224     -0.0878
@<TRIPOS>BOND
     1    12    11    2
     2    11    10    1
     3     9    10    1
     4    10    13    1
     5    23    24    1
     6    15    17   ar
     7    15    14   ar
     8    76    75    1
     9    13    14    1
    10    17    18   ar
    11    14    16   ar
    12    29    28    1
    13     4     3    2
    14    28    27    1
    15    28    30    1
    16    27    24    1
    17    18    16   ar
    18    18    20   ar
    19    16    19   ar
    20    24    25    1
    21    25    26    2
    22    20    22   ar
    23    19    21   ar
    24     3     2    1
    25    75    77    1
    26    75    74    2
    27    70    69    2
    28    22    21   ar
    29    73    74    1
    30    73    72    1
    31    37    39   ar
    32    37    36   ar
    33    53    51   ar
    34    53    54   ar
    35    39    40   ar
    36    69    68    1
    37    69    78   am
    38    71    68    1
    39    71    72    1
    40    56    54   ar
    41    56    58   ar
    42     2     5    1
    43     2     1    1
    44    83    85    1
    45    83    82    1
    46    51    50   ar
    47    68    67    1
    48     5     6    1
    49    79    78    1
    50    79    82    1
    51    79    80    1
    52    54    52   ar
    53    36    35    1
    54    36    38   ar
    55    35    32    1
    56    40    38   ar
    57    40    42   ar
    58    82    84    1
    59    80    81    2
    60    58    57   ar
    61    38    41   ar
    62    42    44   ar
    63    32    31    1
    64    32    33    1
    65     7     6    1
    66    50    52   ar
    67    50    49    1
    68    52    55   ar
    69     6     8    1
    70    44    43   ar
    71    41    43   ar
    72    57    55   ar
    73    49    46    1
    74    33    34    2
    75    45    46    1
    76    46    47    1
    77    47    48    2
    78    93    91    1
    79    91    90    1
    80   102   100   am
    81   101   100    2
    82   100    99    1
    83    62    61    2
    84    99    98    1
    85    65    64   ar
    86    90    92    1
    87    90    87    1
    88    61    60    1
    89   111   109   am
    90    66    64   ar
    91    64    63    1
    92    98    95    1
    93    87    86    1
    94    87    88    1
    95   108   109    1
    96   108   107    1
    97   109   110    2
    98    63    60    1
    99    60    59    1
   100    89    88    2
   101    95    96    1
   102    95    94    1
   103    96    97    2
   104    96   103   am
   105   103   104    1
   106   107   104    1
   107   104   105    1
   108   105   106    2
