@<TRIPOS>MOLECULE
tmp/4x91A05.pdb
 114 110 0 0 0
SMALL
GASTEIGER

@<TRIPOS>ATOM
      1  N         19.9600    0.1270   15.5640 N.3    19  LEU19      -0.1245
      2  CA        20.9550    0.0700   16.6200 C.3    19  LEU19       0.1561
      3  C         21.9070    1.2600   16.6340 C.2    19  LEU19       0.2260
      4  O         22.3490    1.7590   15.5930 O.2    19  LEU19      -0.2867
      5  CB        21.8050   -1.1870   16.4780 C.3    19  LEU19       0.0270
      6  CG        21.1000   -2.5160   16.2470 C.3    19  LEU19       0.0019
      7  CD1       22.0970   -3.6420   16.0190 C.3    19  LEU19       0.0001
      8  CD2       20.1960   -2.8390   17.4180 C.3    19  LEU19       0.0001
      9  N         31.6490   -9.7800   16.6870 N.3    28  LEU28      -0.1231
     10  CA        30.8520  -10.0220   15.4970 C.3    28  LEU28       0.1693
     11  C         29.4020   -9.4930   15.5840 C.2    28  LEU28       0.2592
     12  O         28.6950   -9.5610   14.6020 O.2    28  LEU28      -0.2718
     13  CB        30.9000  -11.5050   15.0920 C.3    28  LEU28       0.0284
     14  CG        30.4270  -12.5720   16.0900 C.3    28  LEU28       0.0019
     15  CD1       28.9700  -12.9000   15.8480 C.3    28  LEU28       0.0001
     16  CD2       31.2830  -13.8260   15.9900 C.3    28  LEU28       0.0001
     17  N         28.9660   -8.9570   16.7250 N.am   29  CYS29      -0.1956
     18  CA        27.6480   -8.2740   16.7930 C.3    29  CYS29       0.1843
     19  C         27.7770   -6.8560   16.2410 C.2    29  CYS29       0.2626
     20  O         28.7130   -6.1670   16.5740 O.2    29  CYS29      -0.2714
     21  CB        27.1270   -8.1740   18.2460 C.3    29  CYS29       0.0997
     22  SG        26.9870   -9.7010   19.2180 S.3    29  CYS29      -0.0797
     23  N         26.8170   -6.4050   15.4460 N.am   30  SER30      -0.1950
     24  CA        26.7820   -5.0070   14.9690 C.3    30  SER30       0.1924
     25  C         26.4440   -3.9930   16.0750 C.2    30  SER30       0.2314
     26  O         25.4550   -4.1450   16.7780 O.2    30  SER30      -0.2863
     27  CB        25.7360   -4.8520   13.8560 C.3    30  SER30       0.2116
     28  OG        26.1430   -5.5200   12.6680 O.3    30  SER30      -0.2180
     29  N         25.9590   -0.6110   15.3720 N.3    32  LYS32      -0.1231
     30  CA        25.2070    0.4980   14.8120 C.3    32  LYS32       0.1693
     31  C         24.6380    0.1040   13.4540 C.2    32  LYS32       0.2593
     32  O         25.2800   -0.6040   12.7010 O.2    32  LYS32      -0.2718
     33  CB        26.1450    1.6850   14.6870 C.3    32  LYS32       0.0285
     34  CG        25.4990    3.0050   14.2950 C.3    32  LYS32       0.0035
     35  CD        26.4050    4.1690   14.7120 C.3    32  LYS32       0.0206
     36  CE        26.2110    5.4120   13.8590 C.3    32  LYS32       0.1093
     37  NZ        24.7720    5.6730   13.5750 N.3    32  LYS32      -0.1314
     38  N         23.4100    0.5270   13.1690 N.am   33  THR33      -0.1939
     39  CA        22.8390    0.3730   11.8430 C.3    33  THR33       0.2028
     40  C         22.2590    1.7250   11.4040 C.2    33  THR33       0.2642
     41  O         21.7310    2.4670   12.2280 O.2    33  THR33      -0.2714
     42  CB        21.7740   -0.7360   11.8160 C.3    33  THR33       0.1808
     43  OG1       20.6040   -0.3310   12.5450 O.3    33  THR33      -0.2208
     44  CG2       22.3500   -2.0380   12.4110 C.3    33  THR33       0.0379
     45  N         22.3470    2.0390   10.1110 N.am   34  GLU34      -0.1963
     46  CA        21.8250    3.3150    9.6070 C.3    34  GLU34       0.1733
     47  C         20.2950    3.2400    9.4070 C.2    34  GLU34       0.2617
     48  O         19.6140    4.2620    9.4040 O.2    34  GLU34      -0.2715
     49  CB        22.5260    3.7390    8.3200 C.3    34  GLU34       0.0429
     50  CG        24.0560    3.5970    8.3250 C.3    34  GLU34       0.1163
     51  CD        24.8250    4.6450    9.1530 C.2    34  GLU34       0.3649
     52  OE1       24.3470    5.0670   10.2350 O.co2  34  GLU34      -0.2457
     53  OE2       25.9460    5.0320    8.7200 O.co2  34  GLU34      -0.2457
     54  N         19.7650    2.0280    9.2740 N.am   35  SER35      -0.1950
     55  CA        18.3470    1.8370    9.1490 C.3    35  SER35       0.1924
     56  C         17.8750    0.6150    9.9430 C.2    35  SER35       0.2314
     57  O         18.6560   -0.0240   10.6400 O.2    35  SER35      -0.2863
     58  CB        17.9830    1.6840    7.6650 C.3    35  SER35       0.2116
     59  OG        18.5660    0.5270    7.1390 O.3    35  SER35      -0.2180
     60  N         16.5230   -3.2020   10.4550 N.3    37  PHE37      -0.1241
     61  CA        16.6380   -4.5250    9.8640 C.3    37  PHE37       0.1605
     62  C         15.6630   -5.4440   10.5990 C.2    37  PHE37       0.2264
     63  O         15.1890   -5.1200   11.6830 O.2    37  PHE37      -0.2867
     64  CB        18.0720   -5.0680    9.9770 C.3    37  PHE37       0.0534
     65  CG        18.5070   -5.3700   11.3830 C.ar   37  PHE37      -0.0203
     66  CD1       18.9640   -4.3580   12.2210 C.ar   37  PHE37      -0.0042
     67  CD2       18.4610   -6.6750   11.8810 C.ar   37  PHE37      -0.0042
     68  CE1       19.3690   -4.6410   13.5250 C.ar   37  PHE37      -0.0003
     69  CE2       18.8710   -6.9660   13.1870 C.ar   37  PHE37      -0.0003
     70  CZ        19.3130   -5.9400   14.0130 C.ar   37  PHE37      -0.0000
     71  N         20.0950  -15.0070   12.5050 N.3    45  LEU45      -0.1245
     72  CA        20.3980  -14.3750   13.7990 C.3    45  LEU45       0.1561
     73  C         20.2690  -15.3580   14.9800 C.2    45  LEU45       0.2260
     74  O         20.6590  -15.0320   16.1010 O.2    45  LEU45      -0.2867
     75  CB        19.5020  -13.1530   14.0750 C.3    45  LEU45       0.0270
     76  CG        19.6490  -11.7280   13.4940 C.3    45  LEU45       0.0019
     77  CD1       20.6880  -11.6150   12.3810 C.3    45  LEU45       0.0001
     78  CD2       18.3440  -11.0260   13.1060 C.3    45  LEU45       0.0001
     79  N         26.0410  -16.0580   17.3760 N.3    50  ILE50      -0.1245
     80  CA        25.2600  -14.9390   16.8010 C.3    50  ILE50       0.1561
     81  C         23.9970  -14.6460   17.6260 C.2    50  ILE50       0.2260
     82  O         23.5420  -13.4960   17.7090 O.2    50  ILE50      -0.2867
     83  CB        24.8520  -15.2230   15.3220 C.3    50  ILE50       0.0252
     84  CG1       26.0960  -15.6950   14.5120 C.3    50  ILE50       0.0019
     85  CG2       24.1390  -14.0130   14.7320 C.3    50  ILE50       0.0019
     86  CD1       26.0860  -15.5090   12.9990 C.3    50  ILE50       0.0001
     87  N         23.9570  -11.9220   20.2190 N.3    53  CYS53      -0.1221
     88  CA        23.6770  -10.6010   19.6690 C.3    53  CYS53       0.1808
     89  C         22.1640  -10.3530   19.6440 C.2    53  CYS53       0.2601
     90  O         21.6720   -9.2720   19.9950 O.2    53  CYS53      -0.2717
     91  CB        24.2400  -10.4620   18.2480 C.3    53  CYS53       0.0970
     92  SG        25.9690  -10.9770   18.0270 S.3    53  CYS53      -0.0800
     93  N         21.4460  -11.3680   19.1930 N.am   54  TRP54      -0.1976
     94  CA        20.0140  -11.2730   18.9960 C.3    54  TRP54       0.1640
     95  C         19.3300  -11.0970   20.3490 C.2    54  TRP54       0.2290
     96  O         18.5440  -10.1650   20.5450 O.2    54  TRP54      -0.2864
     97  CB        19.5390  -12.5250   18.2510 C.3    54  TRP54       0.0576
     98  CG        18.0590  -12.6070   18.0600 C.ar   54  TRP54       0.0006
     99  CD1       17.3260  -11.9820   17.1210 C.ar   54  TRP54       0.0946
    100  CD2       17.1570  -13.3850   18.8310 C.ar   54  TRP54       0.0152
    101  NE1       16.0090  -12.3080   17.2600 N.ar   54  TRP54      -0.2442
    102  CE2       15.8780  -13.1750   18.3070 C.ar   54  TRP54       0.0810
    103  CE3       17.3090  -14.2220   19.9360 C.ar   54  TRP54       0.0012
    104  CZ2       14.7410  -13.7850   18.8380 C.ar   54  TRP54       0.0191
    105  CZ3       16.1770  -14.8310   20.4830 C.ar   54  TRP54       0.0001
    106  CH2       14.9130  -14.6100   19.9290 C.ar   54  TRP54       0.0015
    107  N         19.6440   -7.7070   21.7820 N.3    57  ASN57      -0.1240
    108  CA        18.8110   -6.6850   21.1190 C.3    57  ASN57       0.1653
    109  C         17.2970   -6.8200   21.3770 C.2    57  ASN57       0.2266
    110  O         16.5700   -5.8270   21.4730 O.2    57  ASN57      -0.2867
    111  CB        19.0460   -6.7260   19.5910 C.3    57  ASN57       0.1155
    112  CG        20.4210   -6.2230   19.1750 C.2    57  ASN57       0.2627
    113  OD1       20.9620   -5.3140   19.7630 O.2    57  ASN57      -0.2716
    114  ND2       20.9770   -6.8180   18.1320 N.am   57  ASN57      -0.0877
@<TRIPOS>BOND
     1    59    58    1
     2    58    55    1
     3    49    50    1
     4    49    46    1
     5    50    51    1
     6    53    51   ar
     7    55    54    1
     8    55    56    1
     9    51    52   ar
    10    54    47   am
    11    48    47    2
    12    47    46    1
    13    46    45    1
    14    61    64    1
    15    61    60    1
    16    61    62    1
    17    56    57    2
    18    64    65    1
    19    45    40   am
    20    62    63    2
    21    65    67   ar
    22    65    66   ar
    23    40    39    1
    24    40    41    2
    25    42    39    1
    26    42    44    1
    27    42    43    1
    28    39    38    1
    29    67    69   ar
    30    66    68   ar
    31    77    76    1
    32    71    72    1
    33    28    27    1
    34    32    31    2
    35    86    84    1
    36    78    76    1
    37    38    31   am
    38    69    70   ar
    39    31    30    1
    40    76    75    1
    41    68    70   ar
    42    37    36    1
    43    72    75    1
    44    72    73    1
    45    27    24    1
    46    36    35    1
    47    34    33    1
    48    34    35    1
    49    84    83    1
    50    12    11    2
    51    33    30    1
    52    85    83    1
    53    30    29    1
    54    24    23    1
    55    24    25    1
    56    73    74    2
    57    13    10    1
    58    13    14    1
    59    83    80    1
    60    23    19   am
    61    10    11    1
    62    10     9    1
    63     1     2    1
    64    11    17   am
    65     4     3    2
    66    15    14    1
    67    16    14    1
    68     7     6    1
    69    25    26    2
    70    19    20    2
    71    19    18    1
    72     6     5    1
    73     6     8    1
    74     5     2    1
    75     2     3    1
    76    17    18    1
    77    18    21    1
    78    80    79    1
    79    80    81    1
    80    99   101   ar
    81    99    98   ar
    82   101   102   ar
    83    81    82    2
    84    92    91    1
    85    92    22    1
    86    98    97    1
    87    98   100   ar
    88   114   112   am
    89    21    22    1
    90    91    88    1
    91    97    94    1
    92   102   100   ar
    93   102   104   ar
    94   100   103   ar
    95   104   106   ar
    96    94    93    1
    97    94    95    1
    98   112   111    1
    99   112   113    2
   100    93    89   am
   101   111   108    1
   102    89    88    1
   103    89    90    2
   104    88    87    1
   105   106   105   ar
   106   103   105   ar
   107    95    96    2
   108   108   109    1
   109   108   107    1
   110   109   110    2
