@<TRIPOS>MOLECULE
tmp/4x93B04.pdb
 113 104 0 0 0
SMALL
GASTEIGER

@<TRIPOS>ATOM
      1  N         40.7950   81.2510   21.6140 N.3    11  ASP11      -0.1239
      2  CA        42.0860   81.8680   21.8910 C.3    11  ASP11       0.1674
      3  C         42.0250   83.3530   21.5590 C.2    11  ASP11       0.2266
      4  O         41.4510   83.7580   20.5530 O.2    11  ASP11      -0.2867
      5  CB        43.1950   81.2050   21.0740 C.3    11  ASP11       0.1410
      6  CG        44.5860   81.4570   21.6420 C.2    11  ASP11       0.3668
      7  OD1       44.7320   82.2050   22.6430 O.co2  11  ASP11      -0.2456
      8  OD2       45.5480   80.8920   21.0670 O.co2  11  ASP11      -0.2456
      9  N         35.8030   78.2560   18.2080 N.3   163  SER163     -0.1202
     10  CA        37.2180   77.9660   18.0150 C.3   163  SER163      0.2020
     11  C         37.7350   77.0890   19.1750 C.2   163  SER163      0.2618
     12  O         37.1090   76.0850   19.5130 O.2   163  SER163     -0.2717
     13  CB        37.9920   79.2990   17.8940 C.3   163  SER163      0.2103
     14  OG        39.3330   79.1140   17.4740 O.3   163  SER163     -0.2182
     15  N         38.8570   77.4580   19.7940 N.am  164  MET164     -0.1979
     16  CA        39.4170   76.6900   20.9050 C.3   164  MET164      0.1605
     17  C         38.4270   76.4870   22.0560 C.2   164  MET164      0.2287
     18  O         38.5540   75.5450   22.8480 O.2   164  MET164     -0.2864
     19  CB        40.6720   77.3750   21.4440 C.3   164  MET164      0.0413
     20  CG        41.4200   76.5730   22.4900 C.3   164  MET164      0.0598
     21  SD        42.9300   77.3860   23.0120 S.3   164  MET164     -0.1393
     22  CE        42.3100   78.6260   24.1440 C.3   164  MET164      0.0692
     23  N         38.3420   73.2230   16.2940 N.3   194  PRO194     -0.2116
     24  CA        39.5710   72.6070   15.8190 C.3   194  PRO194      0.1372
     25  C         39.7980   71.2330   16.4410 C.2   194  PRO194      0.2244
     26  O         40.8190   71.0040   17.0920 O.2   194  PRO194     -0.2868
     27  CB        40.6350   73.5970   16.2920 C.3   194  PRO194      0.0268
     28  CG        40.1070   74.0560   17.6070 C.3   194  PRO194      0.0207
     29  CD        38.6040   74.0890   17.4590 C.3   194  PRO194      0.0892
     30  N         45.0890   72.1070   14.4670 N.3   198  VAL198     -0.1245
     31  CA        45.1240   72.8140   13.1840 C.3   198  VAL198      0.1561
     32  C         46.5530   72.9080   12.6520 C.2   198  VAL198      0.2260
     33  O         47.4830   73.1040   13.4160 O.2   198  VAL198     -0.2867
     34  CB        44.5110   74.2330   13.3010 C.3   198  VAL198      0.0252
     35  CG1       43.0930   74.1490   13.8350 C.3   198  VAL198      0.0019
     36  CG2       45.3360   75.1310   14.2130 C.3   198  VAL198      0.0019
     37  N         48.0850   75.2190   11.0490 N.3   200  LYS200     -0.1231
     38  CA        48.7760   76.5160   11.1420 C.3   200  LYS200      0.1693
     39  C         49.5480   76.7640   12.4330 C.2   200  LYS200      0.2592
     40  O         50.3890   77.6480   12.4890 O.2   200  LYS200     -0.2718
     41  CB        47.8200   77.6820   10.8790 C.3   200  LYS200      0.0285
     42  CG        47.1950   78.3020   12.1210 C.3   200  LYS200      0.0035
     43  CD        46.0620   79.2510   11.7580 C.3   200  LYS200      0.0206
     44  CE        46.5370   80.5040   11.0220 C.3   200  LYS200      0.1093
     45  NZ        45.5070   80.9940   10.0530 N.3   200  LYS200     -0.1314
     46  N         49.2740   75.9700   13.4710 N.am  201  THR201     -0.1953
     47  CA        50.0370   76.0370   14.7240 C.3   201  THR201      0.1897
     48  C         51.5280   75.7930   14.5040 C.2   201  THR201      0.2313
     49  O         52.3470   76.3780   15.2020 O.2   201  THR201     -0.2863
     50  CB        49.3920   75.3660   15.9680 C.3   201  THR201      0.1794
     51  OG1       50.3850   75.0570   16.9540 O.3   201  THR201     -0.2208
     52  CG2       48.6560   74.1790   15.6370 C.3   201  THR201      0.0378
     53  N         52.8890   79.2000   13.4820 N.3   204  VAL204     -0.1245
     54  CA        52.8650   80.0590   14.6570 C.3   204  VAL204      0.1561
     55  C         54.0970   79.8240   15.5320 C.2   204  VAL204      0.2260
     56  O         54.8160   80.7650   15.8690 O.2   204  VAL204     -0.2867
     57  CB        51.6050   79.8090   15.5120 C.3   204  VAL204      0.0252
     58  CG1       51.7190   80.4950   16.8610 C.3   204  VAL204      0.0019
     59  CG2       50.3350   80.2660   14.7970 C.3   204  VAL204      0.0019
     60  N         53.3390   83.7380   21.7170 N.3   225  GLN225     -0.1245
     61  CA        52.6030   82.5810   21.2010 C.3   225  GLN225      0.1566
     62  C         53.2370   81.2660   21.6310 C.2   225  GLN225      0.2260
     63  O         52.5580   80.3430   21.9720 O.2   225  GLN225     -0.2867
     64  CB        52.4800   82.6750   19.6810 C.3   225  GLN225      0.0367
     65  CG        51.6000   83.8370   19.2420 C.3   225  GLN225      0.0905
     66  CD        51.6910   84.1540   17.7580 C.2   225  GLN225      0.2608
     67  OE1       52.7490   84.0380   17.1300 O.2   225  GLN225     -0.2717
     68  NE2       50.5650   84.5320   17.1850 N.am  225  GLN225     -0.0878
     69  N         48.3950   76.7470   25.3790 N.3   230  SER230     -0.1202
     70  CA        47.2830   76.4650   24.4680 C.3   230  SER230      0.2020
     71  C         47.7320   76.3500   23.0060 C.2   230  SER230      0.2619
     72  O         47.1220   75.6220   22.2150 O.2   230  SER230     -0.2717
     73  CB        46.2140   77.5500   24.5900 C.3   230  SER230      0.2103
     74  OG        46.7980   78.8470   24.5360 O.3   230  SER230     -0.2182
     75  N         48.8130   77.0320   22.6350 N.am  231  THR231     -0.1952
     76  CA        49.3390   76.9190   21.2640 C.3   231  THR231      0.1897
     77  C         49.8320   75.4940   20.9350 C.2   231  THR231      0.2313
     78  O         49.4170   74.8980   19.9510 O.2   231  THR231     -0.2863
     79  CB        50.5020   77.9170   20.9930 C.3   231  THR231      0.1794
     80  OG1       50.1260   79.2580   21.3460 O.3   231  THR231     -0.2208
     81  CG2       50.8990   77.8860   19.5250 C.3   231  THR231      0.0378
     82  N         47.1980   72.7240   20.5870 N.3   234  LEU234     -0.1245
     83  CA        46.4640   72.6450   19.3360 C.3   234  LEU234      0.1561
     84  C         47.2490   72.2000   18.1050 C.2   234  LEU234      0.2260
     85  O         46.7410   72.3010   16.9760 O.2   234  LEU234     -0.2867
     86  CB        45.7950   73.9890   19.0350 C.3   234  LEU234      0.0270
     87  CG        44.6410   74.4070   19.9620 C.3   234  LEU234      0.0019
     88  CD1       43.8850   75.5660   19.3300 C.3   234  LEU234      0.0001
     89  CD2       43.6790   73.2650   20.2700 C.3   234  LEU234      0.0001
     90  N         41.3390   78.8620    9.0160 N.3   327  THR327     -0.1203
     91  CA        42.1190   78.5140   10.2000 C.3   327  THR327      0.1994
     92  C         41.9940   77.0180   10.4900 C.2   327  THR327      0.2617
     93  O         42.9930   76.3090   10.5950 O.2   327  THR327     -0.2717
     94  CB        41.6160   79.3050   11.4170 C.3   327  THR327      0.1784
     95  OG1       41.7710   80.7030   11.1660 O.3   327  THR327     -0.2211
     96  CG2       42.3780   78.9340   12.6740 C.3   327  THR327      0.0376
     97  N         40.7630   76.5420   10.6140 N.am  328  VAL328     -0.1979
     98  CA        40.4960   75.1520   10.9140 C.3   328  VAL328      0.1595
     99  C         40.3620   74.3360    9.6280 C.2   328  VAL328      0.2287
    100  O         39.5380   74.6420    8.7550 O.2   328  VAL328     -0.2864
    101  CB        39.1940   75.0110   11.7420 C.3   328  VAL328      0.0276
    102  CG1       38.8030   73.5470   11.9160 C.3   328  VAL328      0.0022
    103  CG2       39.3620   75.6850   13.0960 C.3   328  VAL328      0.0022
    104  N         36.5990   81.8040    9.5450 N.3   357  HIS357     -0.1241
    105  CA        36.6710   81.3840   10.9400 C.3   357  HIS357      0.1621
    106  C         36.1090   82.3810   11.9510 C.2   357  HIS357      0.2264
    107  O         35.3450   81.9980   12.8350 O.2   357  HIS357     -0.2867
    108  CB        38.1230   81.0700   11.3020 C.3   357  HIS357      0.0745
    109  CG        38.3030   80.4590   12.6560 C.ar  357  HIS357      0.0817
    110  ND1       37.8540   79.1950   12.9750 N.ar  357  HIS357     -0.2268
    111  CD2       38.9260   80.9270   13.7630 C.ar  357  HIS357      0.1154
    112  CE1       38.1790   78.9190   14.2260 C.ar  357  HIS357      0.1986
    113  NE2       38.8280   79.9540   14.7270 N.ar  357  HIS357     -0.2212
@<TRIPOS>BOND
     1   100    99    2
     2    90    91    1
     3   104   105    1
     4    99    98    1
     5    45    44    1
     6    91    92    1
     7    91    94    1
     8    92    93    2
     9    92    97   am
    10    97    98    1
    11    41    38    1
    12    41    42    1
    13    98   101    1
    14   105   108    1
    15   105   106    1
    16    44    43    1
    17    37    38    1
    18    38    39    1
    19    95    94    1
    20   108   109    1
    21    94    96    1
    22   101   102    1
    23   101   103    1
    24    43    42    1
    25   106   107    2
    26    39    40    2
    27    39    46   am
    28    32    31    1
    29    32    33    2
    30   109   110   ar
    31   109   111   ar
    32   110   112   ar
    33    31    34    1
    34    31    30    1
    35    34    35    1
    36    34    36    1
    37    46    47    1
    38    53    54    1
    39   111   113   ar
    40   112   113   ar
    41    48    47    1
    42    48    49    2
    43    54    57    1
    44    54    55    1
    45    47    50    1
    46    59    57    1
    47    57    58    1
    48    55    56    2
    49    52    50    1
    50    24    27    1
    51    24    23    1
    52    24    25    1
    53    50    51    1
    54    27    28    1
    55    23    29    1
    56    25    26    2
    57    85    84    2
    58    67    66    2
    59    68    66   am
    60    29    28    1
    61    14    13    1
    62    66    65    1
    63    13    10    1
    64    10     9    1
    65    10    11    1
    66    84    83    1
    67    86    83    1
    68    86    87    1
    69    11    12    2
    70    11    15   am
    71    65    64    1
    72    88    87    1
    73    83    82    1
    74    81    79    1
    75    64    61    1
    76    15    16    1
    77    78    77    2
    78    87    89    1
    79     4     3    2
    80    16    19    1
    81    16    17    1
    82    77    76    1
    83    79    76    1
    84    79    80    1
    85     8     6   ar
    86     5     6    1
    87     5     2    1
    88    61    62    1
    89    61    60    1
    90    76    75    1
    91    19    20    1
    92     3     2    1
    93     1     2    1
    94    62    63    2
    95     6     7   ar
    96    17    18    2
    97    72    71    2
    98    20    21    1
    99    75    71   am
   100    71    70    1
   101    21    22    1
   102    70    73    1
   103    70    69    1
   104    74    73    1
