@<TRIPOS>MOLECULE
tmp/4x95B03.pdb
 118 112 0 0 0
SMALL
GASTEIGER

@<TRIPOS>ATOM
      1  N         20.8370   31.5890   -4.6100 N.3    10  GLY10      -0.1210
      2  CA        22.1970   31.8980   -5.0330 C.3    10  GLY10       0.1956
      3  C         23.1910   30.8590   -4.5570 C.2    10  GLY10       0.2612
      4  O         22.8110   29.7800   -4.0920 O.2    10  GLY10      -0.2717
      5  N         24.4740   31.1920   -4.6760 N.am   11  ASP11      -0.1959
      6  CA        25.5530   30.3260   -4.1990 C.3    11  ASP11       0.1840
      7  C         25.4040   30.1270   -2.6880 C.2    11  ASP11       0.2621
      8  O         25.0750   31.0640   -1.9600 O.2    11  ASP11      -0.2715
      9  CB        26.9200   30.9480   -4.5330 C.3    11  ASP11       0.1450
     10  CG        28.0780   29.9650   -4.3850 C.2    11  ASP11       0.3671
     11  OD1       27.8720   28.8470   -3.8680 O.co2  11  ASP11      -0.2456
     12  OD2       29.2080   30.3200   -4.7900 O.co2  11  ASP11      -0.2456
     13  N         25.6310   28.8950   -2.2330 N.am   12  LEU12      -0.1977
     14  CA        25.4230   28.5020   -0.8320 C.3    12  LEU12       0.1596
     15  C         23.9510   28.6050   -0.4010 C.2    12  LEU12       0.2287
     16  O         23.6440   28.5470    0.7890 O.2    12  LEU12      -0.2864
     17  CB        26.2950   29.3550    0.1040 C.3    12  LEU12       0.0297
     18  CG        27.7190   29.7030   -0.3560 C.3    12  LEU12       0.0022
     19  CD1       28.0550   31.1580   -0.0410 C.3    12  LEU12       0.0001
     20  CD2       28.7380   28.7500    0.2500 C.3    12  LEU12       0.0001
     21  N         17.8600   35.1500   -6.5800 N.3   162  HIS162     -0.1226
     22  CA        18.7730   35.8890   -5.7250 C.3   162  HIS162      0.1752
     23  C         20.2170   35.5820   -6.1020 C.2   162  HIS162      0.2597
     24  O         20.5660   34.4290   -6.3520 O.2   162  HIS162     -0.2718
     25  CB        18.5290   35.5260   -4.2630 C.3   162  HIS162      0.0759
     26  CG        19.4680   36.1990   -3.3140 C.ar  162  HIS162      0.0818
     27  ND1       20.4850   35.5260   -2.6730 N.ar  162  HIS162     -0.2268
     28  CD2       19.5560   37.4890   -2.9150 C.ar  162  HIS162      0.1154
     29  CE1       21.1510   36.3710   -1.9070 C.ar  162  HIS162      0.1986
     30  NE2       20.6090   37.5690   -2.0370 N.ar  162  HIS162     -0.2212
     31  N         21.0450   36.6230   -6.1360 N.am  163  SER163     -0.1938
     32  CA        22.4780   36.4900   -6.3910 C.3   163  SER163      0.2055
     33  C         22.7540   35.6350   -7.6390 C.2   163  SER163      0.2642
     34  O         22.1810   35.8900   -8.7000 O.2   163  SER163     -0.2714
     35  CB        23.1900   35.9480   -5.1390 C.3   163  SER163      0.2130
     36  OG        24.6060   36.0110   -5.2810 O.3   163  SER163     -0.2179
     37  N         23.6030   34.6170   -7.5090 N.am  164  MET164     -0.1976
     38  CA        23.9740   33.7540   -8.6290 C.3   164  MET164      0.1605
     39  C         22.7760   33.0860   -9.3040 C.2   164  MET164      0.2287
     40  O         22.8520   32.7390  -10.4840 O.2   164  MET164     -0.2864
     41  CB        24.9580   32.6770   -8.1590 C.3   164  MET164      0.0413
     42  CG        25.6070   31.8790   -9.2810 C.3   164  MET164      0.0598
     43  SD        26.8560   30.7290   -8.6730 S.3   164  MET164     -0.1393
     44  CE        25.8240   29.5490   -7.8000 C.3   164  MET164      0.0692
     45  N         24.6790   39.4990   -9.6640 N.3   194  PRO194     -0.2116
     46  CA        26.0740   39.8600   -9.9100 C.3   194  PRO194      0.1372
     47  C         26.4360   39.8210  -11.3960 C.2   194  PRO194      0.2244
     48  O         27.3130   39.0540  -11.8040 O.2   194  PRO194     -0.2868
     49  CB        26.8380   38.7830   -9.1370 C.3   194  PRO194      0.0268
     50  CG        25.9800   37.5790   -9.2860 C.3   194  PRO194      0.0207
     51  CD        24.5580   38.0810   -9.2750 C.3   194  PRO194      0.0892
     52  N         31.9860   39.6820   -9.4930 N.3   198  VAL198     -0.1245
     53  CA        32.1910   40.5100   -8.3090 C.3   198  VAL198      0.1561
     54  C         33.6400   40.4720   -7.8350 C.2   198  VAL198      0.2260
     55  O         34.3430   39.4710   -7.9900 O.2   198  VAL198     -0.2867
     56  CB        31.2680   40.0870   -7.1480 C.3   198  VAL198      0.0252
     57  CG1       29.8210   40.4030   -7.4860 C.3   198  VAL198      0.0019
     58  CG2       31.4390   38.6080   -6.8140 C.3   198  VAL198      0.0019
     59  N         34.9590   40.3480   -4.8720 N.3   200  LYS200     -0.1245
     60  CA        35.3050   39.4810   -3.7310 C.3   200  LYS200      0.1561
     61  C         35.9020   38.1210   -4.1270 C.2   200  LYS200      0.2260
     62  O         36.6430   37.5070   -3.3520 O.2   200  LYS200     -0.2867
     63  CB        34.1000   39.2760   -2.7980 C.3   200  LYS200      0.0271
     64  CG        32.9580   38.4390   -3.3740 C.3   200  LYS200      0.0035
     65  CD        32.3420   37.5110   -2.3310 C.3   200  LYS200      0.0206
     66  CE        31.4320   36.4640   -2.9700 C.3   200  LYS200      0.1093
     67  NZ        30.9300   35.4490   -1.9970 N.3   200  LYS200     -0.1314
     68  N         31.9620   34.1830    7.2290 N.3   212  ARG212     -0.1245
     69  CA        30.7920   33.5200    7.7870 C.3   212  ARG212      0.1563
     70  C         31.2250   32.4680    8.8070 C.2   212  ARG212      0.2260
     71  O         30.4880   32.1510    9.7410 O.2   212  ARG212     -0.2867
     72  CB        29.9780   32.8640    6.6640 C.3   212  ARG212      0.0307
     73  CG        29.9350   33.6670    5.3710 C.3   212  ARG212      0.0489
     74  CD        28.5320   33.8940    4.8500 C.3   212  ARG212      0.2205
     75  NE        28.5480   34.8350    3.7300 N.pl3 212  ARG212     -0.0865
     76  CZ        27.5210   35.0710    2.9160 C.cat 212  ARG212      0.5346
     77  NH1       26.3660   34.4340    3.0790 N.pl3 212  ARG212      0.1354
     78  NH2       27.6500   35.9490    1.9260 N.pl3 212  ARG212      0.1354
     79  N         32.4080   33.4390  -11.3190 N.3   234  LEU234     -0.1245
     80  CA        32.0020   34.7720  -10.8590 C.3   234  LEU234      0.1561
     81  C         33.1200   35.8220  -10.8240 C.2   234  LEU234      0.2260
     82  O         32.9150   36.9200  -10.2980 O.2   234  LEU234     -0.2867
     83  CB        31.3680   34.6750   -9.4660 C.3   234  LEU234      0.0270
     84  CG        30.0250   33.9510   -9.3760 C.3   234  LEU234      0.0019
     85  CD1       29.6190   33.7890   -7.9170 C.3   234  LEU234      0.0001
     86  CD2       28.9530   34.6960  -10.1600 C.3   234  LEU234      0.0001
     87  N         28.3080   42.5630   -0.8580 N.3   327  THR327     -0.1203
     88  CA        28.8880   41.4540   -1.6100 C.3   327  THR327      0.1994
     89  C         28.9550   41.8060   -3.0990 C.2   327  THR327      0.2617
     90  O         30.0360   41.8170   -3.6950 O.2   327  THR327     -0.2717
     91  CB        28.0670   40.1650   -1.3880 C.3   327  THR327      0.1784
     92  OG1       27.9980   39.8800    0.0160 O.3   327  THR327     -0.2211
     93  CG2       28.6840   38.9820   -2.1250 C.3   327  THR327      0.0376
     94  N         27.7960   42.1020   -3.6860 N.am  328  VAL328     -0.1979
     95  CA        27.6970   42.4580   -5.1040 C.3   328  VAL328      0.1595
     96  C         27.9740   43.9410   -5.3370 C.2   328  VAL328      0.2287
     97  O         27.3320   44.8150   -4.7430 O.2   328  VAL328     -0.2864
     98  CB        26.3100   42.1120   -5.6840 C.3   328  VAL328      0.0276
     99  CG1       26.1890   42.5950   -7.1270 C.3   328  VAL328      0.0022
    100  CG2       26.0630   40.6110   -5.6020 C.3   328  VAL328      0.0022
    101  N         23.0340   42.5610    1.1260 N.3   357  HIS357     -0.1226
    102  CA        22.8790   41.5060    0.1240 C.3   357  HIS357      0.1752
    103  C         21.8880   40.3970    0.5080 C.2   357  HIS357      0.2595
    104  O         21.0300   40.0300   -0.2880 O.2   357  HIS357     -0.2718
    105  CB        24.2650   40.9250   -0.1830 C.3   357  HIS357      0.0759
    106  CG        24.2680   39.8460   -1.2160 C.ar  357  HIS357      0.0818
    107  ND1       24.0040   38.5340   -0.9000 N.ar  357  HIS357     -0.2268
    108  CD2       24.5370   39.8680   -2.5430 C.ar  357  HIS357      0.1154
    109  CE1       24.0910   37.7950   -1.9890 C.ar  357  HIS357      0.1986
    110  NE2       24.4150   38.5780   -3.0010 N.ar  357  HIS357     -0.2212
    111  N         22.0030   39.8700    1.7230 N.am  358  ILE358     -0.1980
    112  CA        21.1120   38.8060    2.1860 C.3   358  ILE358      0.1595
    113  C         19.8460   39.3810    2.8220 C.2   358  ILE358      0.2287
    114  O         18.7520   38.8650    2.6100 O.2   358  ILE358     -0.2864
    115  CB        21.8240   37.8700    3.1930 C.3   358  ILE358      0.0276
    116  CG1       22.9830   37.1250    2.5130 C.3   358  ILE358      0.0022
    117  CG2       20.8400   36.8660    3.7900 C.3   358  ILE358      0.0022
    118  CD1       24.3020   37.8700    2.5160 C.3   358  ILE358      0.0001
@<TRIPOS>BOND
     1    48    47    2
     2    47    46    1
     3    79    80    1
     4    80    81    1
     5    80    83    1
     6    81    82    2
     7    40    39    2
     8    86    84    1
     9    46    45    1
    10    46    49    1
    11    45    51    1
    12    52    53    1
    13    83    84    1
    14    84    85    1
    15    39    38    1
    16    50    51    1
    17    50    49    1
    18    42    43    1
    19    42    41    1
    20    34    33    2
    21    43    44    1
    22    38    41    1
    23    38    37    1
    24    53    54    1
    25    53    56    1
    26    55    54    2
    27    33    37   am
    28    33    32    1
    29    57    56    1
    30    56    58    1
    31    99    98    1
    32    21    22    1
    33    32    31    1
    34    32    35    1
    35    24    23    2
    36    31    23   am
    37    23    22    1
    38    22    25    1
    39    98   100    1
    40    98    95    1
    41    96    95    1
    42    96    97    2
    43    36    35    1
    44    95    94    1
    45     2     1    1
    46     2     3    1
    47    59    60    1
    48    12    10   ar
    49     5     3   am
    50     5     6    1
    51     3     4    2
    52     9    10    1
    53     9     6    1
    54    10    11   ar
    55    25    26    1
    56     6     7    1
    57    61    60    1
    58    61    62    2
    59    60    63    1
    60    90    89    2
    61    94    89   am
    62    64    63    1
    63    64    65    1
    64    26    28   ar
    65    26    27   ar
    66    89    88    1
    67   110   108   ar
    68   110   109   ar
    69    66    65    1
    70    66    67    1
    71    28    30   ar
    72     7    13   am
    73     7     8    2
    74    27    29   ar
    75   108   106   ar
    76    13    14    1
    77    93    91    1
    78    30    29   ar
    79   109   107   ar
    80    88    91    1
    81    88    87    1
    82    91    92    1
    83   106   107   ar
    84   106   105    1
    85    14    15    1
    86    14    17    1
    87    15    16    2
    88    18    19    1
    89    18    17    1
    90    18    20    1
    91   104   103    2
    92   105   102    1
    93   102   103    1
    94   102   101    1
    95   103   111   am
    96   111   112    1
    97    78    76    1
    98   112   113    1
    99   112   115    1
   100   116   118    1
   101   116   115    1
   102   114   113    2
   103    76    77    1
   104    76    75    2
   105   115   117    1
   106    75    74    1
   107    74    73    1
   108    73    72    1
   109    72    69    1
   110    68    69    1
   111    69    70    1
   112    70    71    2
