@<TRIPOS>MOLECULE
tmp/4x97D03.pdb
 152 147 0 0 0
SMALL
GASTEIGER

@<TRIPOS>ATOM
      1  N         21.6600  -19.7610   22.9030 N.3     9  GLY9       -0.1210
      2  CA        22.3990  -20.8990   23.3700 C.3     9  GLY9        0.1956
      3  C         21.5280  -22.0790   23.7530 C.2     9  GLY9        0.2612
      4  O         20.3010  -22.1030   23.4660 O.2     9  GLY9       -0.2717
      5  N         22.1540  -23.0380   24.4200 N.am   10  ASP10      -0.1959
      6  CA        21.4380  -24.2250   24.9000 C.3    10  ASP10       0.1840
      7  C         20.3570  -23.7880   25.9110 C.2    10  ASP10       0.2622
      8  O         20.5980  -22.9150   26.7340 O.2    10  ASP10      -0.2715
      9  CB        22.4600  -25.1840   25.4770 C.3    10  ASP10       0.1450
     10  CG        21.9490  -26.5670   25.6640 C.2    10  ASP10       0.3671
     11  OD1       20.8060  -26.9000   25.2830 O.co2  10  ASP10      -0.2456
     12  OD2       22.7010  -27.3360   26.2710 O.co2  10  ASP10      -0.2456
     13  N         19.1600  -24.3730   25.8110 N.am   11  LEU11      -0.1963
     14  CA        18.0170  -23.9740   26.6280 C.3    11  LEU11       0.1728
     15  C         17.4850  -22.5820   26.3090 C.2    11  LEU11       0.2616
     16  O         16.6510  -22.0650   27.0220 O.2    11  LEU11      -0.2715
     17  CB        18.3860  -23.9900   28.1130 C.3    11  LEU11       0.0311
     18  CG        19.1690  -25.2110   28.6720 C.3    11  LEU11       0.0022
     19  CD1       19.2820  -25.1000   30.1870 C.3    11  LEU11       0.0001
     20  CD2       18.5010  -26.5370   28.3280 C.3    11  LEU11       0.0001
     21  N         17.9680  -21.9940   25.2210 N.am   12  GLY12      -0.1955
     22  CA        17.8820  -20.5570   25.0060 C.3    12  GLY12       0.1869
     23  C         16.7270  -20.0600   24.1580 C.2    12  GLY12       0.2309
     24  O         16.6630  -18.9020   23.7770 O.2    12  GLY12      -0.2863
     25  N          9.0880  -25.9550   27.0900 N.3    40  TRP40      -0.1241
     26  CA        10.1850  -25.1810   27.7090 C.3    40  TRP40       0.1605
     27  C          9.9880  -23.7060   27.3800 C.2    40  TRP40       0.2264
     28  O          9.7960  -23.3770   26.2010 O.2    40  TRP40      -0.2867
     29  CB        11.5170  -25.5750   27.1180 C.3    40  TRP40       0.0550
     30  CG        12.6720  -24.8840   27.7260 C.ar   40  TRP40       0.0003
     31  CD1       13.3930  -23.8440   27.2130 C.ar   40  TRP40       0.0946
     32  CD2       13.2810  -25.2210   28.9650 C.ar   40  TRP40       0.0152
     33  NE1       14.4030  -23.4920   28.0690 N.ar   40  TRP40      -0.2442
     34  CE2       14.3710  -24.3380   29.1500 C.ar   40  TRP40       0.0810
     35  CE3       13.0080  -26.1840   29.9480 C.ar   40  TRP40       0.0012
     36  CZ2       15.1890  -24.3910   30.2860 C.ar   40  TRP40       0.0191
     37  CZ3       13.8180  -26.2270   31.0860 C.ar   40  TRP40       0.0001
     38  CH2       14.8880  -25.3350   31.2430 C.ar   40  TRP40       0.0015
     39  N         12.0540  -17.0680   27.9050 N.3    91  LEU91      -0.1245
     40  CA        11.9830  -18.5390   27.8050 C.3    91  LEU91       0.1561
     41  C         10.6530  -19.0390   28.3470 C.2    91  LEU91       0.2260
     42  O         10.1190  -20.0230   27.8170 O.2    91  LEU91      -0.2867
     43  CB        13.1130  -19.1970   28.5650 C.3    91  LEU91       0.0270
     44  CG        14.5110  -18.7790   28.1160 C.3    91  LEU91       0.0019
     45  CD1       15.5300  -19.4780   28.9990 C.3    91  LEU91       0.0001
     46  CD2       14.7650  -19.0910   26.6440 C.3    91  LEU91       0.0001
     47  N         15.9380  -13.5810   28.8360 N.3   101  TYR101     -0.1241
     48  CA        17.1840  -14.0240   28.2040 C.3   101  TYR101      0.1605
     49  C         17.6720  -12.9240   27.2320 C.2   101  TYR101      0.2264
     50  O         18.5300  -12.1140   27.5950 O.2   101  TYR101     -0.2867
     51  CB        16.8810  -15.4040   27.5800 C.3   101  TYR101      0.0534
     52  CG        18.0130  -16.0640   26.9210 C.ar  101  TYR101     -0.0201
     53  CD1       19.2710  -16.0120   27.4750 C.ar  101  TYR101     -0.0009
     54  CD2       17.8430  -16.7560   25.7390 C.ar  101  TYR101     -0.0009
     55  CE1       20.3470  -16.6260   26.8670 C.ar  101  TYR101      0.0417
     56  CE2       18.9120  -17.3560   25.1290 C.ar  101  TYR101      0.0417
     57  CZ        20.1540  -17.2730   25.7000 C.ar  101  TYR101      0.1957
     58  OH        21.2340  -17.8440   25.1290 O.3   101  TYR101     -0.2866
     59  N         24.9450  -16.1690   21.4310 N.3   161  HIS161     -0.1226
     60  CA        25.2570  -16.3720   22.8180 C.3   161  HIS161      0.1752
     61  C         25.5370  -17.8370   23.0660 C.2   161  HIS161      0.2597
     62  O         24.8210  -18.7120   22.6130 O.2   161  HIS161     -0.2718
     63  CB        24.0940  -15.9610   23.6770 C.3   161  HIS161      0.0759
     64  CG        24.3930  -16.0880   25.1300 C.ar  161  HIS161      0.0818
     65  ND1       23.6350  -16.8640   25.9800 N.ar  161  HIS161     -0.2268
     66  CD2       25.3810  -15.5560   25.8730 C.ar  161  HIS161      0.1154
     67  CE1       24.1220  -16.7630   27.1980 C.ar  161  HIS161      0.1986
     68  NE2       25.1820  -15.9840   27.1560 N.ar  161  HIS161     -0.2212
     69  N         26.6030  -18.0710   23.8270 N.am  162  SER162     -0.1938
     70  CA        26.9370  -19.3850   24.3360 C.3   162  SER162      0.2055
     71  C         27.0080  -20.4110   23.2110 C.2   162  SER162      0.2642
     72  O         27.6750  -20.1710   22.2330 O.2   162  SER162     -0.2714
     73  CB        25.8870  -19.7650   25.3760 C.3   162  SER162      0.2130
     74  OG        26.3110  -20.8720   26.1570 O.3   162  SER162     -0.2179
     75  N         26.3080  -21.5460   23.3130 N.am  163  MET163     -0.1976
     76  CA        26.3500  -22.5820   22.2640 C.3   163  MET163      0.1605
     77  C         25.8810  -22.0840   20.8890 C.2   163  MET163      0.2287
     78  O         26.2640  -22.6220   19.8750 O.2   163  MET163     -0.2864
     79  CB        25.4970  -23.7970   22.6190 C.3   163  MET163      0.0413
     80  CG        25.4600  -24.9110   21.5930 C.3   163  MET163      0.0598
     81  SD        24.6100  -26.3780   22.2500 S.3   163  MET163     -0.1393
     82  CE        22.9030  -26.1520   21.7810 C.3   163  MET163      0.0692
     83  N         31.6990  -20.9660   23.9620 N.3   193  PRO193     -0.2116
     84  CA        32.4040  -22.1170   24.4820 C.3   193  PRO193      0.1372
     85  C         33.0550  -22.8780   23.3390 C.2   193  PRO193      0.2244
     86  O         32.7690  -24.0690   23.0970 O.2   193  PRO193     -0.2868
     87  CB        31.2860  -22.9010   25.1290 C.3   193  PRO193      0.0268
     88  CG        30.0940  -22.6070   24.2610 C.3   193  PRO193      0.0207
     89  CD        30.2510  -21.1870   23.8920 C.3   193  PRO193      0.0892
     90  N         32.6430  -26.7730   27.4860 N.3   197  VAL197     -0.1245
     91  CA        32.6290  -26.2610   28.8560 C.3   197  VAL197      0.1561
     92  C         32.7500  -27.4090   29.8670 C.2   197  VAL197      0.2260
     93  O         32.1380  -28.4200   29.6840 O.2   197  VAL197     -0.2867
     94  CB        31.3170  -25.4360   29.0900 C.3   197  VAL197      0.0252
     95  CG1       31.0710  -24.5420   27.8800 C.3   197  VAL197      0.0019
     96  CG2       30.0760  -26.2990   29.2930 C.3   197  VAL197      0.0019
     97  N         31.6340  -27.9240   32.8260 N.3   199  LYS199     -0.1231
     98  CA        30.4600  -28.3630   33.6010 C.3   199  LYS199      0.1693
     99  C         29.5750  -29.3960   32.9470 C.2   199  LYS199      0.2592
    100  O         28.7750  -30.0310   33.6310 O.2   199  LYS199     -0.2718
    101  CB        29.6490  -27.2140   34.1550 C.3   199  LYS199      0.0285
    102  CG        28.8830  -26.4340   33.1430 C.3   199  LYS199      0.0035
    103  CD        28.2020  -25.2900   33.8500 C.3   199  LYS199      0.0206
    104  CE        26.8490  -25.7210   34.4240 C.3   199  LYS199      0.1093
    105  NZ        26.1310  -24.5150   34.8930 N.3   199  LYS199     -0.1314
    106  N         29.7240  -29.5910   31.6370 N.am  200  THR200     -0.1953
    107  CA        29.0030  -30.7050   30.9460 C.3   200  THR200      0.1897
    108  C         29.3270  -32.0420   31.5400 C.2   200  THR200      0.2313
    109  O         28.4510  -32.8970   31.5690 O.2   200  THR200     -0.2863
    110  CB        29.3310  -30.7730   29.4500 C.3   200  THR200      0.1794
    111  OG1       30.7570  -30.8050   29.2790 O.3   200  THR200     -0.2208
    112  CG2       28.7250  -29.6000   28.7580 C.3   200  THR200      0.0378
    113  N         29.1410  -30.5370   23.7050 N.3   233  LEU233     -0.1245
    114  CA        29.8840  -29.4920   24.4360 C.3   233  LEU233      0.1561
    115  C         30.8820  -29.9790   25.4840 C.2   233  LEU233      0.2260
    116  O         31.3850  -29.1710   26.1970 O.2   233  LEU233     -0.2867
    117  CB        28.8510  -28.6340   25.1740 C.3   233  LEU233      0.0270
    118  CG        27.9640  -27.7120   24.3000 C.3   233  LEU233      0.0019
    119  CD1       26.8500  -27.0800   25.1240 C.3   233  LEU233      0.0001
    120  CD2       28.8120  -26.6200   23.6710 C.3   233  LEU233      0.0001
    121  N         30.2440  -20.0830   33.4460 N.3   326  THR326     -0.1203
    122  CA        29.8330  -21.2410   32.6470 C.3   326  THR326      0.1994
    123  C         30.9480  -21.6050   31.6760 C.2   326  THR326      0.2617
    124  O         31.3970  -22.7340   31.6500 O.2   326  THR326     -0.2717
    125  CB        28.5430  -20.8440   31.9110 C.3   326  THR326      0.1784
    126  OG1       27.5120  -20.6040   32.8850 O.3   326  THR326     -0.2211
    127  CG2       28.1080  -21.8890   30.9010 C.3   326  THR326      0.0376
    128  N         31.3270  -20.6490   30.8550 N.am  327  VAL327     -0.1979
    129  CA        32.3320  -20.8510   29.8080 C.3   327  VAL327      0.1595
    130  C         33.7340  -20.5740   30.3560 C.2   327  VAL327      0.2287
    131  O         34.0000  -19.4650   30.8360 O.2   327  VAL327     -0.2864
    132  CB        32.0320  -19.9160   28.6100 C.3   327  VAL327      0.0276
    133  CG1       33.1360  -19.9640   27.5540 C.3   327  VAL327      0.0022
    134  CG2       30.6290  -20.2380   28.0460 C.3   327  VAL327      0.0022
    135  N         27.9090  -15.0640   32.5140 N.3   356  HIS356     -0.1226
    136  CA        27.5010  -15.6550   31.2490 C.3   356  HIS356      0.1752
    137  C         26.1570  -15.1930   30.7380 C.2   356  HIS356      0.2595
    138  O         26.0360  -14.8510   29.5560 O.2   356  HIS356     -0.2718
    139  CB        27.4800  -17.1630   31.4150 C.3   356  HIS356      0.0759
    140  CG        27.1710  -17.8690   30.1460 C.ar  356  HIS356      0.0818
    141  ND1       28.0110  -17.8120   29.0570 N.ar  356  HIS356     -0.2268
    142  CD2       26.0810  -18.5680   29.7490 C.ar  356  HIS356      0.1154
    143  CE1       27.4810  -18.4980   28.0600 C.ar  356  HIS356      0.1986
    144  NE2       26.3070  -18.9600   28.4510 N.ar  356  HIS356     -0.2212
    145  N         25.1250  -15.2380   31.5690 N.am  357  ILE357     -0.1980
    146  CA        23.7930  -14.7790   31.1530 C.3   357  ILE357      0.1595
    147  C         23.6070  -13.2880   31.3130 C.2   357  ILE357      0.2287
    148  O         23.0580  -12.6240   30.4510 O.2   357  ILE357     -0.2864
    149  CB        22.6940  -15.5080   31.9230 C.3   357  ILE357      0.0276
    150  CG1       22.7030  -16.9640   31.4820 C.3   357  ILE357      0.0022
    151  CG2       21.3190  -14.9140   31.6450 C.3   357  ILE357      0.0022
    152  CD1       21.9960  -17.8660   32.4540 C.3   357  ILE357      0.0001
@<TRIPOS>BOND
     1    78    77    2
     2    77    76    1
     3    59    60    1
     4    80    81    1
     5    80    79    1
     6    82    81    1
     7    72    71    2
     8    76    79    1
     9    76    75    1
    10    62    61    2
    11    60    61    1
    12    60    63    1
    13     1     2    1
    14    61    69   am
    15    86    85    2
    16    71    75   am
    17    71    70    1
    18    85    84    1
    19     2     3    1
    20     4     3    2
    21   120   118    1
    22    63    64    1
    23   113   114    1
    24     3     5   am
    25    24    23    2
    26    69    70    1
    27    89    83    1
    28    89    88    1
    29    83    84    1
    30    23    22    1
    31    88    87    1
    32   118   119    1
    33   118   117    1
    34    70    73    1
    35     5     6    1
    36   114   117    1
    37   114   115    1
    38    84    87    1
    39     6     9    1
    40     6     7    1
    41    22    21    1
    42    56    57   ar
    43    56    54   ar
    44    58    57    1
    45    64    66   ar
    46    64    65   ar
    47    21    15   am
    48    11    10   ar
    49    73    74    1
    50     9    10    1
    51   115   116    2
    52    10    12   ar
    53    57    55   ar
    54    54    52   ar
    55    13     7   am
    56    13    14    1
    57    66    68   ar
    58     7     8    2
    59    65    67   ar
    60    28    27    2
    61    15    14    1
    62    15    16    2
    63    14    17    1
    64    46    44    1
    65    55    53   ar
    66    52    53   ar
    67    52    51    1
    68    25    26    1
    69    29    26    1
    70    29    30    1
    71    68    67   ar
    72    31    30   ar
    73    31    33   ar
    74    49    50    2
    75    49    48    1
    76    27    26    1
    77    90    91    1
    78   133   132    1
    79    51    48    1
    80    30    32   ar
    81    40    39    1
    82    40    41    1
    83    40    43    1
    84    42    41    2
    85    95    94    1
    86   134   132    1
    87   143   144   ar
    88   143   141   ar
    89    33    34   ar
    90    17    18    1
    91    44    43    1
    92    44    45    1
    93    48    47    1
    94    20    18    1
    95   144   142   ar
    96   132   129    1
    97    18    19    1
    98   112   110    1
    99    91    94    1
   100    91    92    1
   101    32    34   ar
   102    32    35   ar
   103   141   140   ar
   104    94    96    1
   105    34    36   ar
   106   111   110    1
   107   110   107    1
   108   138   137    2
   109    93    92    2
   110   142   140   ar
   111   129   130    1
   112   129   128    1
   113    35    37   ar
   114   140   139    1
   115    36    38   ar
   116   130   131    2
   117   148   147    2
   118   137   136    1
   119   137   145   am
   120   128   123   am
   121   127   125    1
   122   107   108    1
   123   107   106    1
   124    37    38   ar
   125   146   147    1
   126   146   145    1
   127   146   149    1
   128   136   139    1
   129   136   135    1
   130   150   149    1
   131   150   152    1
   132   108   109    2
   133   106    99   am
   134   151   149    1
   135   124   123    2
   136   123   122    1
   137   125   122    1
   138   125   126    1
   139   122   121    1
   140    97    98    1
   141    99    98    1
   142    99   100    2
   143   102   103    1
   144   102   101    1
   145    98   101    1
   146   103   104    1
   147   104   105    1
