@<TRIPOS>MOLECULE
tmp/4x97B04.pdb
 183 173 0 0 0
SMALL
GASTEIGER

@<TRIPOS>ATOM
      1  N        -20.8720   19.7450  -21.2020 N.3    11  ASP11      -0.1225
      2  CA       -22.2960   19.5800  -20.9700 C.3    11  ASP11       0.1805
      3  C        -22.7110   18.1690  -21.4320 C.2    11  ASP11       0.2597
      4  O        -22.2670   17.6970  -22.4930 O.2    11  ASP11      -0.2718
      5  CB       -23.0290   20.6950  -21.7040 C.3    11  ASP11       0.1424
      6  CG       -24.4540   20.8740  -21.2740 C.2    11  ASP11       0.3668
      7  OD1      -24.9350   20.2480  -20.3190 O.co2  11  ASP11      -0.2456
      8  OD2      -25.0850   21.7040  -21.9130 O.co2  11  ASP11      -0.2456
      9  N        -23.5430   17.4840  -20.6370 N.am   12  LEU12      -0.1979
     10  CA       -23.9270   16.1090  -20.9270 C.3    12  LEU12       0.1596
     11  C        -22.7900   15.0990  -20.7760 C.2    12  LEU12       0.2287
     12  O        -22.9420   13.9460  -21.1000 O.2    12  LEU12      -0.2864
     13  CB       -24.4700   15.9840  -22.3660 C.3    12  LEU12       0.0297
     14  CG       -25.5110   17.0310  -22.8690 C.3    12  LEU12       0.0022
     15  CD1      -26.0620   16.6010  -24.2000 C.3    12  LEU12       0.0001
     16  CD2      -26.6700   17.1890  -21.9270 C.3    12  LEU12       0.0001
     17  N        -28.6550    9.6100  -16.6350 N.3    41  TRP41      -0.1227
     18  CA       -27.9200    9.9500  -17.8550 C.3    41  TRP41       0.1737
     19  C        -26.5940    9.1540  -17.8430 C.2    41  TRP41       0.2595
     20  O        -25.8740    9.2200  -16.8540 O.2    41  TRP41      -0.2718
     21  CB       -27.5890   11.4140  -17.8760 C.3    41  TRP41       0.0564
     22  CG       -26.9170   11.8430  -19.1380 C.ar   41  TRP41       0.0003
     23  CD1      -25.5890   12.0900  -19.3060 C.ar   41  TRP41       0.0946
     24  CD2      -27.5350   12.0530  -20.4050 C.ar   41  TRP41       0.0152
     25  NE1      -25.3580   12.4920  -20.5940 N.ar   41  TRP41      -0.2442
     26  CE2      -26.5240   12.4300  -21.3030 C.ar   41  TRP41       0.0810
     27  CE3      -28.8630   11.9920  -20.8640 C.ar   41  TRP41       0.0012
     28  CZ2      -26.7910   12.7520  -22.6310 C.ar   41  TRP41       0.0191
     29  CZ3      -29.1310   12.3190  -22.1880 C.ar   41  TRP41       0.0001
     30  CH2      -28.0980   12.6880  -23.0580 C.ar   41  TRP41       0.0015
     31  N        -26.2800    8.4090  -18.8950 N.am   42  LEU42      -0.1980
     32  CA       -27.0810    8.1660  -20.1050 C.3    42  LEU42       0.1596
     33  C        -27.6530    6.7430  -20.0170 C.2    42  LEU42       0.2287
     34  O        -26.9190    5.7510  -19.8600 O.2    42  LEU42      -0.2864
     35  CB       -26.1690    8.2420  -21.3300 C.3    42  LEU42       0.0297
     36  CG       -26.7310    7.9150  -22.7100 C.3    42  LEU42       0.0022
     37  CD1      -27.9390    8.7980  -22.9880 C.3    42  LEU42       0.0001
     38  CD2      -25.6750    8.1190  -23.7890 C.3    42  LEU42       0.0001
     39  N        -30.3640    4.8180  -22.4940 N.3    44  LEU44      -0.1245
     40  CA       -31.1440    4.9950  -23.7190 C.3    44  LEU44       0.1561
     41  C        -32.5750    4.5640  -23.5640 C.2    44  LEU44       0.2260
     42  O        -33.4710    5.1080  -24.1860 O.2    44  LEU44      -0.2867
     43  CB       -30.5250    4.1770  -24.8430 C.3    44  LEU44       0.0270
     44  CG       -29.1310    4.6580  -25.2290 C.3    44  LEU44       0.0019
     45  CD1      -28.6850    3.8340  -26.4300 C.3    44  LEU44       0.0001
     46  CD2      -29.1890    6.1500  -25.5510 C.3    44  LEU44       0.0001
     47  N        -35.2340    7.2150  -22.6500 N.3    47  LEU47      -0.1245
     48  CA       -35.5000    8.2760  -23.6430 C.3    47  LEU47       0.1561
     49  C        -36.5300    7.8670  -24.7070 C.2    47  LEU47       0.2260
     50  O        -36.8600    8.6110  -25.6060 O.2    47  LEU47      -0.2867
     51  CB       -34.2040    8.6440  -24.3210 C.3    47  LEU47       0.0270
     52  CG       -33.0970    9.0610  -23.3640 C.3    47  LEU47       0.0019
     53  CD1      -31.7850    9.3270  -24.1070 C.3    47  LEU47       0.0001
     54  CD2      -33.5520   10.2980  -22.5840 C.3    47  LEU47       0.0001
     55  N        -20.6410    7.4930  -20.9860 N.3    92  LEU92      -0.1245
     56  CA       -21.8540    8.1590  -20.4890 C.3    92  LEU92       0.1561
     57  C        -22.9230    7.1300  -20.1440 C.2    92  LEU92       0.2260
     58  O        -23.6810    7.3220  -19.2040 O.2    92  LEU92      -0.2867
     59  CB       -22.3970    9.1840  -21.4710 C.3    92  LEU92       0.0270
     60  CG       -21.3940   10.2510  -21.8640 C.3    92  LEU92       0.0019
     61  CD1      -22.0320   11.1460  -22.9020 C.3    92  LEU92       0.0001
     62  CD2      -20.9200   11.0710  -20.6930 C.3    92  LEU92       0.0001
     63  N        -22.0770    4.4610  -28.2550 N.3    99  VAL99      -0.1245
     64  CA       -22.9040    5.6460  -28.3060 C.3    99  VAL99       0.1561
     65  C        -22.5360    6.6260  -27.1620 C.2    99  VAL99       0.2260
     66  O        -22.6130    7.8670  -27.3420 O.2    99  VAL99      -0.2867
     67  CB       -24.4020    5.2960  -28.3210 C.3    99  VAL99       0.0252
     68  CG1      -24.9070    4.9860  -26.9300 C.3    99  VAL99       0.0019
     69  CG2      -25.2090    6.4410  -28.9080 C.3    99  VAL99       0.0019
     70  N        -16.9340    8.7270  -24.5120 N.3   102  TYR102     -0.1241
     71  CA       -16.6350   10.1530  -24.4670 C.3   102  TYR102      0.1605
     72  C        -15.1230   10.3360  -24.1710 C.2   102  TYR102      0.2264
     73  O        -14.3430   10.5290  -25.0770 O.2   102  TYR102     -0.2867
     74  CB       -17.6070   10.7580  -23.4470 C.3   102  TYR102      0.0534
     75  CG       -17.5460   12.2310  -23.2550 C.ar  102  TYR102     -0.0201
     76  CD1      -17.3920   13.0730  -24.3230 C.ar  102  TYR102     -0.0009
     77  CD2      -17.6080   12.7820  -21.9740 C.ar  102  TYR102     -0.0009
     78  CE1      -17.2890   14.4420  -24.1420 C.ar  102  TYR102      0.0417
     79  CE2      -17.4920   14.1500  -21.7910 C.ar  102  TYR102      0.0417
     80  CZ       -17.3180   14.9590  -22.8790 C.ar  102  TYR102      0.1957
     81  OH       -17.1900   16.2900  -22.7370 O.3   102  TYR102     -0.2866
     82  N        -12.9160   19.6250  -21.8300 N.3   162  HIS162     -0.1226
     83  CA       -13.6320   19.5650  -23.0960 C.3   162  HIS162      0.1752
     84  C        -14.8590   20.4430  -23.0320 C.2   162  HIS162      0.2597
     85  O        -15.6060   20.4260  -22.0770 O.2   162  HIS162     -0.2718
     86  CB       -14.0590   18.1520  -23.3750 C.3   162  HIS162      0.0759
     87  CG       -14.7110   18.0010  -24.6940 C.ar  162  HIS162      0.0818
     88  ND1      -15.9790   17.4790  -24.8420 N.ar  162  HIS162     -0.2268
     89  CD2      -14.2810   18.3140  -25.9290 C.ar  162  HIS162      0.1154
     90  CE1      -16.3230   17.5190  -26.1110 C.ar  162  HIS162      0.1986
     91  NE2      -15.3010   17.9970  -26.7970 N.ar  162  HIS162     -0.2212
     92  N        -15.0570   21.1960  -24.0890 N.am  163  SER163     -0.1938
     93  CA       -16.2750   21.9560  -24.3240 C.3   163  SER163      0.2055
     94  C        -16.5990   22.8480  -23.1560 C.2   163  SER163      0.2642
     95  O        -15.7590   23.5890  -22.7150 O.2   163  SER163     -0.2714
     96  CB       -17.4120   20.9760  -24.6020 C.3   163  SER163      0.2130
     97  OG       -18.5540   21.6550  -25.1460 O.3   163  SER163     -0.2179
     98  N        -17.8210   22.7850  -22.5980 N.am  164  MET164     -0.1976
     99  CA       -18.1980   23.6530  -21.4560 C.3   164  MET164      0.1605
    100  C        -17.2990   23.4610  -20.2340 C.2   164  MET164      0.2287
    101  O        -17.1830   24.3520  -19.4240 O.2   164  MET164     -0.2864
    102  CB       -19.6550   23.4340  -21.0540 C.3   164  MET164      0.0413
    103  CG       -20.1130   24.2530  -19.8780 C.3   164  MET164      0.0598
    104  SD       -21.8870   24.0920  -19.6600 S.3   164  MET164     -0.1393
    105  CE       -22.0650   22.7330  -18.5240 C.3   164  MET164      0.0692
    106  N        -15.9000   26.7460  -25.8410 N.3   194  PRO194     -0.2116
    107  CA       -16.8820   27.7430  -26.2700 C.3   194  PRO194      0.1372
    108  C        -16.7880   28.9770  -25.4140 C.2   194  PRO194      0.2244
    109  O        -17.7750   29.3870  -24.7540 O.2   194  PRO194     -0.2868
    110  CB       -18.2130   27.0190  -26.0680 C.3   194  PRO194      0.0268
    111  CG       -17.9470   26.1710  -24.8730 C.3   194  PRO194      0.0207
    112  CD       -16.5280   25.7040  -25.0300 C.3   194  PRO194      0.0892
    113  N        -22.0810   29.3440  -27.6390 N.3   198  VAL198     -0.1245
    114  CA       -22.2750   28.6740  -28.9160 C.3   198  VAL198      0.1561
    115  C        -23.6440   29.0430  -29.5130 C.2   198  VAL198      0.2260
    116  O        -24.6150   29.0880  -28.8010 O.2   198  VAL198     -0.2867
    117  CB       -22.1260   27.1280  -28.7220 C.3   198  VAL198      0.0252
    118  CG1      -20.9250   26.8280  -27.8320 C.3   198  VAL198      0.0019
    119  CG2      -23.3350   26.4750  -28.1090 C.3   198  VAL198      0.0019
    120  N        -31.1410   16.2010  -32.2670 N.3   211  ASN211     -0.1240
    121  CA       -29.8890   15.7070  -32.8250 C.3   211  ASN211      0.1653
    122  C        -30.0220   14.7160  -33.9350 C.2   211  ASN211      0.2266
    123  O        -29.1110   13.9450  -34.1320 O.2   211  ASN211     -0.2867
    124  CB       -29.0560   15.1140  -31.6780 C.3   211  ASN211      0.1155
    125  CG       -27.6340   15.5590  -31.7430 C.2   211  ASN211      0.2627
    126  OD1      -27.3690   16.7710  -31.8230 O.2   211  ASN211     -0.2716
    127  ND2      -26.6980   14.6050  -31.7190 N.am  211  ASN211     -0.0877
    128  N        -32.1120   12.2220  -33.8790 N.3   213  ILE213     -0.1245
    129  CA       -32.6070   11.0240  -33.2650 C.3   213  ILE213      0.1561
    130  C        -34.1450   11.1680  -33.2290 C.2   213  ILE213      0.2260
    131  O        -34.7040   11.7030  -32.2590 O.2   213  ILE213     -0.2867
    132  CB       -32.0580   10.9100  -31.8330 C.3   213  ILE213      0.0252
    133  CG1      -30.5310   10.9040  -31.8600 C.3   213  ILE213      0.0019
    134  CG2      -32.5730    9.6380  -31.1690 C.3   213  ILE213      0.0019
    135  CD1      -29.9000   11.5500  -30.6460 C.3   213  ILE213      0.0001
    136  N        -36.8730   10.7160  -30.5050 N.3   216  ILE216     -0.1245
    137  CA       -37.0950   11.7580  -29.4910 C.3   216  ILE216      0.1561
    138  C        -37.6410   13.0000  -30.1040 C.2   216  ILE216      0.2260
    139  O        -37.0180   13.5700  -30.9170 O.2   216  ILE216     -0.2867
    140  CB       -35.8890   11.9340  -28.4900 C.3   216  ILE216      0.0252
    141  CG1      -34.5240   12.2310  -29.1670 C.3   216  ILE216      0.0019
    142  CG2      -35.7810   10.6940  -27.5960 C.3   216  ILE216      0.0019
    143  CD1      -33.2560   11.6810  -28.4910 C.3   216  ILE216      0.0001
    144  N        -24.6470   29.4100  -21.8410 N.3   234  LEU234     -0.1245
    145  CA       -23.8600   29.2800  -23.0850 C.3   234  LEU234      0.1561
    146  C        -24.4140   30.0140  -24.2790 C.2   234  LEU234      0.2260
    147  O        -23.9010   29.8430  -25.3140 O.2   234  LEU234     -0.2867
    148  CB       -23.7990   27.8030  -23.4510 C.3   234  LEU234      0.0270
    149  CG       -22.9320   26.8810  -22.5670 C.3   234  LEU234      0.0019
    150  CD1      -23.1190   25.4130  -22.9190 C.3   234  LEU234      0.0001
    151  CD2      -21.4640   27.2550  -22.7180 C.3   234  LEU234      0.0001
    152  N        -20.0210   22.2910  -33.3220 N.3   327  THR327     -0.1203
    153  CA       -20.7520   22.7460  -32.1350 C.3   327  THR327      0.1994
    154  C        -20.2440   24.1220  -31.7190 C.2   327  THR327      0.2617
    155  O        -21.0120   25.0690  -31.6260 O.2   327  THR327     -0.2717
    156  CB       -20.4860   21.7230  -31.0410 C.3   327  THR327      0.1784
    157  OG1      -21.0660   20.4720  -31.4370 O.3   327  THR327     -0.2211
    158  CG2      -21.0370   22.1710  -29.7220 C.3   327  THR327      0.0376
    159  N        -18.9510   24.2090  -31.4460 N.am  328  VAL328     -0.1979
    160  CA       -18.3080   25.4450  -31.0130 C.3   328  VAL328      0.1595
    161  C        -17.8810   26.3020  -32.2050 C.2   328  VAL328      0.2287
    162  O        -17.1040   25.8380  -33.0560 O.2   328  VAL328     -0.2864
    163  CB       -17.0850   25.0930  -30.1430 C.3   328  VAL328      0.0276
    164  CG1      -16.2840   26.3310  -29.7640 C.3   328  VAL328      0.0022
    165  CG2      -17.5350   24.2920  -28.9210 C.3   328  VAL328      0.0022
    166  N        -16.1870   18.1850  -32.8220 N.3   357  HIS357     -0.1226
    167  CA       -16.2130   18.5270  -31.4050 C.3   357  HIS357      0.1752
    168  C        -16.0020   17.3640  -30.4590 C.2   357  HIS357      0.2595
    169  O        -15.2250   17.4750  -29.5080 O.2   357  HIS357     -0.2718
    170  CB       -17.5520   19.1990  -31.1330 C.3   357  HIS357      0.0759
    171  CG       -17.6600   19.6990  -29.7660 C.ar  357  HIS357      0.0818
    172  ND1      -16.8400   20.6880  -29.2850 N.ar  357  HIS357     -0.2268
    173  CD2      -18.4270   19.2960  -28.7380 C.ar  357  HIS357      0.1154
    174  CE1      -17.1230   20.8960  -28.0160 C.ar  357  HIS357      0.1986
    175  NE2      -18.0680   20.0510  -27.6580 N.ar  357  HIS357     -0.2212
    176  N        -16.7340   16.2790  -30.6540 N.am  358  ILE358     -0.1980
    177  CA       -16.5830   15.0980  -29.7920 C.3   358  ILE358      0.1595
    178  C        -15.4560   14.1830  -30.2450 C.2   358  ILE358      0.2287
    179  O        -14.7040   13.6800  -29.4470 O.2   358  ILE358     -0.2864
    180  CB       -17.9060   14.3430  -29.6950 C.3   358  ILE358      0.0276
    181  CG1      -18.9000   15.2030  -28.9270 C.3   358  ILE358      0.0022
    182  CG2      -17.7420   13.0090  -28.9900 C.3   358  ILE358      0.0022
    183  CD1      -20.3260   14.7800  -29.1740 C.3   358  ILE358      0.0001
@<TRIPOS>BOND
     1   123   122    2
     2   122   121    1
     3   128   129    1
     4   152   153    1
     5   129   130    1
     6   129   132    1
     7   130   131    2
     8   162   161    2
     9   121   120    1
    10   121   124    1
    11   166   167    1
    12   161   160    1
    13   153   154    1
    14   153   156    1
    15   133   132    1
    16   133   135    1
    17   132   134    1
    18   126   125    2
    19   125   127   am
    20   125   124    1
    21   154   155    2
    22   154   159   am
    23   159   160    1
    24   157   156    1
    25   167   170    1
    26   167   168    1
    27   170   171    1
    28   156   158    1
    29   160   163    1
    30   139   138    2
    31   176   168   am
    32   176   177    1
    33   136   137    1
    34   168   169    2
    35   178   177    1
    36   178   179    2
    37   163   164    1
    38   163   165    1
    39   138   137    1
    40   177   180    1
    41   171   172   ar
    42   171   173   ar
    43   180   182    1
    44   180   181    1
    45   115   114    1
    46   115   116    2
    47   137   140    1
    48   172   174   ar
    49   183   181    1
    50   141   143    1
    51   141   140    1
    52   114   117    1
    53   114   113    1
    54    69    67    1
    55   173   175   ar
    56   117   119    1
    57   117   118    1
    58   140   142    1
    59    67    64    1
    60    67    68    1
    61    64    63    1
    62    64    65    1
    63   174   175   ar
    64    66    65    2
    65    91    90   ar
    66    91    89   ar
    67    45    44    1
    68   107   110    1
    69   107   106    1
    70   107   108    1
    71    90    88   ar
    72   110   111    1
    73    89    87   ar
    74   106   112    1
    75    50    49    2
    76    46    44    1
    77   108   109    2
    78   147   146    2
    79    44    43    1
    80    97    96    1
    81    73    72    2
    82   112   111    1
    83    43    40    1
    84    88    87   ar
    85    49    48    1
    86    87    86    1
    87    96    93    1
    88    70    71    1
    89    71    72    1
    90    71    74    1
    91    93    92    1
    92    93    94    1
    93    76    78   ar
    94    76    75   ar
    95    51    48    1
    96    51    52    1
    97   146   145    1
    98    15    14    1
    99    42    41    2
   100    78    80   ar
   101    53    52    1
   102    92    84   am
   103    38    36    1
   104    40    41    1
   105    40    39    1
   106    48    47    1
   107   148   145    1
   108   148   149    1
   109    74    75    1
   110    86    83    1
   111    52    54    1
   112    75    77   ar
   113    94    95    2
   114    94    98   am
   115    83    84    1
   116    83    82    1
   117   145   144    1
   118    30    28   ar
   119    30    29   ar
   120    84    85    2
   121    37    36    1
   122   150   149    1
   123    61    60    1
   124    80    81    1
   125    80    79   ar
   126    14    13    1
   127    14    16    1
   128   151   149    1
   129    36    35    1
   130    28    26   ar
   131    98    99    1
   132     4     3    2
   133    13    10    1
   134    29    27   ar
   135    77    79   ar
   136     8     6   ar
   137    60    59    1
   138    60    62    1
   139     5     6    1
   140     5     2    1
   141    59    56    1
   142    99   102    1
   143    99   100    1
   144     3     2    1
   145     3     9   am
   146    35    32    1
   147    26    25   ar
   148    26    24   ar
   149     6     7   ar
   150     1     2    1
   151    12    11    2
   152   102   103    1
   153    55    56    1
   154    10    11    1
   155    10     9    1
   156    27    24   ar
   157    25    23   ar
   158    56    57    1
   159    24    22   ar
   160   100   101    2
   161    57    58    2
   162    32    33    1
   163    32    31    1
   164    33    34    2
   165   103   104    1
   166   104   105    1
   167    23    22   ar
   168    22    21    1
   169    31    19   am
   170    21    18    1
   171    18    19    1
   172    18    17    1
   173    19    20    2
