@<TRIPOS>MOLECULE
tmp/4x9eA00.pdb
 129 123 0 0 0
SMALL
GASTEIGER

@<TRIPOS>ATOM
      1  N         -5.0640  -63.3440  -21.1080 N.3    14  ARG14      -0.1245
      2  CA        -4.9000  -62.4050  -22.2000 C.3    14  ARG14       0.1563
      3  C         -6.2250  -62.1070  -22.8920 C.2    14  ARG14       0.2260
      4  O         -7.2450  -62.7490  -22.6070 O.2    14  ARG14      -0.2867
      5  CB        -3.8830  -62.9470  -23.1970 C.3    14  ARG14       0.0307
      6  CG        -2.5880  -63.3390  -22.5370 C.3    14  ARG14       0.0489
      7  CD        -1.4550  -63.2970  -23.4950 C.3    14  ARG14       0.2205
      8  NE        -0.3890  -64.2110  -23.1140 N.pl3  14  ARG14      -0.0865
      9  CZ         0.7780  -63.8260  -22.6110 C.cat  14  ARG14       0.5346
     10  NH1        1.0330  -62.5310  -22.4180 N.pl3  14  ARG14       0.1354
     11  NH2        1.6890  -64.7450  -22.3060 N.pl3  14  ARG14       0.1354
     12  N         -6.6400  -62.1760  -26.3540 N.3    16  TYR16      -0.1227
     13  CA        -6.8000  -63.2100  -27.3790 C.3    16  TYR16       0.1736
     14  C         -5.9330  -64.4130  -27.0670 C.2    16  TYR16       0.2595
     15  O         -4.9300  -64.2820  -26.3790 O.2    16  TYR16      -0.2718
     16  CB        -6.4490  -62.6860  -28.7820 C.3    16  TYR16       0.0548
     17  CG        -7.0480  -61.3430  -29.1350 C.ar   16  TYR16      -0.0200
     18  CD1       -8.3150  -61.2450  -29.7070 C.ar   16  TYR16      -0.0009
     19  CD2       -6.3340  -60.1640  -28.9110 C.ar   16  TYR16      -0.0009
     20  CE1       -8.8580  -60.0020  -30.0380 C.ar   16  TYR16       0.0417
     21  CE2       -6.8650  -58.9210  -29.2420 C.ar   16  TYR16       0.0417
     22  CZ        -8.1240  -58.8450  -29.8020 C.ar   16  TYR16       0.1957
     23  OH        -8.6430  -57.6130  -30.1190 O.3    16  TYR16      -0.2866
     24  N         -6.3300  -65.5670  -27.6070 N.am   17  ARG17      -0.1980
     25  CA        -5.6550  -66.8570  -27.4380 C.3    17  ARG17       0.1597
     26  C         -5.1040  -67.0350  -26.0290 C.2    17  ARG17       0.2287
     27  O         -3.9820  -67.4980  -25.8420 O.2    17  ARG17      -0.2864
     28  CB        -4.5290  -67.0340  -28.4750 C.3    17  ARG17       0.0334
     29  CG        -4.1860  -68.5170  -28.7420 C.3    17  ARG17       0.0492
     30  CD        -3.1440  -68.7340  -29.8400 C.3    17  ARG17       0.2205
     31  NE        -2.7630  -70.1490  -29.9380 N.pl3  17  ARG17      -0.0865
     32  CZ        -3.0970  -70.9730  -30.9370 C.cat  17  ARG17       0.5346
     33  NH1       -3.8200  -70.5410  -31.9650 N.pl3  17  ARG17       0.1354
     34  NH2       -2.6990  -72.2420  -30.9130 N.pl3  17  ARG17       0.1354
     35  N          6.5210  -68.1090  -16.4700 N.3    30  ARG30      -0.1245
     36  CA         6.8110  -68.0950  -17.8950 C.3    30  ARG30       0.1563
     37  C          5.8390  -67.1950  -18.6770 C.2    30  ARG30       0.2260
     38  O          6.2530  -66.5150  -19.6290 O.2    30  ARG30      -0.2867
     39  CB         6.8140  -69.5230  -18.4460 C.3    30  ARG30       0.0307
     40  CG         8.0620  -70.3210  -18.0420 C.3    30  ARG30       0.0489
     41  CD         8.3110  -71.4970  -18.9660 C.3    30  ARG30       0.2205
     42  NE         8.3710  -71.1290  -20.3850 N.pl3  30  ARG30      -0.0865
     43  CZ         7.6790  -71.7420  -21.3460 C.cat  30  ARG30       0.5346
     44  NH1        6.8760  -72.7620  -21.0360 N.pl3  30  ARG30       0.1354
     45  NH2        7.7900  -71.3400  -22.6140 N.pl3  30  ARG30       0.1354
     46  N          7.2280  -63.7390  -18.1360 N.3    33  GLU33      -0.1231
     47  CA         8.4240  -63.6850  -18.9660 C.3    33  GLU33       0.1699
     48  C          8.0820  -63.3960  -20.4370 C.2    33  GLU33       0.2592
     49  O          8.7160  -62.5680  -21.0870 O.2    33  GLU33      -0.2718
     50  CB         9.1980  -65.0010  -18.8670 C.3    33  GLU33       0.0402
     51  CG         9.9250  -65.1960  -17.5550 C.3    33  GLU33       0.1161
     52  CD        11.0280  -64.1830  -17.3520 C.2    33  GLU33       0.3649
     53  OE1       12.0660  -64.2800  -18.0480 O.co2  33  GLU33      -0.2457
     54  OE2       10.8530  -63.2910  -16.4970 O.co2  33  GLU33      -0.2457
     55  N          7.0930  -64.1120  -20.9570 N.am   34  SER34      -0.1952
     56  CA         6.5950  -63.8860  -22.2970 C.3    34  SER34       0.1924
     57  C          6.2410  -62.4160  -22.4530 C.2    34  SER34       0.2314
     58  O          6.6170  -61.7790  -23.4450 O.2    34  SER34      -0.2863
     59  CB         5.3840  -64.7790  -22.5820 C.3    34  SER34       0.2116
     60  OG         4.8050  -64.5000  -23.8430 O.3    34  SER34      -0.2180
     61  N          7.5580  -59.9540  -20.9220 N.3    36  ARG36      -0.1231
     62  CA         8.8090  -59.1950  -20.9570 C.3    36  ARG36       0.1694
     63  C          9.4270  -59.2270  -22.3470 C.2    36  ARG36       0.2593
     64  O          9.8150  -58.1870  -22.8950 O.2    36  ARG36      -0.2718
     65  CB         9.8090  -59.7350  -19.9310 C.3    36  ARG36       0.0321
     66  CG         9.4680  -59.4160  -18.4900 C.3    36  ARG36       0.0489
     67  CD        10.5100  -59.9960  -17.5730 C.3    36  ARG36       0.2205
     68  NE        11.8110  -59.3840  -17.7910 N.pl3  36  ARG36      -0.0865
     69  CZ        12.3100  -58.4100  -17.0370 C.cat  36  ARG36       0.5346
     70  NH1       11.6100  -57.9380  -16.0080 N.pl3  36  ARG36       0.1354
     71  NH2       13.5160  -57.9170  -17.3040 N.pl3  36  ARG36       0.1354
     72  N          9.5020  -60.4260  -22.9150 N.am   37  GLY37      -0.1942
     73  CA        10.0320  -60.6100  -24.2520 C.3    37  GLY37       0.2014
     74  C          9.2460  -59.8280  -25.2830 C.2    37  GLY37       0.2638
     75  O          9.8160  -59.2370  -26.2040 O.2    37  GLY37      -0.2714
     76  N          7.9290  -59.8300  -25.1250 N.am   38  ARG38      -0.1977
     77  CA         7.0670  -59.0270  -25.9730 C.3    38  ARG38       0.1597
     78  C          7.4230  -57.5490  -25.9360 C.2    38  ARG38       0.2287
     79  O          7.5440  -56.9210  -26.9810 O.2    38  ARG38      -0.2864
     80  CB         5.6090  -59.1880  -25.5690 C.3    38  ARG38       0.0334
     81  CG         4.9950  -60.5110  -25.9230 C.3    38  ARG38       0.0492
     82  CD         3.6430  -60.6140  -25.2770 C.3    38  ARG38       0.2205
     83  NE         3.3380  -61.9960  -24.9620 N.pl3  38  ARG38      -0.0865
     84  CZ         2.4730  -62.7340  -25.6360 C.cat  38  ARG38       0.5346
     85  NH1        1.8120  -62.2140  -26.6600 N.pl3  38  ARG38       0.1354
     86  NH2        2.2720  -63.9910  -25.2820 N.pl3  38  ARG38       0.1354
     87  N         11.2780  -56.3400  -27.0540 N.3    41  ASN41      -0.1240
     88  CA        11.5640  -56.4270  -28.4860 C.3    41  ASN41       0.1653
     89  C         10.6320  -55.6130  -29.3620 C.2    41  ASN41       0.2266
     90  O         10.6240  -55.7660  -30.5780 O.2    41  ASN41      -0.2867
     91  CB        11.5330  -57.8800  -28.9380 C.3    41  ASN41       0.1155
     92  CG        12.7820  -58.6340  -28.5360 C.2    41  ASN41       0.2627
     93  OD1       13.7930  -58.5990  -29.2380 O.2    41  ASN41      -0.2716
     94  ND2       12.7200  -59.3230  -27.4070 N.am   41  ASN41      -0.0877
     95  N         -0.1950  -51.9980  -31.6520 N.3   195  MET195     -0.1230
     96  CA         0.9610  -52.8890  -31.5560 C.3   195  MET195      0.1702
     97  C          0.4710  -54.3170  -31.4460 C.2   195  MET195      0.2592
     98  O          1.1790  -55.2670  -31.8110 O.2   195  MET195     -0.2718
     99  CB         1.8410  -52.5600  -30.3390 C.3   195  MET195      0.0401
    100  CG         2.7720  -51.3480  -30.4620 C.3   195  MET195      0.0596
    101  SD         3.9190  -51.3460  -31.8790 S.3   195  MET195     -0.1393
    102  CE         3.1490  -50.1110  -32.9660 C.3   195  MET195      0.0692
    103  N         -0.7470  -54.4500  -30.9230 N.am  196  ARG196     -0.1966
    104  CA        -1.3570  -55.7430  -30.6300 C.3   196  ARG196      0.1729
    105  C         -0.3310  -56.6750  -29.9910 C.2   196  ARG196      0.2616
    106  O          0.0830  -57.6700  -30.5900 O.2   196  ARG196     -0.2715
    107  CB        -1.9530  -56.3430  -31.9040 C.3   196  ARG196      0.0348
    108  CG        -2.7630  -55.3250  -32.7260 C.3   196  ARG196      0.0492
    109  CD        -4.0550  -55.9190  -33.2990 C.3   196  ARG196      0.2205
    110  NE        -5.2220  -55.0910  -32.9830 N.pl3 196  ARG196     -0.0865
    111  CZ        -6.1730  -55.4180  -32.1090 C.cat 196  ARG196      0.5346
    112  NH1       -6.1170  -56.5800  -31.4600 N.pl3 196  ARG196      0.1354
    113  NH2       -7.1850  -54.5800  -31.8920 N.pl3 196  ARG196      0.1354
    114  N          0.1100  -56.3130  -28.7860 N.am  197  MET197     -0.1963
    115  CA         1.1260  -57.0860  -28.0820 C.3   197  MET197      0.1736
    116  C          0.4640  -58.2120  -27.3400 C.2   197  MET197      0.2616
    117  O          1.1260  -59.1800  -26.9700 O.2   197  MET197     -0.2715
    118  CB         1.9160  -56.2390  -27.0910 C.3   197  MET197      0.0427
    119  CG         2.2060  -54.8250  -27.5230 C.3   197  MET197      0.0599
    120  SD         3.6790  -54.2310  -26.6860 S.3   197  MET197     -0.1393
    121  CE         4.7740  -55.5660  -27.1850 C.3   197  MET197      0.0692
    122  N         -0.8410  -58.0630  -27.1130 N.am  198  ASN198     -0.1972
    123  CA        -1.6290  -59.0510  -26.3800 C.3   198  ASN198      0.1688
    124  C         -0.9850  -59.4030  -25.0430 C.2   198  ASN198      0.2292
    125  O         -0.5990  -60.5500  -24.8180 O.2   198  ASN198     -0.2864
    126  CB        -1.8060  -60.3110  -27.2240 C.3   198  ASN198      0.1181
    127  CG        -2.8360  -61.2500  -26.6600 C.2   198  ASN198      0.2629
    128  OD1       -3.8700  -60.8270  -26.1390 O.2   198  ASN198     -0.2716
    129  ND2       -2.5630  -62.5380  -26.7670 N.am  198  ASN198     -0.0877
@<TRIPOS>BOND
     1   109   110    1
     2   109   108    1
     3   110   111    2
     4   102   101    1
     5   108   107    1
     6   111   113    1
     7   111   112    1
     8    33    32    1
     9   107   104    1
    10   101   100    1
    11    98    97    2
    12    95    96    1
    13    96    97    1
    14    96    99    1
    15    97   103   am
    16    32    34    1
    17    32    31    2
    18   103   104    1
    19   104   105    1
    20   106   105    2
    21    90    89    2
    22   100    99    1
    23    23    22    1
    24    20    22   ar
    25    20    18   ar
    26   105   114   am
    27    31    30    1
    28    30    29    1
    29    22    21   ar
    30    18    17   ar
    31    89    88    1
    32    21    19   ar
    33    93    92    2
    34    17    19   ar
    35    17    16    1
    36    91    92    1
    37    91    88    1
    38   114   115    1
    39    16    13    1
    40    29    28    1
    41    92    94   am
    42    88    87    1
    43    28    25    1
    44   115   116    1
    45   115   118    1
    46    24    25    1
    47    24    14   am
    48   119   118    1
    49   119   120    1
    50    25    26    1
    51    13    14    1
    52    13    12    1
    53   116   122   am
    54   116   117    2
    55   126   127    1
    56   126   123    1
    57   121   120    1
    58   122   123    1
    59    14    15    2
    60    79    78    2
    61   129   127   am
    62   127   128    2
    63    85    84    1
    64   123   124    1
    65    75    74    2
    66    26    27    2
    67    77    78    1
    68    77    80    1
    69    77    76    1
    70    81    80    1
    71    81    82    1
    72    84    86    1
    73    84    83    2
    74    74    76   am
    75    74    73    1
    76    82    83    1
    77   124   125    2
    78    73    72    1
    79    60    59    1
    80     7     8    1
    81     7     6    1
    82    58    57    2
    83     5     6    1
    84     5     2    1
    85     8     9    2
    86    72    63   am
    87    64    63    2
    88     3     4    2
    89     3     2    1
    90    45    43    1
    91     9    10    1
    92     9    11    1
    93    59    56    1
    94    57    56    1
    95    63    62    1
    96    56    55    1
    97     2     1    1
    98    43    44    1
    99    43    42    2
   100    49    48    2
   101    62    61    1
   102    62    65    1
   103    55    48   am
   104    48    47    1
   105    42    41    1
   106    65    66    1
   107    38    37    2
   108    41    40    1
   109    47    50    1
   110    47    46    1
   111    50    51    1
   112    37    36    1
   113    66    67    1
   114    39    40    1
   115    39    36    1
   116    53    52   ar
   117    36    35    1
   118    68    67    1
   119    68    69    2
   120    51    52    1
   121    52    54   ar
   122    71    69    1
   123    69    70    1
