@<TRIPOS>MOLECULE
tmp/4x9eA01.pdb
 93 88 0 0 0
SMALL
GASTEIGER

@<TRIPOS>ATOM
      1  N         15.1780  -49.8980  -12.7070 N.3    73  GLN73      -0.1245
      2  CA        15.8840  -50.3830  -11.5110 C.3    73  GLN73       0.1566
      3  C         15.3440  -49.8130  -10.1860 C.2    73  GLN73       0.2260
      4  O         15.2980  -50.5230   -9.1810 O.2    73  GLN73      -0.2867
      5  CB        17.3830  -50.1050  -11.6010 C.3    73  GLN73       0.0367
      6  CG        18.2050  -50.7590  -10.4840 C.3    73  GLN73       0.0905
      7  CD        18.1610  -52.2710  -10.5500 C.2    73  GLN73       0.2608
      8  OE1       17.7130  -52.8440  -11.5500 O.2    73  GLN73      -0.2717
      9  NE2       18.6280  -52.9300   -9.4960 N.am   73  GLN73      -0.0878
     10  N         13.7970  -52.0490   -7.0990 N.3    77  TYR77      -0.1241
     11  CA        14.2580  -51.8350   -5.7280 C.3    77  TYR77       0.1605
     12  C         13.0820  -51.6400   -4.7590 C.2    77  TYR77       0.2264
     13  O         13.0090  -52.2900   -3.7020 O.2    77  TYR77      -0.2867
     14  CB        15.1830  -50.6200   -5.7100 C.3    77  TYR77       0.0534
     15  CG        15.9440  -50.2990   -4.4350 C.ar   77  TYR77      -0.0201
     16  CD1       16.7580  -49.1750   -4.3830 C.ar   77  TYR77      -0.0009
     17  CD2       15.8680  -51.1010   -3.3080 C.ar   77  TYR77      -0.0009
     18  CE1       17.4690  -48.8490   -3.2580 C.ar   77  TYR77       0.0417
     19  CE2       16.5800  -50.7830   -2.1630 C.ar   77  TYR77       0.0417
     20  CZ        17.3810  -49.6440   -2.1460 C.ar   77  TYR77       0.1957
     21  OH        18.1130  -49.2800   -1.0320 O.3    77  TYR77      -0.2866
     22  N         11.8270  -54.2740   -1.7870 N.3    81  GLU81      -0.1245
     23  CA        11.6960  -53.8240   -0.3960 C.3    81  GLU81       0.1567
     24  C         10.2910  -54.0360    0.1510 C.2    81  GLU81       0.2260
     25  O         10.1500  -54.5000    1.2720 O.2    81  GLU81      -0.2867
     26  CB        12.0890  -52.3580   -0.2430 C.3    81  GLU81       0.0388
     27  CG        13.5890  -52.1190   -0.3830 C.3    81  GLU81       0.1160
     28  CD        14.4120  -52.8160    0.6910 C.2    81  GLU81       0.3649
     29  OE1       14.2770  -52.4380    1.8810 O.co2  81  GLU81      -0.2457
     30  OE2       15.1920  -53.7330    0.3390 O.co2  81  GLU81      -0.2457
     31  N         31.0360  -37.5370   -8.1920 N.3   325  GLN325     -0.1245
     32  CA        30.9520  -38.0650   -6.8360 C.3   325  GLN325      0.1566
     33  C         29.7290  -37.5160   -6.1030 C.2   325  GLN325      0.2260
     34  O         28.9260  -38.2840   -5.5340 O.2   325  GLN325     -0.2867
     35  CB        32.2260  -37.7450   -6.0600 C.3   325  GLN325      0.0367
     36  CG        33.2200  -38.8950   -6.0110 C.3   325  GLN325      0.0905
     37  CD        33.9710  -38.9470   -4.6900 C.2   325  GLN325      0.2608
     38  OE1       34.5760  -37.9590   -4.2690 O.2   325  GLN325     -0.2717
     39  NE2       33.9190  -40.0970   -4.0210 N.am  325  GLN325     -0.0878
     40  N         26.5270  -39.0410   -7.5990 N.3   328  MET328     -0.1230
     41  CA        26.4420  -40.4520   -7.2460 C.3   328  MET328      0.1702
     42  C         25.8840  -40.6000   -5.8390 C.2   328  MET328      0.2592
     43  O         24.8660  -41.2800   -5.6180 O.2   328  MET328     -0.2718
     44  CB        27.8090  -41.1160   -7.3420 C.3   328  MET328      0.0401
     45  CG        27.7520  -42.6140   -7.5060 C.3   328  MET328      0.0596
     46  SD        29.2220  -43.2910   -6.7560 S.3   328  MET328     -0.1393
     47  CE        28.9130  -42.8570   -5.0490 C.3   328  MET328      0.0692
     48  N         26.5450  -39.9360   -4.8950 N.am  329  TYR329     -0.1976
     49  CA        26.0800  -39.9460   -3.5210 C.3   329  TYR329      0.1639
     50  C         24.6770  -39.3580   -3.3440 C.2   329  TYR329      0.2290
     51  O         23.8890  -39.8660   -2.5550 O.2   329  TYR329     -0.2864
     52  CB        27.0620  -39.1980   -2.6370 C.3   329  TYR329      0.0560
     53  CG        28.3590  -39.9390   -2.4050 C.ar  329  TYR329     -0.0198
     54  CD1       28.3760  -41.1910   -1.7850 C.ar  329  TYR329     -0.0009
     55  CD2       29.5720  -39.3760   -2.7820 C.ar  329  TYR329     -0.0009
     56  CE1       29.5710  -41.8640   -1.5660 C.ar  329  TYR329      0.0417
     57  CE2       30.7680  -40.0340   -2.5680 C.ar  329  TYR329      0.0417
     58  CZ        30.7690  -41.2780   -1.9600 C.ar  329  TYR329      0.1957
     59  OH        31.9740  -41.9260   -1.7490 O.3   329  TYR329     -0.2866
     60  N         22.1990  -39.4060   -5.4570 N.3   331  ARG331     -0.1231
     61  CA        21.2560  -40.4320   -5.9140 C.3   331  ARG331      0.1694
     62  C         21.1450  -41.5640   -4.9060 C.2   331  ARG331      0.2591
     63  O         20.0390  -41.9660   -4.5300 O.2   331  ARG331     -0.2718
     64  CB        21.6680  -40.9910   -7.2730 C.3   331  ARG331      0.0321
     65  CG        20.8790  -42.2210   -7.6780 C.3   331  ARG331      0.0489
     66  CD        21.3260  -42.7470   -9.0260 C.3   331  ARG331      0.2205
     67  NE        22.7610  -42.5880   -9.2530 N.pl3 331  ARG331     -0.0865
     68  CZ        23.6770  -43.5210   -9.0010 C.cat 331  ARG331      0.5346
     69  NH1       23.3240  -44.7070   -8.4910 N.pl3 331  ARG331      0.1354
     70  NH2       24.9560  -43.2650   -9.2650 N.pl3 331  ARG331      0.1354
     71  N         22.2920  -42.0750   -4.4710 N.am  332  VAL332     -0.1980
     72  CA        22.3090  -43.1280   -3.4580 C.3   332  VAL332      0.1595
     73  C         21.5340  -42.7580   -2.1920 C.2   332  VAL332      0.2287
     74  O         20.6290  -43.4820   -1.7950 O.2   332  VAL332     -0.2864
     75  CB        23.7340  -43.4910   -3.0430 C.3   332  VAL332      0.0276
     76  CG1       23.6960  -44.4670   -1.8960 C.3   332  VAL332      0.0022
     77  CG2       24.4800  -44.0770   -4.2150 C.3   332  VAL332      0.0022
     78  N         17.7460  -42.3120   -2.7650 N.3   335  LEU335     -0.1231
     79  CA        17.1120  -43.6150   -2.9190 C.3   335  LEU335      0.1693
     80  C         16.9910  -44.3490   -1.5860 C.2   335  LEU335      0.2592
     81  O         15.9400  -44.8970   -1.2660 O.2   335  LEU335     -0.2718
     82  CB        17.8850  -44.4580   -3.9330 C.3   335  LEU335      0.0284
     83  CG        17.5920  -44.0700   -5.3880 C.3   335  LEU335      0.0019
     84  CD1       18.3580  -44.9170   -6.3770 C.3   335  LEU335      0.0001
     85  CD2       16.1200  -44.2060   -5.6620 C.3   335  LEU335      0.0001
     86  N         18.0630  -44.3310   -0.8000 N.am  336  ASN336     -0.1974
     87  CA        18.1060  -45.0430    0.4750 C.3   336  ASN336      0.1688
     88  C         17.1760  -44.4720    1.5270 C.2   336  ASN336      0.2292
     89  O         16.8230  -45.1750    2.4730 O.2   336  ASN336     -0.2864
     90  CB        19.5320  -45.0760    1.0240 C.3   336  ASN336      0.1181
     91  CG        20.4010  -46.1080    0.3230 C.2   336  ASN336      0.2629
     92  OD1       19.9590  -46.7940   -0.6160 O.2   336  ASN336     -0.2716
     93  ND2       21.6510  -46.2200    0.7690 N.am  336  ASN336     -0.0877
@<TRIPOS>BOND
     1     1     2    1
     2     5     2    1
     3     5     6    1
     4     8     7    2
     5     2     3    1
     6     7     6    1
     7     7     9   am
     8     3     4    2
     9    70    68    1
    10    67    66    1
    11    67    68    2
    12    66    65    1
    13    68    69    1
    14    31    32    1
    15    65    64    1
    16    40    41    1
    17    45    44    1
    18    45    46    1
    19    44    41    1
    20    64    61    1
    21    41    42    1
    22    10    11    1
    23    32    33    1
    24    32    35    1
    25    46    47    1
    26    84    83    1
    27    33    34    2
    28    35    36    1
    29    36    37    1
    30    61    60    1
    31    61    62    1
    32    42    43    2
    33    42    48   am
    34    11    14    1
    35    11    12    1
    36    14    15    1
    37    85    83    1
    38    83    82    1
    39    62    63    2
    40    62    71   am
    41    48    49    1
    42    12    13    2
    43    37    38    2
    44    37    39   am
    45    71    72    1
    46    15    16   ar
    47    15    17   ar
    48    16    18   ar
    49    77    75    1
    50    82    79    1
    51    49    50    1
    52    49    52    1
    53    72    75    1
    54    72    73    1
    55    50    51    2
    56    17    19   ar
    57    18    20   ar
    58    75    76    1
    59    79    78    1
    60    79    80    1
    61    55    57   ar
    62    55    53   ar
    63    52    53    1
    64    57    58   ar
    65    53    54   ar
    66    73    74    2
    67    19    20   ar
    68    20    21    1
    69    58    59    1
    70    58    56   ar
    71    22    23    1
    72    54    56   ar
    73    80    81    2
    74    80    86   am
    75    86    87    1
    76    92    91    2
    77    23    26    1
    78    23    24    1
    79    27    26    1
    80    27    28    1
    81    24    25    2
    82    91    93   am
    83    91    90    1
    84    30    28   ar
    85    87    90    1
    86    87    88    1
    87    28    29   ar
    88    88    89    2
