@<TRIPOS>MOLECULE
tmp/4x9eB00.pdb
 113 106 0 0 0
SMALL
GASTEIGER

@<TRIPOS>ATOM
      1  N         17.6250  -59.7800  -21.8170 N.3    71  GLN71      -0.1245
      2  CA        16.4860  -60.7040  -21.6650 C.3    71  GLN71       0.1566
      3  C         16.7700  -62.1470  -22.1440 C.2    71  GLN71       0.2260
      4  O         16.2690  -63.1090  -21.5610 O.2    71  GLN71      -0.2867
      5  CB        15.2460  -60.1640  -22.3860 C.3    71  GLN71       0.0367
      6  CG        13.9710  -60.9420  -22.0860 C.3    71  GLN71       0.0905
      7  CD        13.5790  -60.8890  -20.6270 C.2    71  GLN71       0.2608
      8  OE1       14.0700  -60.0510  -19.8620 O.2    71  GLN71      -0.2717
      9  NE2       12.6800  -61.7780  -20.2320 N.am   71  GLN71      -0.0878
     10  N         16.6150  -65.4810  -19.7700 N.3    75  TYR75      -0.1241
     11  CA        15.8650  -66.6660  -20.2170 C.3    75  TYR75       0.1605
     12  C         16.7110  -67.9410  -20.1170 C.2    75  TYR75       0.2264
     13  O         16.2750  -68.9650  -19.5490 O.2    75  TYR75      -0.2867
     14  CB        15.3930  -66.4450  -21.6540 C.3    75  TYR75       0.0534
     15  CG        14.4270  -67.4450  -22.2610 C.ar   75  TYR75      -0.0201
     16  CD1       14.0200  -67.2970  -23.5800 C.ar   75  TYR75      -0.0009
     17  CD2       13.9160  -68.5080  -21.5440 C.ar   75  TYR75      -0.0009
     18  CE1       13.1430  -68.1790  -24.1710 C.ar   75  TYR75       0.0417
     19  CE2       13.0300  -69.4040  -22.1340 C.ar   75  TYR75       0.0417
     20  CZ        12.6520  -69.2300  -23.4480 C.ar   75  TYR75       0.1957
     21  OH        11.7730  -70.0980  -24.0440 O.3    75  TYR75      -0.2866
     22  N         16.1910  -71.1000  -17.4420 N.3    79  GLU79      -0.1245
     23  CA        16.0460  -72.4770  -17.9290 C.3    79  GLU79       0.1567
     24  C         17.0990  -73.4290  -17.3540 C.2    79  GLU79       0.2260
     25  O         16.7690  -74.5530  -16.9700 O.2    79  GLU79      -0.2867
     26  CB        16.0870  -72.5210  -19.4530 C.3    79  GLU79       0.0388
     27  CG        14.8280  -71.9640  -20.1090 C.3    79  GLU79       0.1160
     28  CD        13.5700  -72.7340  -19.7410 C.2    79  GLU79       0.3649
     29  OE1       13.4760  -73.9220  -20.1170 O.co2  79  GLU79      -0.2457
     30  OE2       12.6770  -72.1530  -19.0830 O.co2  79  GLU79      -0.2457
     31  N          3.5180  -68.9220  -41.1560 N.3   312  LYS312     -0.1245
     32  CA         2.5420  -68.1450  -40.4070 C.3   312  LYS312      0.1561
     33  C          2.4210  -66.7370  -40.9980 C.2   312  LYS312      0.2260
     34  O          1.3130  -66.2630  -41.2510 O.2   312  LYS312     -0.2867
     35  CB         2.9130  -68.0920  -38.9240 C.3   312  LYS312      0.0271
     36  CG         3.2000  -69.4620  -38.3240 C.3   312  LYS312      0.0035
     37  CD         2.2160  -69.8390  -37.2340 C.3   312  LYS312      0.0206
     38  CE         2.7120  -69.4340  -35.8640 C.3   312  LYS312      0.1093
     39  NZ         1.7380  -69.9040  -34.8510 N.3   312  LYS312     -0.1314
     40  N         -1.4310  -56.1280  -38.5100 N.3   316  ARG316     -0.1245
     41  CA        -1.0650  -57.3730  -39.1850 C.3   316  ARG316      0.1563
     42  C         -0.1530  -57.1330  -40.4050 C.2   316  ARG316      0.2260
     43  O         -0.6170  -57.1660  -41.5500 O.2   316  ARG316     -0.2867
     44  CB        -2.3300  -58.1380  -39.6120 C.3   316  ARG316      0.0307
     45  CG        -3.1290  -58.7810  -38.4630 C.3   316  ARG316      0.0489
     46  CD        -2.3900  -59.9310  -37.8110 C.3   316  ARG316      0.2205
     47  NE        -2.0060  -60.9580  -38.7630 N.pl3 316  ARG316     -0.0865
     48  CZ        -2.7420  -62.0260  -39.1220 C.cat 316  ARG316      0.5346
     49  NH1       -3.9700  -62.2210  -38.5920 N.pl3 316  ARG316      0.1354
     50  NH2       -2.2480  -62.8690  -40.0080 N.pl3 316  ARG316      0.1354
     51  N          5.6890  -59.6880  -38.6370 N.3   321  GLN321     -0.1245
     52  CA         5.2120  -61.0000  -38.1990 C.3   321  GLN321      0.1566
     53  C          6.2740  -62.0750  -38.4090 C.2   321  GLN321      0.2260
     54  O          6.6050  -62.8450  -37.4900 O.2   321  GLN321     -0.2867
     55  CB         3.9330  -61.3840  -38.9320 C.3   321  GLN321      0.0367
     56  CG         2.6770  -61.1080  -38.1380 C.3   321  GLN321      0.0905
     57  CD         1.5940  -62.1370  -38.3980 C.2   321  GLN321      0.2608
     58  OE1        1.2160  -62.3880  -39.5510 O.2   321  GLN321     -0.2717
     59  NE2        1.0930  -62.7510  -37.3240 N.am  321  GLN321     -0.0878
     60  N          9.1460  -61.5460  -35.8900 N.3   324  MET324     -0.1230
     61  CA         8.6940  -61.8750  -34.5470 C.3   324  MET324      0.1702
     62  C          8.7520  -63.3820  -34.3390 C.2   324  MET324      0.2592
     63  O          9.4080  -63.8760  -33.4060 O.2   324  MET324     -0.2718
     64  CB         7.2790  -61.3650  -34.3190 C.3   324  MET324      0.0401
     65  CG         6.9140  -61.1780  -32.8830 C.3   324  MET324      0.0596
     66  SD         5.1500  -61.4370  -32.7990 S.3   324  MET324     -0.1393
     67  CE         5.0910  -63.1920  -33.1630 C.3   324  MET324      0.0692
     68  N          8.0850  -64.1060  -35.2340 N.am  325  TYR325     -0.1976
     69  CA         8.0980  -65.5610  -35.1810 C.3   325  TYR325      0.1639
     70  C          9.5000  -66.1550  -35.3380 C.2   325  TYR325      0.2290
     71  O          9.8250  -67.1380  -34.6840 O.2   325  TYR325     -0.2864
     72  CB         7.1790  -66.1390  -36.2460 C.3   325  TYR325      0.0560
     73  CG         5.7100  -65.9590  -35.9460 C.ar  325  TYR325     -0.0198
     74  CD1        5.1360  -66.5130  -34.8040 C.ar  325  TYR325     -0.0009
     75  CD2        4.8900  -65.2530  -36.8200 C.ar  325  TYR325     -0.0009
     76  CE1        3.7850  -66.3520  -34.5350 C.ar  325  TYR325      0.0417
     77  CE2        3.5410  -65.0870  -36.5640 C.ar  325  TYR325      0.0417
     78  CZ         2.9920  -65.6390  -35.4220 C.ar  325  TYR325      0.1957
     79  OH         1.6470  -65.4700  -35.1760 O.3   325  TYR325     -0.2866
     80  N         12.3470  -64.8570  -34.4190 N.3   327  ARG327     -0.1231
     81  CA        13.0170  -64.6780  -33.1360 C.3   327  ARG327      0.1694
     82  C         12.4850  -65.6660  -32.1030 C.2   327  ARG327      0.2591
     83  O         13.2610  -66.3600  -31.4350 O.2   327  ARG327     -0.2718
     84  CB        12.8520  -63.2450  -32.6260 C.3   327  ARG327      0.0321
     85  CG        13.3180  -63.0600  -31.1870 C.3   327  ARG327      0.0489
     86  CD        13.1650  -61.6280  -30.7360 C.3   327  ARG327      0.2205
     87  NE        11.9680  -60.9890  -31.2900 N.pl3 327  ARG327     -0.0865
     88  CZ        10.7760  -60.9210  -30.6830 C.cat 327  ARG327      0.5346
     89  NH1       10.5790  -61.4580  -29.4750 N.pl3 327  ARG327      0.1354
     90  NH2        9.7670  -60.3020  -31.2920 N.pl3 327  ARG327      0.1354
     91  N         11.1630  -65.7300  -31.9840 N.am  328  VAL328     -0.1980
     92  CA        10.5390  -66.6620  -31.0530 C.3   328  VAL328      0.1595
     93  C         10.9900  -68.1080  -31.2550 C.2   328  VAL328      0.2287
     94  O         11.4700  -68.7410  -30.3220 O.2   328  VAL328     -0.2864
     95  CB         9.0130  -66.6200  -31.1520 C.3   328  VAL328      0.0276
     96  CG1        8.4110  -67.7240  -30.2930 C.3   328  VAL328      0.0022
     97  CG2        8.4940  -65.2490  -30.7190 C.3   328  VAL328      0.0022
     98  N         14.7320  -68.6940  -30.5100 N.3   331  LEU331     -0.1231
     99  CA        14.9530  -68.7080  -29.0750 C.3   331  LEU331      0.1693
    100  C         14.4490  -69.9980  -28.4380 C.2   331  LEU331      0.2592
    101  O         15.1420  -70.6030  -27.6300 O.2   331  LEU331     -0.2718
    102  CB        14.2880  -67.4890  -28.4270 C.3   331  LEU331      0.0284
    103  CG        15.0910  -66.1900  -28.6060 C.3   331  LEU331      0.0019
    104  CD1       14.4150  -65.0230  -27.9690 C.3   331  LEU331      0.0001
    105  CD2       16.4690  -66.3460  -28.0280 C.3   331  LEU331      0.0001
    106  N         13.2520  -70.4230  -28.8200 N.am  332  ASN332     -0.1974
    107  CA        12.6330  -71.6180  -28.2530 C.3   332  ASN332      0.1688
    108  C         13.3450  -72.9120  -28.6020 C.2   332  ASN332      0.2292
    109  O         13.1540  -73.9150  -27.9130 O.2   332  ASN332     -0.2864
    110  CB        11.1720  -71.7200  -28.6910 C.3   332  ASN332      0.1181
    111  CG        10.2720  -70.7610  -27.9360 C.2   332  ASN332      0.2629
    112  OD1       10.7310  -69.9880  -27.0830 O.2   332  ASN332     -0.2716
    113  ND2        8.9810  -70.7990  -28.2480 N.am  332  ASN332     -0.0877
@<TRIPOS>BOND
     1    43    42    2
     2    34    33    2
     3    31    32    1
     4    33    32    1
     5    32    35    1
     6    42    41    1
     7    50    48    1
     8    44    41    1
     9    44    45    1
    10    58    57    2
    11    41    40    1
    12    48    47    2
    13    48    49    1
    14    55    52    1
    15    55    56    1
    16    35    36    1
    17    47    46    1
    18    51    52    1
    19    45    46    1
    20    53    52    1
    21    53    54    2
    22    57    56    1
    23    57    59   am
    24    36    37    1
    25    37    38    1
    26    75    77   ar
    27    75    73   ar
    28    77    78   ar
    29    72    73    1
    30    72    69    1
    31    73    74   ar
    32    60    61    1
    33    38    39    1
    34    78    79    1
    35    78    76   ar
    36    70    69    1
    37    70    71    2
    38    68    69    1
    39    68    62   am
    40    74    76   ar
    41    61    62    1
    42    61    64    1
    43    80    81    1
    44    62    63    2
    45    64    65    1
    46    67    66    1
    47    81    84    1
    48    81    82    1
    49    65    66    1
    50    84    85    1
    51    82    91   am
    52    82    83    2
    53    91    92    1
    54    90    88    1
    55    87    86    1
    56    87    88    2
    57    93    92    1
    58    93    94    2
    59    85    86    1
    60    95    92    1
    61    95    97    1
    62    95    96    1
    63    88    89    1
    64    98    99    1
    65    99   100    1
    66    99   102    1
    67   106   100   am
    68   106   107    1
    69   110   107    1
    70   110   111    1
    71   103   102    1
    72   103   105    1
    73   103   104    1
    74   108   107    1
    75   108   109    2
    76   100   101    2
    77   113   111   am
    78   111   112    2
    79    18    16   ar
    80    18    20   ar
    81    21    20    1
    82    16    15   ar
    83    20    19   ar
    84     5     6    1
    85     5     2    1
    86    15    14    1
    87    15    17   ar
    88     3     2    1
    89     3     4    2
    90    19    17   ar
    91     6     7    1
    92     1     2    1
    93    14    11    1
    94     7     9   am
    95     7     8    2
    96    11    12    1
    97    11    10    1
    98    12    13    2
    99    29    28   ar
   100    27    28    1
   101    27    26    1
   102    28    30   ar
   103    26    23    1
   104    23    22    1
   105    23    24    1
   106    24    25    2
