@<TRIPOS>MOLECULE
tmp/4x9eB01.pdb
 129 123 0 0 0
SMALL
GASTEIGER

@<TRIPOS>ATOM
      1  N         34.3420  -57.4730   -2.4210 N.3    13  ARG13      -0.1245
      2  CA        34.7950  -56.4040   -3.3040 C.3    13  ARG13       0.1563
      3  C         36.2840  -56.1390   -3.1420 C.2    13  ARG13       0.2260
      4  O         36.9230  -56.6880   -2.2440 O.2    13  ARG13      -0.2867
      5  CB        34.0030  -55.1260   -3.0410 C.3    13  ARG13       0.0307
      6  CG        32.5080  -55.3460   -3.0670 C.3    13  ARG13       0.0489
      7  CD        31.7720  -54.0650   -3.3680 C.3    13  ARG13       0.2205
      8  NE        30.4120  -54.1050   -2.8510 N.pl3  13  ARG13      -0.0865
      9  CZ        29.3270  -54.2780   -3.5960 C.cat  13  ARG13       0.5346
     10  NH1       29.4270  -54.4160   -4.9140 N.pl3  13  ARG13       0.1354
     11  NH2       28.1360  -54.3000   -3.0100 N.pl3  13  ARG13       0.1354
     12  N         37.6610  -52.9250   -2.7260 N.3    15  TYR15      -0.1227
     13  CA        37.7710  -51.9890   -1.6030 C.3    15  TYR15       0.1736
     14  C         36.5260  -52.0020   -0.7310 C.2    15  TYR15       0.2595
     15  O         35.4470  -52.3710   -1.1920 O.2    15  TYR15      -0.2718
     16  CB        38.0190  -50.5650   -2.0890 C.3    15  TYR15       0.0548
     17  CG        39.0690  -50.4400   -3.1680 C.ar   15  TYR15      -0.0200
     18  CD1       40.4130  -50.2770   -2.8470 C.ar   15  TYR15      -0.0009
     19  CD2       38.7100  -50.4550   -4.5180 C.ar   15  TYR15      -0.0009
     20  CE1       41.3780  -50.1460   -3.8460 C.ar   15  TYR15       0.0417
     21  CE2       39.6630  -50.3210   -5.5220 C.ar   15  TYR15       0.0417
     22  CZ        40.9940  -50.1700   -5.1830 C.ar   15  TYR15       0.1957
     23  OH        41.9370  -50.0420   -6.1830 O.3    15  TYR15      -0.2866
     24  N         36.7000  -51.5830    0.5220 N.am   16  ARG16      -0.1980
     25  CA        35.6380  -51.5050    1.5300 C.3    16  ARG16       0.1597
     26  C         34.6800  -52.6880    1.4820 C.2    16  ARG16       0.2287
     27  O         33.4740  -52.5150    1.6420 O.2    16  ARG16      -0.2864
     28  CB        34.8610  -50.1970    1.3670 C.3    16  ARG16       0.0334
     29  CG        35.7600  -48.9970    1.0580 C.3    16  ARG16       0.0492
     30  CD        35.0570  -47.6500    1.2610 C.3    16  ARG16       0.2205
     31  NE        34.7410  -47.3970    2.6650 N.pl3  16  ARG16      -0.0865
     32  CZ        33.5120  -47.4160    3.1750 C.cat  16  ARG16       0.5346
     33  NH1       32.4640  -47.6630    2.3920 N.pl3  16  ARG16       0.1354
     34  NH2       33.3290  -47.1810    4.4690 N.pl3  16  ARG16       0.1354
     35  N         21.0430  -58.3550   -1.6470 N.3    29  ARG29      -0.1245
     36  CA        21.1950  -56.9010   -1.6600 C.3    29  ARG29       0.1563
     37  C         22.5800  -56.4600   -2.1590 C.2    29  ARG29       0.2260
     38  O         22.7000  -55.4310   -2.8260 O.2    29  ARG29      -0.2867
     39  CB        20.9140  -56.3130   -0.2730 C.3    29  ARG29       0.0307
     40  CG        19.4320  -56.3110    0.0880 C.3    29  ARG29       0.0489
     41  CD        19.1170  -55.3530    1.2230 C.3    29  ARG29       0.2205
     42  NE        19.5890  -53.9990    0.9420 N.pl3  29  ARG29      -0.0865
     43  CZ        20.3050  -53.2760    1.7990 C.cat  29  ARG29       0.5346
     44  NH1       20.6210  -53.7860    2.9920 N.pl3  29  ARG29       0.1354
     45  NH2       20.6970  -52.0460    1.4710 N.pl3  29  ARG29       0.1354
     46  N         22.2470  -56.6070   -5.8560 N.3    32  GLU32      -0.1231
     47  CA        21.3830  -55.4870   -6.2200 C.3    32  GLU32       0.1699
     48  C         22.1980  -54.2060   -6.3030 C.2    32  GLU32       0.2592
     49  O         22.0970  -53.4500   -7.2720 O.2    32  GLU32      -0.2718
     50  CB        20.2440  -55.3180   -5.2190 C.3    32  GLU32       0.0402
     51  CG        19.1450  -56.3660   -5.3540 C.3    32  GLU32       0.1161
     52  CD        18.3840  -56.2590   -6.6720 C.2    32  GLU32       0.3649
     53  OE1       17.6430  -55.2630   -6.8580 O.co2  32  GLU32      -0.2457
     54  OE2       18.5320  -57.1740   -7.5130 O.co2  32  GLU32      -0.2457
     55  N         23.0130  -53.9680   -5.2870 N.am   33  SER33      -0.1952
     56  CA        23.9220  -52.8370   -5.3010 C.3    33  SER33       0.1924
     57  C         24.7660  -52.8340   -6.5740 C.2    33  SER33       0.2314
     58  O         24.9580  -51.7820   -7.1940 O.2    33  SER33      -0.2863
     59  CB        24.8250  -52.8520   -4.0710 C.3    33  SER33       0.2116
     60  OG        25.7880  -51.8090   -4.1370 O.3    33  SER33      -0.2180
     61  N         23.8440  -54.0160   -9.4390 N.3    35  ARG35      -0.1231
     62  CA        22.9330  -53.6090  -10.5140 C.3    35  ARG35       0.1694
     63  C         22.7720  -52.0980  -10.5800 C.2    35  ARG35       0.2593
     64  O         22.9000  -51.4910  -11.6420 O.2    35  ARG35      -0.2718
     65  CB        21.5640  -54.2610  -10.3390 C.3    35  ARG35       0.0321
     66  CG        21.5660  -55.7410  -10.6170 C.3    35  ARG35       0.0489
     67  CD        20.1850  -56.3090  -10.4520 C.3    35  ARG35       0.2205
     68  NE        19.2600  -55.7300  -11.4160 N.pl3  35  ARG35      -0.0865
     69  CZ        18.8840  -56.3230  -12.5440 C.cat  35  ARG35       0.5346
     70  NH1       19.3480  -57.5320  -12.8500 N.pl3  35  ARG35       0.1354
     71  NH2       18.0340  -55.7090  -13.3600 N.pl3  35  ARG35       0.1354
     72  N         22.4900  -51.4940   -9.4360 N.am   36  GLY36      -0.1942
     73  CA        22.3430  -50.0540   -9.3650 C.3    36  GLY36       0.2014
     74  C         23.6070  -49.3360   -9.7780 C.2    36  GLY36       0.2638
     75  O         23.5460  -48.3020  -10.4330 O.2    36  GLY36      -0.2714
     76  N         24.7540  -49.8860   -9.3890 N.am   37  ARG37      -0.1977
     77  CA        26.0420  -49.3420   -9.8110 C.3    37  ARG37       0.1597
     78  C         26.1620  -49.2770  -11.3110 C.2    37  ARG37       0.2287
     79  O         26.5370  -48.2440  -11.8480 O.2    37  ARG37      -0.2864
     80  CB        27.2030  -50.1760   -9.2720 C.3    37  ARG37       0.0334
     81  CG        27.4600  -50.0190   -7.8080 C.3    37  ARG37       0.0492
     82  CD        28.4410  -51.0710   -7.3320 C.3    37  ARG37       0.2205
     83  NE        28.2120  -51.3890   -5.9270 N.pl3  37  ARG37      -0.0865
     84  CZ        28.9620  -50.9390   -4.9330 C.cat  37  ARG37       0.5346
     85  NH1       30.0110  -50.1730   -5.1810 N.pl3  37  ARG37       0.1354
     86  NH2       28.6640  -51.2640   -3.6920 N.pl3  37  ARG37       0.1354
     87  N         23.3440  -47.1010  -13.5540 N.3    40  ASN40      -0.1240
     88  CA        23.4690  -45.6410  -13.4450 C.3    40  ASN40       0.1653
     89  C         24.8280  -45.0980  -13.8870 C.2    40  ASN40       0.2266
     90  O         25.1440  -43.9160  -13.6680 O.2    40  ASN40      -0.2867
     91  CB        23.1900  -45.1870  -12.0190 C.3    40  ASN40       0.1155
     92  CG        21.7040  -45.1720  -11.6890 C.2    40  ASN40       0.2627
     93  OD1       21.0160  -44.1870  -11.9670 O.2    40  ASN40      -0.2716
     94  ND2       21.2020  -46.2610  -11.0820 N.am   40  ASN40      -0.0877
     95  N         36.3930  -46.2130  -14.0130 N.3   191  MET191     -0.1230
     96  CA        35.0600  -45.9510  -13.4610 C.3   191  MET191      0.1702
     97  C         35.0410  -46.1590  -11.9470 C.2   191  MET191      0.2592
     98  O         34.2420  -45.5490  -11.2240 O.2   191  MET191     -0.2718
     99  CB        34.0100  -46.8530  -14.1210 C.3   191  MET191      0.0401
    100  CG        33.6130  -46.5020  -15.5710 C.3   191  MET191      0.0596
    101  SD        32.9380  -44.8330  -15.8210 S.3   191  MET191     -0.1393
    102  CE        34.3140  -44.0350  -16.6590 C.3   191  MET191      0.0692
    103  N         35.9390  -47.0260  -11.4900 N.am  192  ARG192     -0.1966
    104  CA        36.0190  -47.4290  -10.0930 C.3   192  ARG192      0.1729
    105  C         34.6190  -47.7130   -9.5600 C.2   192  ARG192      0.2616
    106  O         34.1140  -47.0000   -8.6900 O.2   192  ARG192     -0.2715
    107  CB        36.7350  -46.3560   -9.2670 C.3   192  ARG192      0.0348
    108  CG        38.0270  -45.8560   -9.9260 C.3   192  ARG192      0.0492
    109  CD        39.1860  -45.6970   -8.9360 C.3   192  ARG192      0.2205
    110  NE        40.4060  -46.3600   -9.4070 N.pl3 192  ARG192     -0.0865
    111  CZ        40.9260  -47.4640   -8.8670 C.cat 192  ARG192      0.5346
    112  NH1       40.3450  -48.0300   -7.8150 N.pl3 192  ARG192      0.1354
    113  NH2       42.0360  -47.9970   -9.3740 N.pl3 192  ARG192      0.1354
    114  N         33.9830  -48.7360  -10.1280 N.am  193  MET193     -0.1963
    115  CA        32.6330  -49.1160   -9.7310 C.3   193  MET193      0.1736
    116  C         32.6780  -50.0270   -8.5220 C.2   193  MET193      0.2616
    117  O         31.6810  -50.1800   -7.8110 O.2   193  MET193     -0.2715
    118  CB        31.8900  -49.8250  -10.8610 C.3   193  MET193      0.0427
    119  CG        32.1690  -49.3120  -12.2610 C.3   193  MET193      0.0599
    120  SD        30.7860  -49.7190  -13.3430 S.3   193  MET193     -0.1393
    121  CE        29.4960  -48.9560  -12.3570 C.3   193  MET193      0.0692
    122  N         33.8360  -50.6390   -8.3050 N.am  194  ASN194     -0.1972
    123  CA        34.0300  -51.5310   -7.1690 C.3   194  ASN194      0.1688
    124  C         32.9310  -52.5830   -7.1290 C.2   194  ASN194      0.2292
    125  O         32.1420  -52.6380   -6.2000 O.2   194  ASN194     -0.2864
    126  CB        34.0690  -50.7420   -5.8560 C.3   194  ASN194      0.1181
    127  CG        34.5610  -51.5760   -4.6980 C.2   194  ASN194      0.2629
    128  OD1       35.4600  -52.3940   -4.8520 O.2   194  ASN194     -0.2716
    129  ND2       33.9570  -51.3890   -3.5310 N.am  194  ASN194     -0.0877
@<TRIPOS>BOND
     1   102   101    1
     2   101   100    1
     3   100    99    1
     4    99    96    1
     5    95    96    1
     6    89    90    2
     7    89    88    1
     8    87    88    1
     9    96    97    1
    10    88    91    1
    11    71    69    1
    12   120   121    1
    13   120   119    1
    14    70    69    1
    15    69    68    2
    16   119   118    1
    17    91    92    1
    18    93    92    2
    19    97   103   am
    20    97    98    2
    21    79    78    2
    22    92    94   am
    23    64    63    2
    24   103   104    1
    25    68    67    1
    26    78    77    1
    27   118   115    1
    28    66    67    1
    29    66    65    1
    30    63    62    1
    31    63    72   am
    32    62    65    1
    33    62    61    1
    34    75    74    2
    35   114   115    1
    36   114   105   am
    37   104   105    1
    38   104   107    1
    39   108   107    1
    40   108   109    1
    41    77    76    1
    42    77    80    1
    43    74    76   am
    44    74    73    1
    45   115   116    1
    46   105   106    2
    47    72    73    1
    48   110   109    1
    49   110   111    2
    50   113   111    1
    51    80    81    1
    52   111   112    1
    53   116   122   am
    54   116   117    2
    55   122   123    1
    56    81    82    1
    57    54    52   ar
    58    82    83    1
    59    49    48    2
    60    58    57    2
    61   123   124    1
    62   123   126    1
    63   124   125    2
    64    53    52   ar
    65    52    51    1
    66    57    56    1
    67    48    47    1
    68    48    55   am
    69    47    46    1
    70    47    50    1
    71    23    22    1
    72    83    84    2
    73   126   127    1
    74    21    22   ar
    75    21    19   ar
    76    51    50    1
    77    56    55    1
    78    56    59    1
    79    22    20   ar
    80    85    84    1
    81    84    86    1
    82    10     9    1
    83   128   127    2
    84   127   129   am
    85    19    17   ar
    86    60    59    1
    87    20    18   ar
    88     9    11    1
    89     9     8    2
    90     7     6    1
    91     7     8    1
    92     2     3    1
    93     2     5    1
    94     2     1    1
    95    17    18   ar
    96    17    16    1
    97     3     4    2
    98     6     5    1
    99    38    37    2
   100    12    13    1
   101    37    36    1
   102    16    13    1
   103    36    35    1
   104    36    39    1
   105    13    14    1
   106    15    14    2
   107    14    24   am
   108    39    40    1
   109    40    41    1
   110    24    25    1
   111    42    41    1
   112    42    43    2
   113    29    30    1
   114    29    28    1
   115    30    31    1
   116    28    25    1
   117    45    43    1
   118    26    25    1
   119    26    27    2
   120    43    44    1
   121    33    32    1
   122    31    32    2
   123    32    34    1
