@<TRIPOS>MOLECULE
tmp/4x9lA00.pdb
 179 169 0 0 0
SMALL
GASTEIGER

@<TRIPOS>ATOM
      1  N         28.6000    9.6080   10.8160 N.3    34  GLU34      -0.1231
      2  CA        27.2460   10.0930   10.5700 C.3    34  GLU34       0.1699
      3  C         26.9850   11.4490   11.2020 C.2    34  GLU34       0.2592
      4  O         26.2490   12.2710   10.6520 O.2    34  GLU34      -0.2718
      5  CB        26.2100    9.0760   11.0800 C.3    34  GLU34       0.0402
      6  CG        26.0310    7.8820   10.1680 C.3    34  GLU34       0.1161
      7  CD        25.7690    8.3130    8.7370 C.2    34  GLU34       0.3649
      8  OE1       24.6240    8.7350    8.4540 O.co2  34  GLU34      -0.2457
      9  OE2       26.7040    8.2510    7.9000 O.co2  34  GLU34      -0.2457
     10  N         27.5600   11.6620   12.3780 N.am   35  LEU35      -0.1980
     11  CA        27.3790   12.9180   13.0960 C.3    35  LEU35       0.1596
     12  C         28.3040   13.9940   12.5700 C.2    35  LEU35       0.2287
     13  O         27.8960   15.1380   12.3590 O.2    35  LEU35      -0.2864
     14  CB        27.5990   12.7090   14.5880 C.3    35  LEU35       0.0297
     15  CG        26.5390   11.7820   15.1790 C.3    35  LEU35       0.0022
     16  CD1       26.5780   11.7980   16.6960 C.3    35  LEU35       0.0001
     17  CD2       25.1700   12.1850   14.6690 C.3    35  LEU35       0.0001
     18  N         29.3890   14.1210    9.6450 N.3    37  SER37      -0.1202
     19  CA        28.7500   14.5600    8.4060 C.3    37  SER37       0.2020
     20  C         27.8780   15.7740    8.6860 C.2    37  SER37       0.2619
     21  O         28.2230   16.8940    8.2940 O.2    37  SER37      -0.2717
     22  CB        27.8730   13.4580    7.7990 C.3    37  SER37       0.2103
     23  OG        26.6280   13.9880    7.3270 O.3    37  SER37      -0.2182
     24  N         26.7860   15.5410    9.4180 N.am   38  ASN38      -0.1960
     25  CA        25.7310   16.5280    9.6230 C.3    38  ASN38       0.1819
     26  C         26.2770   17.8310   10.1510 C.2    38  ASN38       0.2622
     27  O         25.6650   18.8890    9.9800 O.2    38  ASN38      -0.2715
     28  CB        24.6900   15.9810   10.5910 C.3    38  ASN38       0.1195
     29  CG        23.9810   14.7700   10.0460 C.2    38  ASN38       0.2630
     30  OD1       24.3740   14.2160    9.0130 O.2    38  ASN38      -0.2716
     31  ND2       22.9220   14.3520   10.7270 N.am   38  ASN38      -0.0877
     32  N         27.4370   17.7250   10.7950 N.am   39  SER39      -0.1950
     33  CA        28.1860   18.8660   11.3020 C.3    39  SER39       0.1924
     34  C         28.9160   19.6280   10.1900 C.2    39  SER39       0.2314
     35  O         28.8290   20.8570   10.1150 O.2    39  SER39      -0.2863
     36  CB        29.1670   18.4140   12.3980 C.3    39  SER39       0.2116
     37  OG        28.4960   18.2160   13.6360 O.3    39  SER39      -0.2180
     38  N         28.0810   19.6370    7.1510 N.3    41  ASP41      -0.1225
     39  CA        26.9050   20.2340    6.5140 C.3    41  ASP41       0.1805
     40  C         26.4380   21.5300    7.1770 C.2    41  ASP41       0.2597
     41  O         26.0300   22.4800    6.4970 O.2    41  ASP41      -0.2718
     42  CB        25.7370   19.2370    6.5370 C.3    41  ASP41       0.1424
     43  CG        26.0220   17.9620    5.7430 C.2    41  ASP41       0.3668
     44  OD1       25.1050   17.1030    5.6750 O.co2  41  ASP41      -0.2456
     45  OD2       27.1470   17.8250    5.1910 O.co2  41  ASP41      -0.2456
     46  N         26.4750   21.5460    8.5080 N.am   42  ALA42      -0.1979
     47  CA        26.0800   22.7150    9.2880 C.3    42  ALA42       0.1597
     48  C         27.1270   23.8230    9.1800 C.2    42  ALA42       0.2287
     49  O         26.8010   25.0010    9.1090 O.2    42  ALA42      -0.2864
     50  CB        25.8640   22.3320   10.7350 C.3    42  ALA42       0.0319
     51  N         30.0240   21.7520   17.0210 N.3    80  ASP80      -0.1239
     52  CA        30.4020   22.5620   15.8730 C.3    80  ASP80       0.1674
     53  C         30.0050   24.0310   16.0110 C.2    80  ASP80       0.2266
     54  O         29.1410   24.4100   16.8180 O.2    80  ASP80      -0.2867
     55  CB        29.7970   21.9910   14.5870 C.3    80  ASP80       0.1410
     56  CG        28.2710   21.8920   14.6430 C.2    80  ASP80       0.3668
     57  OD1       27.5890   22.9470   14.5750 O.co2  80  ASP80      -0.2456
     58  OD2       27.7550   20.7520   14.7410 O.co2  80  ASP80      -0.2456
     59  N         25.6310   26.0440   11.5850 N.3    83  VAL83      -0.1231
     60  CA        24.4080   26.8630   11.5570 C.3    83  VAL83       0.1692
     61  C         23.5530   26.8460   12.8210 C.2    83  VAL83       0.2593
     62  O         23.1200   27.9050   13.3040 O.2    83  VAL83      -0.2718
     63  CB        23.4940   26.4740   10.3840 C.3    83  VAL83       0.0266
     64  CG1       22.1830   27.1850   10.4880 C.3    83  VAL83       0.0020
     65  CG2       24.1100   26.8740    9.1100 C.3    83  VAL83       0.0020
     66  N         23.3030   25.6460   13.3410 N.am   84  GLY84      -0.1942
     67  CA        22.4040   25.4780   14.4670 C.3    84  GLY84       0.2014
     68  C         20.9520   25.3580   14.0270 C.2    84  GLY84       0.2638
     69  O         20.6430   25.2760   12.8450 O.2    84  GLY84      -0.2714
     70  N         20.0430   25.3440   14.9850 N.am   85  MET85      -0.1976
     71  CA        18.6470   25.1640   14.6560 C.3    85  MET85       0.1605
     72  C         17.7550   26.0970   15.4300 C.2    85  MET85       0.2287
     73  O         18.0770   26.5030   16.5480 O.2    85  MET85      -0.2864
     74  CB        18.2330   23.7210   14.9300 C.3    85  MET85       0.0413
     75  CG        18.8010   22.7500   13.9090 C.3    85  MET85       0.0598
     76  SD        18.4150   21.0410   14.2880 S.3    85  MET85      -0.1393
     77  CE        19.8650   20.5720   15.2280 C.3    85  MET85       0.0692
     78  N         13.4300   24.0060   13.3890 N.3    89  ASP89      -0.1239
     79  CA        14.3470   22.9680   12.8730 C.3    89  ASP89       0.1674
     80  C         14.5040   21.8060   13.8700 C.2    89  ASP89       0.2266
     81  O         14.6460   20.6440   13.4800 O.2    89  ASP89      -0.2867
     82  CB        15.7400   23.4970   12.5140 C.3    89  ASP89       0.1410
     83  CG        15.7370   24.9380   12.0500 C.2    89  ASP89       0.3668
     84  OD1       14.7100   25.6220   12.2370 O.co2  89  ASP89      -0.2456
     85  OD2       16.7790   25.3930   11.5120 O.co2  89  ASP89      -0.2456
     86  N         12.8170   19.2310   11.8230 N.3    93  ASN93      -0.1225
     87  CA        13.8320   18.3800   11.1670 C.3    93  ASN93       0.1785
     88  C         14.3660   17.1500   11.8980 C.2    93  ASN93       0.2597
     89  O         14.6410   16.1330   11.2600 O.2    93  ASN93      -0.2718
     90  CB        15.0250   19.2100   10.7470 C.3    93  ASN93       0.1169
     91  CG        14.6180   20.5080   10.1590 C.2    93  ASN93       0.2627
     92  OD1       13.4720   20.9500   10.3370 O.2    93  ASN93      -0.2716
     93  ND2       15.5400   21.1430    9.4420 N.am   93  ASN93      -0.0877
     94  N         14.5530   17.2290   13.2120 N.am   94  LEU94      -0.1980
     95  CA        15.0530   16.0540   13.9140 C.3    94  LEU94       0.1596
     96  C         13.9880   14.9820   14.0100 C.2    94  LEU94       0.2287
     97  O         14.0830   13.9700   13.3140 O.2    94  LEU94      -0.2864
     98  CB        15.5250   16.3880   15.3170 C.3    94  LEU94       0.0297
     99  CG        16.9630   16.8510   15.5450 C.3    94  LEU94       0.0022
    100  CD1       17.2100   16.9170   17.0480 C.3    94  LEU94       0.0001
    101  CD2       17.9890   15.9590   14.8510 C.3    94  LEU94       0.0001
    102  N         11.0090   14.3620   10.8620 N.3    97  ILE97      -0.1245
    103  CA        11.4830   14.3020    9.4990 C.3    97  ILE97       0.1561
    104  C         12.1830   12.9900    9.1950 C.2    97  ILE97       0.2260
    105  O         13.1420   12.5990    9.8750 O.2    97  ILE97      -0.2867
    106  CB        12.3340   15.5370    9.1570 C.3    97  ILE97       0.0252
    107  CG1       11.4130   16.6870    8.7000 C.3    97  ILE97       0.0019
    108  CG2       13.4190   15.1950    8.1400 C.3    97  ILE97       0.0019
    109  CD1       10.1320   16.2490    7.9530 C.3    97  ILE97       0.0001
    110  N         14.5460   10.9230    7.0620 N.3    99  ARG99      -0.1231
    111  CA        15.6870   11.5210    6.3830 C.3    99  ARG99       0.1694
    112  C         15.7920   10.9860    4.9720 C.2    99  ARG99       0.2592
    113  O         16.1380    9.8210    4.7720 O.2    99  ARG99      -0.2718
    114  CB        16.9730   11.2040    7.1430 C.3    99  ARG99       0.0321
    115  CG        17.0560   11.7300    8.5320 C.3    99  ARG99       0.0489
    116  CD        18.4740   11.6500    9.0630 C.3    99  ARG99       0.2205
    117  NE        19.3440   12.6310    8.4550 N.pl3  99  ARG99      -0.0865
    118  CZ        19.5050   13.8910    8.8070 C.cat  99  ARG99       0.5346
    119  NH1       18.8840   14.4240    9.8750 N.pl3  99  ARG99       0.1354
    120  NH2       20.3230   14.6670    8.0840 N.pl3  99  ARG99       0.1354
    121  N         15.5240   11.8720    4.0070 N.am  100  SER100     -0.1952
    122  CA        15.7630   11.6230    2.5810 C.3   100  SER100      0.1924
    123  C         15.2580   10.2640    2.1310 C.2   100  SER100      0.2314
    124  O         14.0430   10.0290    2.0230 O.2   100  SER100     -0.2863
    125  CB        17.2220   11.8500    2.1700 C.3   100  SER100      0.2116
    126  OG        17.2850   12.2720    0.8130 O.3   100  SER100     -0.2180
    127  N         23.6580    5.9880    4.0210 N.3   114  GLY114     -0.1210
    128  CA        23.8310    6.6430    5.3070 C.3   114  GLY114      0.1956
    129  C         22.5710    6.6960    6.1470 C.2   114  GLY114      0.2612
    130  O         21.4580    6.8920    5.6420 O.2   114  GLY114     -0.2717
    131  N         22.7640    6.5660    7.4550 N.am  115  VAL115     -0.1965
    132  CA        21.6650    6.5890    8.4150 C.3   115  VAL115      0.1727
    133  C         21.3080    7.9830    8.8830 C.2   115  VAL115      0.2617
    134  O         20.1330    8.3280    9.0830 O.2   115  VAL115     -0.2715
    135  CB        21.9690    5.7090    9.6060 C.3   115  VAL115      0.0290
    136  CG1       20.6950    5.4510   10.3790 C.3   115  VAL115      0.0023
    137  CG2       22.5770    4.4040    9.1110 C.3   115  VAL115      0.0023
    138  N         22.3490    8.7800    9.0750 N.am  116  GLY116     -0.1940
    139  CA        22.1550   10.1240    9.5490 C.3   116  GLY116      0.2014
    140  C         22.2370   10.2630   11.0410 C.2   116  GLY116      0.2639
    141  O         22.9510    9.5400   11.7230 O.2   116  GLY116     -0.2714
    142  N         21.5110   11.2460   11.5350 N.am  117  PHE117     -0.1959
    143  CA        21.5090   11.5700   12.9410 C.3   117  PHE117      0.1771
    144  C         21.1460   10.3920   13.8250 C.2   117  PHE117      0.2619
    145  O         21.8260   10.1110   14.8070 O.2   117  PHE117     -0.2715
    146  CB        20.5240   12.7040   13.2020 C.3   117  PHE117      0.0574
    147  CG        20.1810   12.8660   14.6350 C.ar  117  PHE117     -0.0200
    148  CD1       21.1660   13.1870   15.5640 C.ar  117  PHE117     -0.0042
    149  CD2       18.8870   12.6880   15.0690 C.ar  117  PHE117     -0.0042
    150  CE1       20.8570   13.3340   16.9190 C.ar  117  PHE117     -0.0003
    151  CE2       18.5610   12.8340   16.4200 C.ar  117  PHE117     -0.0003
    152  CZ        19.5490   13.1560   17.3490 C.ar  117  PHE117     -0.0000
    153  N         20.0710    9.7010   13.4840 N.am  118  TYR118     -0.1974
    154  CA        19.5120    8.7190   14.4060 C.3   118  TYR118      0.1639
    155  C         20.4230    7.5200   14.6810 C.2   118  TYR118      0.2290
    156  O         20.1840    6.7290   15.6160 O.2   118  TYR118     -0.2864
    157  CB        18.1130    8.3070   13.9680 C.3   118  TYR118      0.0560
    158  CG        17.1100    9.3120   14.4590 C.ar  118  TYR118     -0.0198
    159  CD1       16.7510    9.3450   15.8020 C.ar  118  TYR118     -0.0009
    160  CD2       16.5530   10.2600   13.6020 C.ar  118  TYR118     -0.0009
    161  CE1       15.8390   10.2670   16.2910 C.ar  118  TYR118      0.0417
    162  CE2       15.6330   11.2000   14.0830 C.ar  118  TYR118      0.0417
    163  CZ        15.2830   11.1950   15.4370 C.ar  118  TYR118      0.1957
    164  OH        14.3790   12.1110   15.9480 O.3   118  TYR118     -0.2866
    165  N         25.8660   23.8000   17.4540 N.3   164  THR164     -0.1218
    166  CA        25.1530   22.6820   18.0530 C.3   164  THR164      0.1862
    167  C         26.0760   21.6960   18.7620 C.2   164  THR164      0.2287
    168  O         27.1910   21.4110   18.3040 O.2   164  THR164     -0.2866
    169  CB        24.3580   21.9160   16.9660 C.3   164  THR164      0.1770
    170  OG1       23.6250   22.8500   16.1580 O.3   164  THR164     -0.2211
    171  CG2       23.4000   20.9020   17.5920 C.3   164  THR164      0.0375
    172  N         25.9120   17.8920   20.4490 N.3   166  ILE166     -0.1245
    173  CA        25.1490   16.6710   20.6110 C.3   166  ILE166      0.1561
    174  C         25.8960   15.8610   21.6250 C.2   166  ILE166      0.2260
    175  O         27.0610   15.5340   21.4330 O.2   166  ILE166     -0.2867
    176  CB        25.0180   15.8500   19.3080 C.3   166  ILE166      0.0252
    177  CG1       24.2990   16.6600   18.2170 C.3   166  ILE166      0.0019
    178  CG2       24.2820   14.5410   19.5840 C.3   166  ILE166      0.0019
    179  CD1       25.2250   17.5360   17.3410 C.3   166  ILE166      0.0001
@<TRIPOS>BOND
     1   126   125    1
     2   124   123    2
     3   123   122    1
     4   125   122    1
     5   122   121    1
     6   121   112   am
     7   127   128    1
     8   113   112    2
     9   112   111    1
    10    45    43   ar
    11   128   129    1
    12   130   129    2
    13    44    43   ar
    14    43    42    1
    15   129   131   am
    16   111   110    1
    17   111   114    1
    18    41    40    2
    19    39    42    1
    20    39    38    1
    21    39    40    1
    22   114   115    1
    23    40    46   am
    24    23    22    1
    25   131   132    1
    26    22    19    1
    27     9     7   ar
    28   109   107    1
    29   120   118    1
    30   108   106    1
    31    21    20    2
    32    19    20    1
    33    19    18    1
    34   132   133    1
    35   132   135    1
    36     8     7   ar
    37   117   118    2
    38   117   116    1
    39    46    47    1
    40   115   116    1
    41    20    24   am
    42   107   106    1
    43     7     6    1
    44   118   119    1
    45   133   138   am
    46   133   134    2
    47    30    29    2
    48   138   139    1
    49    49    48    2
    50    65    63    1
    51   137   135    1
    52   106   103    1
    53    48    47    1
    54   104   103    1
    55   104   105    2
    56    47    50    1
    57    24    25    1
    58    93    91   am
    59   103   102    1
    60   139   140    1
    61   135   136    1
    62    25    26    1
    63    25    28    1
    64    27    26    2
    65    29    28    1
    66    29    31   am
    67    35    34    2
    68    26    32   am
    69    91    92    2
    70    91    90    1
    71     6     5    1
    72    34    33    1
    73    63    64    1
    74    63    60    1
    75     2     1    1
    76     2     5    1
    77     2     3    1
    78     4     3    2
    79    90    87    1
    80    32    33    1
    81   140   142   am
    82   140   141    2
    83    87    86    1
    84    87    88    1
    85     3    10   am
    86    89    88    2
    87    33    36    1
    88    85    83   ar
    89   142   143    1
    90    60    59    1
    91    60    61    1
    92    88    94   am
    93    83    84   ar
    94    83    82    1
    95    13    12    2
    96    10    11    1
    97    36    37    1
    98    82    79    1
    99    12    11    1
   100    61    62    2
   101    61    66   am
   102    69    68    2
   103    79    78    1
   104    79    80    1
   105   143   146    1
   106   143   144    1
   107    11    14    1
   108   146   147    1
   109    94    95    1
   110    97    96    2
   111    66    67    1
   112    81    80    2
   113   153   144   am
   114   153   154    1
   115   160   162   ar
   116   160   158   ar
   117   144   145    2
   118    75    76    1
   119    75    74    1
   120    95    96    1
   121    95    98    1
   122   157   154    1
   123   157   158    1
   124    68    67    1
   125    68    70   am
   126   162   163   ar
   127    76    77    1
   128   154   155    1
   129   158   159   ar
   130    57    56   ar
   131    55    56    1
   132    55    52    1
   133    14    15    1
   134   147   149   ar
   135   147   148   ar
   136    56    58   ar
   137    71    74    1
   138    71    70    1
   139    71    72    1
   140    17    15    1
   141   155   156    2
   142   101    99    1
   143   149   151   ar
   144    15    16    1
   145    98    99    1
   146    72    73    2
   147   163   164    1
   148   163   161   ar
   149    99   100    1
   150   148   150   ar
   151   159   161   ar
   152    52    53    1
   153    52    51    1
   154    53    54    2
   155   170   169    1
   156   151   152   ar
   157   150   152   ar
   158   169   171    1
   159   169   166    1
   160   179   177    1
   161   165   166    1
   162   166   167    1
   163   177   176    1
   164   168   167    2
   165   176   178    1
   166   176   173    1
   167   172   173    1
   168   173   174    1
   169   175   174    2
