@<TRIPOS>MOLECULE
tmp/4x9lA01.pdb
 108 96 0 0 0
SMALL
GASTEIGER

@<TRIPOS>ATOM
      1  N         34.4360   15.5320   22.4460 N.3    68  VAL68      -0.1245
      2  CA        34.8090   15.3880   23.8530 C.3    68  VAL68       0.1561
      3  C         34.2200   14.1610   24.5230 C.2    68  VAL68       0.2260
      4  O         33.0300   14.1680   24.8680 O.2    68  VAL68      -0.2867
      5  CB        34.3180   16.5880   24.6930 C.3    68  VAL68       0.0252
      6  CG1       34.9680   16.5620   26.0830 C.3    68  VAL68       0.0019
      7  CG2       34.6080   17.8980   23.9860 C.3    68  VAL68       0.0019
      8  N         33.7990   12.3170   27.9380 N.3    70  ASP70      -0.1239
      9  CA        33.9470   12.6780   29.3480 C.3    70  ASP70       0.1674
     10  C         33.6190   11.5220   30.2950 C.2    70  ASP70       0.2266
     11  O         32.4480   11.1700   30.4940 O.2    70  ASP70      -0.2867
     12  CB        33.0840   13.8970   29.6740 C.3    70  ASP70       0.1410
     13  CG        33.0250   14.1840   31.1520 C.2    70  ASP70       0.3668
     14  OD1       34.0620   14.0230   31.8550 O.co2  70  ASP70      -0.2456
     15  OD2       31.9260   14.5650   31.6100 O.co2  70  ASP70      -0.2456
     16  N         30.7740   11.6220   33.1420 N.3    73  SER73      -0.1217
     17  CA        29.3700   11.4060   32.8070 C.3    73  SER73       0.1889
     18  C         29.1200   10.2510   31.8220 C.2    73  SER73       0.2288
     19  O         27.9660    9.9420   31.4900 O.2    73  SER73      -0.2866
     20  CB        28.7880   12.7120   32.2530 C.3    73  SER73       0.2089
     21  OG        29.7300   13.3960   31.4300 O.3    73  SER73      -0.2183
     22  N         29.6500   10.3670   28.7340 N.3    75  THR75      -0.1218
     23  CA        29.0640   10.9270   27.5280 C.3    75  THR75       0.1862
     24  C         30.1290   11.1870   26.4800 C.2    75  THR75       0.2287
     25  O         31.2970   11.4280   26.8100 O.2    75  THR75      -0.2866
     26  CB        28.3010   12.2440   27.7990 C.3    75  THR75       0.1770
     27  OG1       29.2210   13.2960   28.1480 O.3    75  THR75      -0.2211
     28  CG2       27.3160   12.0400   28.8980 C.3    75  THR75       0.0375
     29  N         30.4950   13.8130   23.2320 N.3    77  SER77      -0.1217
     30  CA        29.8590   15.0240   22.7360 C.3    77  SER77       0.1889
     31  C         30.4350   15.4900   21.3940 C.2    77  SER77       0.2288
     32  O         31.6370   15.4050   21.1500 O.2    77  SER77      -0.2866
     33  CB        29.9490   16.1450   23.7790 C.3    77  SER77       0.2089
     34  OG        29.4080   15.7420   25.0290 O.3    77  SER77      -0.2183
     35  N         30.5460   18.7910   18.7740 N.3    79  ILE79      -0.1245
     36  CA        30.3620   20.2310   18.8630 C.3    79  ILE79       0.1561
     37  C         30.8920   20.9550   17.6390 C.2    79  ILE79       0.2260
     38  O         32.0650   20.8090   17.2860 O.2    79  ILE79      -0.2867
     39  CB        31.0780   20.8170   20.1130 C.3    79  ILE79       0.0252
     40  CG1       30.4950   20.2410   21.4030 C.3    79  ILE79       0.0019
     41  CG2       30.9990   22.3430   20.1230 C.3    79  ILE79       0.0019
     42  CD1       31.2000   18.9790   21.8760 C.3    79  ILE79       0.0001
     43  N         21.9130   20.5320   22.1790 N.3   130  THR130     -0.1218
     44  CA        21.8530   21.8940   22.6530 C.3   130  THR130      0.1862
     45  C         22.2570   22.7050   21.4390 C.2   130  THR130      0.2287
     46  O         23.3020   22.4560   20.8350 O.2   130  THR130     -0.2866
     47  CB        22.8280   22.0850   23.8380 C.3   130  THR130      0.1770
     48  OG1       22.8270   20.8970   24.6580 O.3   130  THR130     -0.2211
     49  CG2       22.4370   23.2950   24.6800 C.3   130  THR130      0.0375
     50  N         18.5520   29.7150   22.1740 N.3   138  GLN138     -0.1245
     51  CA        19.1860   28.4190   22.3280 C.3   138  GLN138      0.1566
     52  C         18.1770   27.3950   22.8490 C.2   138  GLN138      0.2260
     53  O         17.5770   27.5800   23.9090 O.2   138  GLN138     -0.2867
     54  CB        20.3980   28.5410   23.2540 C.3   138  GLN138      0.0367
     55  CG        21.0310   27.2220   23.6580 C.3   138  GLN138      0.0905
     56  CD        22.5180   27.3500   23.9210 C.2   138  GLN138      0.2608
     57  OE1       23.2080   28.1770   23.3050 O.2   138  GLN138     -0.2717
     58  NE2       23.0230   26.5270   24.8320 N.am  138  GLN138     -0.0878
     59  N         16.4740   27.1110   26.2800 N.3   154  ASP154     -0.1239
     60  CA        17.5270   27.2590   27.2840 C.3   154  ASP154      0.1674
     61  C         18.1860   28.6450   27.1470 C.2   154  ASP154      0.2266
     62  O         19.1600   28.8280   26.3980 O.2   154  ASP154     -0.2867
     63  CB        18.5630   26.1410   27.0510 C.3   154  ASP154      0.1410
     64  CG        19.5810   26.0060   28.1800 C.2   154  ASP154      0.3668
     65  OD1       19.2260   26.2300   29.3620 O.co2 154  ASP154     -0.2456
     66  OD2       20.7450   25.6510   27.8710 O.co2 154  ASP154     -0.2456
     67  N         25.2180   28.3840   30.0520 N.3   158  GLU158     -0.1231
     68  CA        26.1100   28.7470   28.9680 C.3   158  GLU158      0.1699
     69  C         25.4770   28.5850   27.5890 C.2   158  GLU158      0.2592
     70  O         24.6680   27.6780   27.3700 O.2   158  GLU158     -0.2718
     71  CB        27.4520   28.0220   29.0870 C.3   158  GLU158      0.0402
     72  CG        27.3820   26.5280   29.1690 C.3   158  GLU158      0.1161
     73  CD        28.6500   25.8950   28.5960 C.2   158  GLU158      0.3649
     74  OE1       29.3900   26.6070   27.8540 O.co2 158  GLU158     -0.2457
     75  OE2       28.9070   24.6970   28.8890 O.co2 158  GLU158     -0.2457
     76  N         25.8320   29.5090   26.6920 N.am  159  GLN159     -0.1966
     77  CA        25.4060   29.5040   25.2940 C.3   159  GLN159      0.1733
     78  C         26.6100   29.2780   24.3760 C.2   159  GLN159      0.2616
     79  O         27.7320   29.6570   24.7100 O.2   159  GLN159     -0.2715
     80  CB        24.7520   30.8450   24.9370 C.3   159  GLN159      0.0408
     81  CG        23.9550   31.4720   26.0720 C.3   159  GLN159      0.0908
     82  CD        22.6980   30.6840   26.4240 C.2   159  GLN159      0.2608
     83  OE1       21.8100   30.4840   25.5830 O.2   159  GLN159     -0.2717
     84  NE2       22.6150   30.2380   27.6770 N.am  159  GLN159     -0.0878
     85  N         26.3860   28.6390   23.2320 N.am  160  LEU160     -0.1977
     86  CA        27.4240   28.5350   22.2010 C.3   160  LEU160      0.1596
     87  C         27.4630   29.7990   21.3240 C.2   160  LEU160      0.2287
     88  O         28.4900   30.1480   20.7350 O.2   160  LEU160     -0.2864
     89  CB        27.2070   27.2790   21.3450 C.3   160  LEU160      0.0297
     90  CG        26.6000   26.0350   22.0200 C.3   160  LEU160      0.0022
     91  CD1       25.0790   25.9460   21.8010 C.3   160  LEU160      0.0001
     92  CD2       27.2980   24.7600   21.5370 C.3   160  LEU160      0.0001
     93  N         25.5820   21.1700   19.8770 N.3   165  LYS165     -0.1245
     94  CA        26.3160   20.2250   20.7010 C.3   165  LYS165      0.1561
     95  C         25.4160   19.0490   20.8550 C.2   165  LYS165      0.2260
     96  O         24.2820   19.1830   21.3200 O.2   165  LYS165     -0.2867
     97  CB        26.6000   20.8230   22.0880 C.3   165  LYS165      0.0271
     98  CG        27.0140   19.8320   23.1900 C.3   165  LYS165      0.0035
     99  CD        27.3230   20.5990   24.4940 C.3   165  LYS165      0.0206
    100  CE        27.6700   19.6850   25.6800 C.3   165  LYS165      0.1093
    101  NZ        27.7400   20.4250   26.9900 N.3   165  LYS165     -0.1314
    102  N         25.2280   15.5550   22.7200 N.3   167  THR167     -0.1218
    103  CA        25.8520   14.8070   23.7800 C.3   167  THR167      0.1862
    104  C         25.1160   13.5010   23.8810 C.2   167  THR167      0.2287
    105  O         23.9140   13.4800   24.1520 O.2   167  THR167     -0.2866
    106  CB        25.6780   15.5310   25.0910 C.3   167  THR167      0.1770
    107  OG1       26.1000   16.8950   24.9350 O.3   167  THR167     -0.2211
    108  CG2       26.4730   14.8350   26.1840 C.3   167  THR167      0.0375
@<TRIPOS>BOND
     1    38    37    2
     2    37    36    1
     3    35    36    1
     4    36    39    1
     5    93    94    1
     6    39    41    1
     7    39    40    1
     8    94    95    1
     9    94    97    1
    10    88    87    2
    11    46    45    2
    12    95    96    2
    13    32    31    2
    14    87    86    1
    15    89    90    1
    16    89    86    1
    17    31    30    1
    18    40    42    1
    19    45    44    1
    20    92    90    1
    21    91    90    1
    22    97    98    1
    23    50    51    1
    24    43    44    1
    25    86    85    1
    26    51    52    1
    27    51    54    1
    28     1     2    1
    29    44    47    1
    30   102   103    1
    31    30    29    1
    32    30    33    1
    33    52    53    2
    34    98    99    1
    35    85    78   am
    36    54    55    1
    37    57    56    2
    38    55    56    1
    39    33    34    1
    40   103   104    1
    41   103   106    1
    42    47    48    1
    43    47    49    1
    44     2     3    1
    45     2     5    1
    46   104   105    2
    47    56    58   am
    48     7     5    1
    49    78    79    2
    50    78    77    1
    51    99   100    1
    52     3     4    2
    53     5     6    1
    54   107   106    1
    55    80    77    1
    56    80    81    1
    57   106   108    1
    58    77    76    1
    59    83    82    2
    60   100   101    1
    61    81    82    1
    62    59    60    1
    63    62    61    2
    64    82    84   am
    65    24    25    2
    66    24    23    1
    67    76    69   am
    68    63    60    1
    69    63    64    1
    70    61    60    1
    71    70    69    2
    72    23    26    1
    73    23    22    1
    74    69    68    1
    75    26    27    1
    76    26    28    1
    77    74    73   ar
    78    66    64   ar
    79     8     9    1
    80    64    65   ar
    81    73    75   ar
    82    73    72    1
    83    68    71    1
    84    68    67    1
    85    71    72    1
    86     9    12    1
    87     9    10    1
    88    12    13    1
    89    10    11    2
    90    13    15   ar
    91    13    14   ar
    92    21    20    1
    93    19    18    2
    94    18    17    1
    95    20    17    1
    96    17    16    1
