@<TRIPOS>MOLECULE
tmp/4x9mA01.pdb
 134 127 0 0 0
SMALL
GASTEIGER

@<TRIPOS>ATOM
      1  N          7.1090  -21.2490   47.6050 N.3    46  ASN46      -0.1225
      2  CA         7.2840  -21.2060   46.1510 C.3    46  ASN46       0.1785
      3  C          5.9790  -21.5550   45.5560 C.2    46  ASN46       0.2597
      4  O          5.0660  -21.8710   46.2550 O.2    46  ASN46      -0.2718
      5  CB         8.3590  -22.1850   45.6660 C.3    46  ASN46       0.1169
      6  CG         8.0200  -23.6080   45.9950 C.2    46  ASN46       0.2627
      7  OD1        7.3120  -24.2630   45.2630 O.2    46  ASN46      -0.2716
      8  ND2        8.5420  -24.0950   47.0960 N.am   46  ASN46      -0.0877
      9  N          5.8770  -21.4750   44.2540 N.am   47  SER47      -0.1952
     10  CA         4.6000  -21.5850   43.6010 C.3    47  SER47       0.1924
     11  C          4.2890  -23.0120   43.1800 C.2    47  SER47       0.2314
     12  O          3.2580  -23.2420   42.6430 O.2    47  SER47      -0.2863
     13  CB         4.5530  -20.6110   42.4160 C.3    47  SER47       0.2116
     14  OG         5.7030  -20.7740   41.6220 O.3    47  SER47      -0.2180
     15  N          5.3350  -24.9860   40.8010 N.3    49  VAL49      -0.1245
     16  CA         5.1370  -25.2460   39.3940 C.3    49  VAL49       0.1561
     17  C          6.2350  -26.1380   38.8620 C.2    49  VAL49       0.2260
     18  O          7.4460  -25.8510   39.0540 O.2    49  VAL49      -0.2867
     19  CB         5.1580  -23.9470   38.5530 C.3    49  VAL49       0.0252
     20  CG1        5.0180  -24.2510   37.0640 C.3    49  VAL49       0.0019
     21  CG2        4.0970  -22.9640   38.9970 C.3    49  VAL49       0.0019
     22  N          7.8370  -26.5650   35.7910 N.3    51  HIS51      -0.1241
     23  CA         8.0200  -25.7540   34.5760 C.3    51  HIS51       0.1621
     24  C          8.3440  -26.5610   33.3080 C.2    51  HIS51       0.2264
     25  O          9.1110  -27.5250   33.3180 O.2    51  HIS51      -0.2867
     26  CB         9.1450  -24.7580   34.8170 C.3    51  HIS51       0.0745
     27  CG         8.8090  -23.6750   35.7950 C.ar   51  HIS51       0.0817
     28  ND1        8.0260  -22.5830   35.4680 N.ar   51  HIS51      -0.2268
     29  CD2        9.1700  -23.5000   37.0860 C.ar   51  HIS51       0.1154
     30  CE1        7.8990  -21.7980   36.5200 C.ar   51  HIS51       0.1986
     31  NE2        8.6100  -22.3200   37.5090 N.ar   51  HIS51      -0.2212
     32  N         11.4000  -21.1460   29.7950 N.3    55  ASP55      -0.1239
     33  CA        12.0320  -19.9990   30.3980 C.3    55  ASP55       0.1674
     34  C         13.5750  -19.9760   30.5410 C.2    55  ASP55       0.2266
     35  O         14.1920  -18.9590   30.2900 O.2    55  ASP55      -0.2867
     36  CB        11.3840  -19.7710   31.7760 C.3    55  ASP55       0.1410
     37  CG        12.0350  -18.6470   32.5180 C.2    55  ASP55       0.3668
     38  OD1       12.1770  -17.5640   31.9130 O.co2  55  ASP55      -0.2456
     39  OD2       12.4640  -18.8580   33.6750 O.co2  55  ASP55      -0.2456
     40  N         16.9770  -13.2840   46.7070 N.3   230  ARG230     -0.1245
     41  CA        15.8660  -12.5020   46.1070 C.3   230  ARG230      0.1563
     42  C         14.5950  -12.9130   46.7880 C.2   230  ARG230      0.2260
     43  O         14.0960  -13.9980   46.5900 O.2   230  ARG230     -0.2867
     44  CB        15.7170  -12.7520   44.6080 C.3   230  ARG230      0.0307
     45  CG        14.5770  -11.9260   44.0050 C.3   230  ARG230      0.0489
     46  CD        14.5590  -11.8110   42.4810 C.3   230  ARG230      0.2205
     47  NE        15.8930  -11.4410   41.9950 N.pl3 230  ARG230     -0.0865
     48  CZ        16.6390  -12.1190   41.1110 C.cat 230  ARG230      0.5346
     49  NH1       16.1750  -13.2120   40.4860 N.pl3 230  ARG230      0.1354
     50  NH2       17.8710  -11.6750   40.8280 N.pl3 230  ARG230      0.1354
     51  N          3.9840  -13.2590   48.3280 N.3   234  TYR234     -0.1241
     52  CA         2.7990  -13.6800   47.6260 C.3   234  TYR234      0.1605
     53  C          1.5650  -13.3290   48.4350 C.2   234  TYR234      0.2264
     54  O          1.6390  -13.1250   49.6370 O.2   234  TYR234     -0.2867
     55  CB         2.7470  -15.1810   47.5180 C.3   234  TYR234      0.0534
     56  CG         3.7150  -15.8200   46.5890 C.ar  234  TYR234     -0.0201
     57  CD1        3.4170  -15.9540   45.2350 C.ar  234  TYR234     -0.0009
     58  CD2        4.8960  -16.4040   47.0690 C.ar  234  TYR234     -0.0009
     59  CE1        4.2970  -16.5910   44.3750 C.ar  234  TYR234      0.0417
     60  CE2        5.7770  -17.0500   46.2140 C.ar  234  TYR234      0.0417
     61  CZ         5.4820  -17.1240   44.8730 C.ar  234  TYR234      0.1957
     62  OH         6.3040  -17.7630   44.0120 O.3   234  TYR234     -0.2866
     63  N          1.3990  -15.9170   33.4170 N.3   250  PHE250     -0.1241
     64  CA         2.7120  -15.3420   33.7440 C.3   250  PHE250      0.1605
     65  C          2.9300  -14.0610   32.9910 C.2   250  PHE250      0.2264
     66  O          2.6680  -13.9850   31.7840 O.2   250  PHE250     -0.2867
     67  CB         3.9010  -16.2970   33.3380 C.3   250  PHE250      0.0534
     68  CG         3.9470  -17.5910   34.0900 C.ar  250  PHE250     -0.0203
     69  CD1        3.1490  -18.6500   33.7110 C.ar  250  PHE250     -0.0042
     70  CD2        4.7440  -17.7400   35.1810 C.ar  250  PHE250     -0.0042
     71  CE1        3.1550  -19.8370   34.4330 C.ar  250  PHE250     -0.0003
     72  CE2        4.7460  -18.9280   35.9200 C.ar  250  PHE250     -0.0003
     73  CZ         3.9490  -19.9680   35.5500 C.ar  250  PHE250     -0.0000
     74  N         11.3130  -13.8270   36.8830 N.3   258  LYS258     -0.1231
     75  CA        10.8130  -15.1920   36.8290 C.3   258  LYS258      0.1693
     76  C          9.5750  -15.4160   37.6940 C.2   258  LYS258      0.2592
     77  O          9.4380  -14.9300   38.8480 O.2   258  LYS258     -0.2718
     78  CB        11.9290  -16.1640   37.2850 C.3   258  LYS258      0.0285
     79  CG        12.8770  -16.5590   36.1430 C.3   258  LYS258      0.0035
     80  CD        14.3500  -16.6720   36.5370 C.3   258  LYS258      0.0206
     81  CE        15.2970  -16.2960   35.3800 C.3   258  LYS258      0.1093
     82  NZ        14.9330  -16.8840   34.0420 N.3   258  LYS258     -0.1314
     83  N          8.6710  -16.1880   37.1240 N.am  259  GLY259     -0.1957
     84  CA         7.5630  -16.7800   37.8800 C.3   259  GLY259      0.1869
     85  C          6.5560  -15.8130   38.4960 C.2   259  GLY259      0.2309
     86  O          5.9580  -16.1490   39.5210 O.2   259  GLY259     -0.2863
     87  N          3.1240  -14.6300   38.7020 N.3   261  ILE261     -0.1245
     88  CA         1.9030  -15.2140   38.2710 C.3   261  ILE261      0.1561
     89  C          0.6290  -14.8890   38.9950 C.2   261  ILE261      0.2260
     90  O          0.6160  -14.3780   40.1200 O.2   261  ILE261     -0.2867
     91  CB         1.9970  -16.7190   38.3530 C.3   261  ILE261      0.0252
     92  CG1        2.1320  -17.2630   39.7710 C.3   261  ILE261      0.0019
     93  CG2        3.1990  -17.1630   37.5790 C.3   261  ILE261      0.0019
     94  CD1        2.1860  -18.7920   39.6530 C.3   261  ILE261      0.0001
     95  N          5.2340  -13.4210   42.6530 N.3   274  PRO274     -0.2116
     96  CA         5.6210  -12.6830   43.8360 C.3   274  PRO274      0.1372
     97  C          6.2070  -11.3410   43.5280 C.2   274  PRO274      0.2244
     98  O          6.4820  -11.0630   42.4100 O.2   274  PRO274     -0.2868
     99  CB         6.7220  -13.5450   44.4080 C.3   274  PRO274      0.0268
    100  CG         7.4030  -14.1000   43.1880 C.3   274  PRO274      0.0207
    101  CD         6.3570  -14.2140   42.1240 C.3   274  PRO274      0.0892
    102  N         14.8470  -16.9870   46.7390 N.3   320  ARG320     -0.1245
    103  CA        15.6970  -17.7360   45.8770 C.3   320  ARG320      0.1563
    104  C         17.1250  -17.5390   46.3390 C.2   320  ARG320      0.2260
    105  O         17.5640  -16.3760   46.5280 O.2   320  ARG320     -0.2867
    106  CB        15.6010  -17.1920   44.4600 C.3   320  ARG320      0.0307
    107  CG        14.2430  -17.4270   43.8140 C.3   320  ARG320      0.0489
    108  CD        14.1310  -16.5830   42.5510 C.3   320  ARG320      0.2205
    109  NE        13.1600  -17.1690   41.6240 N.pl3 320  ARG320     -0.0865
    110  CZ        11.8500  -16.9960   41.7060 C.cat 320  ARG320      0.5346
    111  NH1       11.3250  -16.2110   42.6470 N.pl3 320  ARG320      0.1354
    112  NH2       11.0620  -17.5800   40.8070 N.pl3 320  ARG320      0.1354
    113  N         17.9310  -21.8400   43.0480 N.3   347  LYS347     -0.1231
    114  CA        16.9350  -20.9100   42.6270 C.3   347  LYS347      0.1693
    115  C         15.8960  -21.6690   41.7870 C.2   347  LYS347      0.2593
    116  O         15.9020  -22.9110   41.7160 O.2   347  LYS347     -0.2718
    117  CB        17.5910  -19.7710   41.8460 C.3   347  LYS347      0.0285
    118  CG        18.2560  -20.1740   40.5210 C.3   347  LYS347      0.0035
    119  CD        19.1880  -19.0790   39.9660 C.3   347  LYS347      0.0206
    120  CE        18.8710  -18.6450   38.5490 C.3   347  LYS347      0.1093
    121  NZ        17.4420  -18.2270   38.3750 N.3   347  LYS347     -0.1314
    122  N         14.9860  -20.9210   41.1950 N.am  348  SER348     -0.1939
    123  CA        14.0000  -21.4780   40.2820 C.3   348  SER348      0.2040
    124  C         14.8020  -21.9030   39.0250 C.2   348  SER348      0.2485
    125  O         15.6830  -21.1520   38.6150 O.2   348  SER348     -0.2729
    126  CB        12.9080  -20.4210   40.0290 C.3   348  SER348      0.2129
    127  OG        12.0870  -20.8060   38.9950 O.3   348  SER348     -0.2179
    128  N         14.5800  -23.0980   38.4580 N.am  349  PRO349     -0.2726
    129  CA        13.4860  -24.0170   38.7880 C.3   349  PRO349      0.1402
    130  C         13.9560  -25.2940   39.5430 C.2   349  PRO349      0.2269
    131  O         13.7720  -26.4220   39.0440 O.2   349  PRO349     -0.2865
    132  CB        12.9530  -24.4020   37.3770 C.3   349  PRO349      0.0296
    133  CG        14.1900  -24.4070   36.5050 C.3   349  PRO349      0.0237
    134  CD        15.0850  -23.3260   37.0800 C.3   349  PRO349      0.0939
@<TRIPOS>BOND
     1    32    33    1
     2    35    34    2
     3    33    34    1
     4    33    36    1
     5    36    37    1
     6    66    65    2
     7    38    37   ar
     8    37    39   ar
     9    65    64    1
    10    24    25    2
    11    24    23    1
    12    67    64    1
    13    67    68    1
    14    63    64    1
    15    69    68   ar
    16    69    71   ar
    17    82    81    1
    18    68    70   ar
    19    71    73   ar
    20    23    26    1
    21    23    22    1
    22    26    27    1
    23    70    72   ar
    24    81    80    1
    25    28    27   ar
    26    28    30   ar
    27    73    72   ar
    28    27    29   ar
    29    79    80    1
    30    79    78    1
    31   133   134    1
    32   133   132    1
    33    30    31   ar
    34    75    74    1
    35    75    78    1
    36    75    76    1
    37    20    19    1
    38   134   128    1
    39    29    31   ar
    40    83    76   am
    41    83    84    1
    42   132   129    1
    43    93    91    1
    44    76    77    2
    45    84    85    1
    46    88    91    1
    47    88    87    1
    48    88    89    1
    49    91    92    1
    50   121   120    1
    51   128   129    1
    52   128   124   am
    53    85    86    2
    54   120   119    1
    55    19    21    1
    56    19    16    1
    57   125   124    2
    58   129   130    1
    59    17    18    2
    60    17    16    1
    61    89    90    2
    62   127   126    1
    63   124   123    1
    64   131   130    2
    65    16    15    1
    66    94    92    1
    67   119   118    1
    68   126   123    1
    69   123   122    1
    70    49    48    1
    71   118   117    1
    72   112   110    1
    73    50    48    1
    74    48    47    2
    75   122   115   am
    76    14    13    1
    77   109   110    2
    78   109   108    1
    79   110   111    1
    80   116   115    2
    81   115   114    1
    82   117   114    1
    83    47    46    1
    84   101    95    1
    85   101   100    1
    86    98    97    2
    87    13    10    1
    88    46    45    1
    89   108   107    1
    90   114   113    1
    91    12    11    2
    92    95    96    1
    93    11    10    1
    94   100    99    1
    95    97    96    1
    96    10     9    1
    97   107   106    1
    98    96    99    1
    99    45    44    1
   100    62    61    1
   101     9     3   am
   102    59    61   ar
   103    59    57   ar
   104   106   103    1
   105    44    41    1
   106    61    60   ar
   107    57    56   ar
   108     7     6    2
   109     3     2    1
   110     3     4    2
   111     5     6    1
   112     5     2    1
   113   103   104    1
   114   103   102    1
   115     6     8   am
   116    41    40    1
   117    41    42    1
   118     2     1    1
   119    60    58   ar
   120   104   105    2
   121    56    58   ar
   122    56    55    1
   123    43    42    2
   124    55    52    1
   125    52    51    1
   126    52    53    1
   127    53    54    2
