@<TRIPOS>MOLECULE
tmp/4x9vA00.pdb
 209 207 0 0 0
SMALL
GASTEIGER

@<TRIPOS>ATOM
      1  N          0.5430  -10.3480  -12.7920 N.3    41  SER41      -0.1202
      2  CA         1.5020   -9.6190  -11.9790 C.3    41  SER41       0.2020
      3  C          1.6400   -8.1420  -12.3430 C.2    41  SER41       0.2619
      4  O          1.9850   -7.3490  -11.4790 O.2    41  SER41      -0.2717
      5  CB         2.8760  -10.2670  -12.0560 C.3    41  SER41       0.2103
      6  OG         2.9390  -11.4170  -11.2480 O.3    41  SER41      -0.2182
      7  N          1.3710   -7.7970  -13.6200 N.am   42  LYS42      -0.1965
      8  CA         1.4240   -6.4130  -14.1070 C.3    42  LYS42       0.1728
      9  C          0.4120   -6.2690  -15.2310 C.2    42  LYS42       0.2616
     10  O          0.1200   -7.2410  -15.9230 O.2    42  LYS42      -0.2715
     11  CB         2.8110   -6.0770  -14.6760 C.3    42  LYS42       0.0311
     12  CG         3.9330   -6.2720  -13.7130 C.3    42  LYS42       0.0038
     13  CD         5.2840   -5.9220  -14.3580 C.3    42  LYS42       0.0206
     14  CE         6.3860   -6.1730  -13.3860 C.3    42  LYS42       0.1093
     15  NZ         7.6820   -5.5730  -13.8460 N.3    42  LYS42      -0.1314
     16  N         -0.0800   -5.0540  -15.4570 N.am   43  TRP43      -0.1960
     17  CA        -0.9420   -4.7920  -16.5980 C.3    43  TRP43       0.1771
     18  C         -0.7780   -3.3480  -17.0780 C.2    43  TRP43       0.2620
     19  O         -0.4000   -2.4400  -16.2960 O.2    43  TRP43      -0.2715
     20  CB        -2.4220   -5.1410  -16.3060 C.3    43  TRP43       0.0590
     21  CG        -3.0180   -4.3810  -15.1300 C.ar   43  TRP43       0.0006
     22  CD1       -3.0910   -4.8190  -13.8320 C.ar   43  TRP43       0.0946
     23  CD2       -3.5480   -3.0490  -15.1390 C.ar   43  TRP43       0.0152
     24  NE1       -3.6400   -3.8470  -13.0430 N.ar   43  TRP43      -0.2442
     25  CE2       -3.9190   -2.7450  -13.8170 C.ar   43  TRP43       0.0810
     26  CE3       -3.7660   -2.0880  -16.1320 C.ar   43  TRP43       0.0012
     27  CZ2       -4.4790   -1.5250  -13.4650 C.ar   43  TRP43       0.0191
     28  CZ3       -4.3170   -0.8840  -15.7740 C.ar   43  TRP43       0.0001
     29  CH2       -4.6730   -0.6060  -14.4570 C.ar   43  TRP43       0.0015
     30  N         -1.0760   -3.1640  -18.3650 N.am   44  VAL44      -0.1963
     31  CA        -1.0340   -1.8810  -19.0290 C.3    44  VAL44       0.1727
     32  C         -2.2870   -1.7550  -19.8860 C.2    44  VAL44       0.2616
     33  O         -2.4950   -2.5360  -20.8280 O.2    44  VAL44      -0.2715
     34  CB         0.2120   -1.7450  -19.9200 C.3    44  VAL44       0.0290
     35  CG1        0.1980   -0.3680  -20.6130 C.3    44  VAL44       0.0023
     36  CG2        1.4710   -1.9410  -19.0960 C.3    44  VAL44       0.0023
     37  N         -3.1410   -0.7890  -19.5380 N.am   45  ASP45      -0.1957
     38  CA        -4.3460   -0.5180  -20.3200 C.3    45  ASP45       0.1840
     39  C         -4.0540    0.4990  -21.4220 C.2    45  ASP45       0.2622
     40  O         -3.9950    1.7080  -21.1800 O.2    45  ASP45      -0.2715
     41  CB        -5.4260    0.0300  -19.3930 C.3    45  ASP45       0.1450
     42  CG        -6.7220    0.3430  -20.0970 C.2    45  ASP45       0.3671
     43  OD1       -6.7990    0.1730  -21.3200 O.co2  45  ASP45      -0.2456
     44  OD2       -7.6610    0.8350  -19.3810 O.co2  45  ASP45      -0.2456
     45  N         -3.8360   -0.0120  -22.6240 N.am   46  TYR46      -0.1974
     46  CA        -3.7280    0.8470  -23.7990 C.3    46  TYR46       0.1639
     47  C         -4.9090    0.5430  -24.7330 C.2    46  TYR46       0.2290
     48  O         -4.7760    0.5200  -25.9740 O.2    46  TYR46      -0.2864
     49  CB        -2.4090    0.5820  -24.5470 C.3    46  TYR46       0.0560
     50  CG        -1.8180    1.7750  -25.2550 C.ar   46  TYR46      -0.0198
     51  CD1       -2.5870    2.8910  -25.5710 C.ar   46  TYR46      -0.0009
     52  CD2       -0.5030    1.7550  -25.6470 C.ar   46  TYR46      -0.0009
     53  CE1       -2.0430    3.9640  -26.2300 C.ar   46  TYR46       0.0417
     54  CE2        0.0530    2.8080  -26.3360 C.ar   46  TYR46       0.0417
     55  CZ        -0.7160    3.9210  -26.5940 C.ar   46  TYR46       0.1957
     56  OH        -0.1830    4.9960  -27.2840 O.3    46  TYR46      -0.2866
     57  N         -5.0930   -0.0010  -28.7570 N.3    50  TYR50      -0.1241
     58  CA        -4.4760   -1.2940  -29.0960 C.3    50  TYR50       0.1605
     59  C         -5.0490   -2.4620  -28.3180 C.2    50  TYR50       0.2264
     60  O         -5.4480   -3.4780  -28.9160 O.2    50  TYR50      -0.2867
     61  CB        -2.9690   -1.2510  -28.8820 C.3    50  TYR50       0.0534
     62  CG        -2.3040   -0.2050  -29.7430 C.ar   50  TYR50      -0.0201
     63  CD1       -2.3410   -0.2960  -31.1280 C.ar   50  TYR50      -0.0009
     64  CD2       -1.6500    0.8760  -29.1740 C.ar   50  TYR50      -0.0009
     65  CE1       -1.7460    0.6380  -31.9220 C.ar   50  TYR50       0.0417
     66  CE2       -1.0500    1.8370  -29.9650 C.ar   50  TYR50       0.0417
     67  CZ        -1.0930    1.7170  -31.3450 C.ar   50  TYR50       0.1957
     68  OH        -0.5000    2.6450  -32.1640 O.3    50  TYR50      -0.2866
     69  N          3.7400   -4.6550  -31.2020 N.3   107  LEU107     -0.1245
     70  CA         3.0290   -4.1520  -30.0250 C.3   107  LEU107      0.1561
     71  C          3.3240   -5.0050  -28.7980 C.2   107  LEU107      0.2260
     72  O          3.6190   -4.4620  -27.7430 O.2   107  LEU107     -0.2867
     73  CB         1.5190   -4.1130  -30.2850 C.3   107  LEU107      0.0270
     74  CG         1.0550   -3.0600  -31.3150 C.3   107  LEU107      0.0019
     75  CD1       -0.3570   -3.3300  -31.8480 C.3   107  LEU107      0.0001
     76  CD2        1.1240   -1.6440  -30.7290 C.3   107  LEU107      0.0001
     77  N          6.7080   -4.1550  -27.3990 N.3   110  TYR110     -0.1227
     78  CA         6.6850   -2.8920  -26.6360 C.3   110  TYR110      0.1736
     79  C          6.0860   -3.0770  -25.2300 C.2   110  TYR110      0.2595
     80  O          6.6430   -2.6140  -24.2460 O.2   110  TYR110     -0.2718
     81  CB         5.9280   -1.7910  -27.3910 C.3   110  TYR110      0.0548
     82  CG         6.6540   -1.2360  -28.6030 C.ar  110  TYR110     -0.0200
     83  CD1        8.0300   -1.1120  -28.6190 C.ar  110  TYR110     -0.0009
     84  CD2        5.9580   -0.8500  -29.7350 C.ar  110  TYR110     -0.0009
     85  CE1        8.6940   -0.5890  -29.7240 C.ar  110  TYR110      0.0417
     86  CE2        6.6090   -0.3480  -30.8400 C.ar  110  TYR110      0.0417
     87  CZ         7.9710   -0.2210  -30.8260 C.ar  110  TYR110      0.1957
     88  OH         8.5950    0.2930  -31.9390 O.3   110  TYR110     -0.2866
     89  N          4.9550   -3.7630  -25.1580 N.am  111  PHE111     -0.1976
     90  CA         4.3540   -4.0780  -23.8580 C.3   111  PHE111      0.1639
     91  C          5.3360   -4.8790  -22.9880 C.2   111  PHE111      0.2290
     92  O          5.4880   -4.6140  -21.7970 O.2   111  PHE111     -0.2864
     93  CB         3.0740   -4.9020  -24.0170 C.3   111  PHE111      0.0560
     94  CG         1.8190   -4.1030  -24.3320 C.ar  111  PHE111     -0.0200
     95  CD1        1.2280   -3.2700  -23.4000 C.ar  111  PHE111     -0.0042
     96  CD2        1.1790   -4.2810  -25.5410 C.ar  111  PHE111     -0.0042
     97  CE1        0.0540   -2.6010  -23.7020 C.ar  111  PHE111     -0.0003
     98  CE2        0.0280   -3.5990  -25.8450 C.ar  111  PHE111     -0.0003
     99  CZ        -0.5480   -2.7580  -24.9020 C.ar  111  PHE111     -0.0000
    100  N          8.2020   -2.7450  -21.7190 N.3   114  TYR114     -0.1241
    101  CA         7.7140   -1.8520  -20.6570 C.3   114  TYR114      0.1605
    102  C          7.5500   -2.5920  -19.3250 C.2   114  TYR114      0.2264
    103  O          7.9530   -2.0750  -18.2640 O.2   114  TYR114     -0.2867
    104  CB         6.3810   -1.2180  -21.0360 C.3   114  TYR114      0.0534
    105  CG         5.9290   -0.1420  -20.0510 C.ar  114  TYR114     -0.0201
    106  CD1        6.3260    1.1700  -20.2150 C.ar  114  TYR114     -0.0009
    107  CD2        5.1240   -0.4500  -18.9520 C.ar  114  TYR114     -0.0009
    108  CE1        5.9330    2.1460  -19.3540 C.ar  114  TYR114      0.0417
    109  CE2        4.7530    0.5280  -18.0630 C.ar  114  TYR114      0.0417
    110  CZ         5.1460    1.8370  -18.2800 C.ar  114  TYR114      0.1957
    111  OH         4.7660    2.8340  -17.3700 O.3   114  TYR114     -0.2866
    112  N          7.3850   -1.2500  -13.1310 N.3   119  LEU119     -0.1231
    113  CA         6.2630   -1.7350  -12.3140 C.3   119  LEU119      0.1693
    114  C          6.6670   -2.8870  -11.3940 C.2   119  LEU119      0.2591
    115  O          7.6120   -3.6240  -11.6480 O.2   119  LEU119     -0.2718
    116  CB         5.0400   -2.1120  -13.1810 C.3   119  LEU119      0.0284
    117  CG         4.6280   -1.1000  -14.2460 C.3   119  LEU119      0.0019
    118  CD1        3.3200   -1.5040  -14.9010 C.3   119  LEU119      0.0001
    119  CD2        4.5390    0.2940  -13.6860 C.3   119  LEU119      0.0001
    120  N          5.9130   -3.0370  -10.3120 N.am  120  LEU120     -0.1980
    121  CA         6.1280   -4.0970   -9.3440 C.3   120  LEU120      0.1596
    122  C          5.3840   -5.3470   -9.7590 C.2   120  LEU120      0.2287
    123  O          4.2770   -5.3040  -10.2550 O.2   120  LEU120     -0.2864
    124  CB         5.6480   -3.6500   -7.9560 C.3   120  LEU120      0.0297
    125  CG         6.3520   -2.4760   -7.2670 C.3   120  LEU120      0.0022
    126  CD1        5.7110   -2.1780   -5.8840 C.3   120  LEU120      0.0001
    127  CD2        7.8550   -2.7670   -7.1390 C.3   120  LEU120      0.0001
    128  N        -12.9000   -2.6470  -16.7060 N.3   138  ARG138     -0.1245
    129  CA       -12.5760   -1.8120  -15.5610 C.3   138  ARG138      0.1563
    130  C        -13.8110   -1.0530  -15.0980 C.2   138  ARG138      0.2260
    131  O        -14.6750   -0.6880  -15.9160 O.2   138  ARG138     -0.2867
    132  CB       -11.4590   -0.8210  -15.9060 C.3   138  ARG138      0.0307
    133  CG       -11.7880    0.1020  -17.0730 C.3   138  ARG138      0.0489
    134  CD       -11.0900    1.4540  -16.9500 C.3   138  ARG138      0.2205
    135  NE        -9.6410    1.3500  -17.1320 N.pl3 138  ARG138     -0.0865
    136  CZ        -8.7180    1.7970  -16.2820 C.cat 138  ARG138      0.5346
    137  NH1       -9.0550    2.4050  -15.1520 N.pl3 138  ARG138      0.1354
    138  NH2       -7.4330    1.6420  -16.5730 N.pl3 138  ARG138      0.1354
    139  N        -14.7300    2.1950  -12.0120 N.3   140  ARG140     -0.1245
    140  CA       -13.9880    3.2800  -11.3780 C.3   140  ARG140      0.1563
    141  C        -13.0700    2.7680  -10.2800 C.2   140  ARG140      0.2260
    142  O        -12.0630    3.3830   -9.9820 O.2   140  ARG140     -0.2867
    143  CB       -14.9370    4.3310  -10.7720 C.3   140  ARG140      0.0307
    144  CG       -15.5600    5.2800  -11.7600 C.3   140  ARG140      0.0489
    145  CD       -15.9650    6.5710  -11.0280 C.3   140  ARG140      0.2205
    146  NE       -16.6350    7.5200  -11.9020 N.pl3 140  ARG140     -0.0865
    147  CZ       -16.7430    8.8100  -11.6350 C.cat 140  ARG140      0.5346
    148  NH1      -16.2550    9.3050  -10.5010 N.pl3 140  ARG140      0.1354
    149  NH2      -17.3640    9.6040  -12.4950 N.pl3 140  ARG140      0.1354
    150  N         -8.2930   -6.3690   -9.1330 N.3   155  ASN155     -0.1225
    151  CA        -7.3500   -5.4960   -8.4500 C.3   155  ASN155      0.1785
    152  C         -8.0610   -4.1650   -8.1500 C.2   155  ASN155      0.2597
    153  O         -8.5780   -3.5170   -9.0650 O.2   155  ASN155     -0.2718
    154  CB        -6.1210   -5.1390   -9.2920 C.3   155  ASN155      0.1169
    155  CG        -5.1970   -6.2990   -9.5690 C.2   155  ASN155      0.2627
    156  OD1       -5.4830   -7.4660   -9.3150 O.2   155  ASN155     -0.2716
    157  ND2       -4.0320   -5.9430  -10.1120 N.am  155  ASN155     -0.0877
    158  N         -8.0890   -3.7800   -6.8790 N.am  156  PHE156     -0.1962
    159  CA        -8.7070   -2.5390   -6.4480 C.3   156  PHE156      0.1771
    160  C         -7.6880   -1.4070   -6.5030 C.2   156  PHE156      0.2619
    161  O         -6.5830   -1.4900   -5.9390 O.2   156  PHE156     -0.2715
    162  CB        -9.2700   -2.7070   -5.0260 C.3   156  PHE156      0.0574
    163  CG       -10.3980   -3.7090   -4.9460 C.ar  156  PHE156     -0.0200
    164  CD1      -11.7040   -3.3310   -5.2330 C.ar  156  PHE156     -0.0042
    165  CD2      -10.1500   -5.0140   -4.6040 C.ar  156  PHE156     -0.0042
    166  CE1      -12.7290   -4.2420   -5.1840 C.ar  156  PHE156     -0.0003
    167  CE2      -11.1760   -5.9280   -4.5580 C.ar  156  PHE156     -0.0003
    168  CZ       -12.4650   -5.5340   -4.8470 C.ar  156  PHE156     -0.0000
    169  N         -8.0740   -0.3250   -7.1500 N.am  157  PHE157     -0.1974
    170  CA        -7.1200    0.7320   -7.4480 C.3   157  PHE157      0.1639
    171  C         -6.6970    1.5440   -6.2330 C.2   157  PHE157      0.2290
    172  O         -5.5350    1.9100   -6.0910 O.2   157  PHE157     -0.2864
    173  CB        -7.6950    1.7060   -8.4790 C.3   157  PHE157      0.0560
    174  CG        -8.0790    1.0950   -9.8090 C.ar  157  PHE157     -0.0200
    175  CD1       -7.2550    0.1940  -10.4810 C.ar  157  PHE157     -0.0042
    176  CD2       -9.2510    1.4750  -10.4270 C.ar  157  PHE157     -0.0042
    177  CE1       -7.6050   -0.3030  -11.7140 C.ar  157  PHE157     -0.0003
    178  CE2       -9.6090    0.9730  -11.6600 C.ar  157  PHE157     -0.0003
    179  CZ        -8.7990    0.0840  -12.3120 C.ar  157  PHE157     -0.0000
    180  N         -5.0040   -0.9110   -3.4060 N.3   160  HIS160     -0.1241
    181  CA        -4.0560   -1.8710   -3.9800 C.3   160  HIS160      0.1621
    182  C         -4.2650   -3.3070   -3.5440 C.2   160  HIS160      0.2264
    183  O         -3.4040   -4.1500   -3.7460 O.2   160  HIS160     -0.2867
    184  CB        -2.5910   -1.4280   -3.7370 C.3   160  HIS160      0.0745
    185  CG        -2.3690    0.0060   -4.0850 C.ar  160  HIS160      0.0817
    186  ND1       -2.2860    0.4300   -5.3870 N.ar  160  HIS160     -0.2268
    187  CD2       -2.3510    1.1250   -3.3180 C.ar  160  HIS160      0.1154
    188  CE1       -2.1600    1.7470   -5.4070 C.ar  160  HIS160      0.1986
    189  NE2       -2.2160    2.1950   -4.1650 N.ar  160  HIS160     -0.2212
    190  N         -6.1170   -7.0430   -3.7610 N.3   162  LYS162     -0.1245
    191  CA        -6.4040   -7.8680   -4.9230 C.3   162  LYS162      0.1561
    192  C         -7.0190   -9.1850   -4.5110 C.2   162  LYS162      0.2260
    193  O         -6.6770   -9.7240   -3.4490 O.2   162  LYS162     -0.2867
    194  CB        -5.1260   -8.1550   -5.7270 C.3   162  LYS162      0.0271
    195  CG        -4.3240   -6.8740   -6.0400 C.3   162  LYS162      0.0035
    196  CD        -3.0360   -7.1750   -6.7940 C.3   162  LYS162      0.0206
    197  CE        -2.2250   -5.9210   -7.0870 C.3   162  LYS162      0.1093
    198  NZ        -1.8460   -5.1640   -5.8840 N.3   162  LYS162     -0.1314
    199  N          0.7870   -6.1840    1.0080 N.3   179  ARG179     -0.1245
    200  CA         1.2690   -7.2000    0.0640 C.3   179  ARG179      0.1563
    201  C          1.4010   -8.5870    0.6860 C.2   179  ARG179      0.2260
    202  O          2.0700   -9.4530    0.1480 O.2   179  ARG179     -0.2867
    203  CB         2.5910   -6.7870   -0.5860 C.3   179  ARG179      0.0307
    204  CG         2.4910   -5.4600   -1.3040 C.3   179  ARG179      0.0489
    205  CD         3.5250   -5.3040   -2.3950 C.3   179  ARG179      0.2205
    206  NE         3.4060   -3.9790   -2.9860 N.pl3 179  ARG179     -0.0865
    207  CZ         4.1940   -2.9450   -2.7140 C.cat 179  ARG179      0.5346
    208  NH1        5.1990   -3.0760   -1.8690 N.pl3 179  ARG179      0.1354
    209  NH2        3.9840   -1.7730   -3.2990 N.pl3 179  ARG179      0.1354
@<TRIPOS>BOND
     1    68    67    1
     2    88    87    1
     3    65    67   ar
     4    65    63   ar
     5    75    74    1
     6    67    66   ar
     7    74    76    1
     8    74    73    1
     9    69    70    1
    10    63    62   ar
    11    86    87   ar
    12    86    84   ar
    13    87    85   ar
    14    73    70    1
    15    70    71    1
    16    66    64   ar
    17    62    64   ar
    18    62    61    1
    19    84    82   ar
    20    85    83   ar
    21    58    61    1
    22    58    57    1
    23    58    59    1
    24    60    59    2
    25    71    72    2
    26    83    82   ar
    27    82    81    1
    28    77    78    1
    29    81    78    1
    30    56    55    1
    31    78    79    1
    32    55    54   ar
    33    55    53   ar
    34    54    52   ar
    35    53    51   ar
    36    48    47    2
    37    98    96   ar
    38    98    99   ar
    39    52    50   ar
    40    51    50   ar
    41    96    94   ar
    42    50    49    1
    43    79    89   am
    44    79    80    2
    45    89    90    1
    46    99    97   ar
    47    47    46    1
    48    49    46    1
    49    94    93    1
    50    94    95   ar
    51    93    90    1
    52    90    91    1
    53    46    45    1
    54    97    95   ar
    55    91    92    2
    56    45    39   am
    57   100   101    1
    58    39    40    2
    59    39    38    1
    60    43    42   ar
    61   104   101    1
    62   104   105    1
    63    33    32    2
    64   101   102    1
    65    35    34    1
    66    38    37    1
    67    38    41    1
    68   106   105   ar
    69   106   108   ar
    70    42    41    1
    71    42    44   ar
    72   105   107   ar
    73    34    36    1
    74    34    31    1
    75    32    37   am
    76    32    31    1
    77   108   110   ar
    78   102   103    2
    79    31    30    1
    80   107   109   ar
    81    30    18   am
    82   110   109   ar
    83   110   111    1
    84   135   134    1
    85   135   136    2
    86    18    17    1
    87    18    19    2
    88   133   134    1
    89   133   132    1
    90   128   129    1
    91    17    20    1
    92    17    16    1
    93   138   136    1
    94    20    21    1
    95   136   137    1
    96    26    28   ar
    97    26    23   ar
    98    10     9    2
    99   131   130    2
   100   132   129    1
   101    28    29   ar
   102   129   130    1
   103    16     9   am
   104     9     8    1
   105    23    21   ar
   106    23    25   ar
   107    21    22   ar
   108   118   117    1
   109    11     8    1
   110    11    12    1
   111    29    27   ar
   112    13    12    1
   113    13    14    1
   114   117   119    1
   115   117   116    1
   116     8     7    1
   117    15    14    1
   118    22    24   ar
   119    25    27   ar
   120    25    24   ar
   121     7     3   am
   122   116   113    1
   123   112   113    1
   124     1     2    1
   125   149   147    1
   126     3     2    1
   127     3     4    2
   128   113   114    1
   129   179   177   ar
   130   179   178   ar
   131     5     2    1
   132     5     6    1
   133   139   140    1
   134   146   147    2
   135   146   145    1
   136   144   145    1
   137   144   143    1
   138   177   175   ar
   139   178   176   ar
   140   115   114    2
   141   147   148    1
   142   114   120   am
   143   140   143    1
   144   140   141    1
   145   175   174   ar
   146   176   174   ar
   147   120   121    1
   148   141   142    2
   149   123   122    2
   150   157   155   am
   151   174   173    1
   152   122   121    1
   153   155   156    2
   154   155   154    1
   155   121   124    1
   156   154   151    1
   157   150   151    1
   158   153   152    2
   159   173   170    1
   160   151   152    1
   161   152   158   am
   162   124   125    1
   163   170   169    1
   164   170   171    1
   165   125   127    1
   166   125   126    1
   167   169   160   am
   168   197   196    1
   169   197   198    1
   170   158   159    1
   171   196   195    1
   172   160   159    1
   173   160   161    2
   174   159   162    1
   175   171   172    2
   176   195   194    1
   177   194   191    1
   178   188   186   ar
   179   188   189   ar
   180   186   185   ar
   181   164   166   ar
   182   164   163   ar
   183   166   168   ar
   184   162   163    1
   185   163   165   ar
   186   191   192    1
   187   191   190    1
   188   168   167   ar
   189   165   167   ar
   190   192   193    2
   191   189   187   ar
   192   185   184    1
   193   185   187   ar
   194   181   184    1
   195   181   182    1
   196   181   180    1
   197   183   182    2
   198   209   207    1
   199   206   207    2
   200   206   205    1
   201   207   208    1
   202   205   204    1
   203   204   203    1
   204   203   200    1
   205   200   201    1
   206   200   199    1
   207   202   201    2
