@<TRIPOS>MOLECULE
tmp/4x9xA00.pdb
 193 174 0 0 0
SMALL
GASTEIGER

@<TRIPOS>ATOM
      1  N        -32.6310   -7.8210   21.1970 N.3    28  LEU28      -0.1245
      2  CA       -33.7630   -6.9260   21.3750 C.3    28  LEU28       0.1561
      3  C        -34.8730   -7.2580   20.3960 C.2    28  LEU28       0.2260
      4  O        -34.6920   -8.0980   19.5160 O.2    28  LEU28      -0.2867
      5  CB       -33.3100   -5.4670   21.2110 C.3    28  LEU28       0.0270
      6  CG       -32.5930   -4.8970   22.4480 C.3    28  LEU28       0.0019
      7  CD1      -31.1720   -5.4390   22.6550 C.3    28  LEU28       0.0001
      8  CD2      -32.5840   -3.3830   22.4010 C.3    28  LEU28       0.0001
      9  N        -39.2880   -0.2960   19.4340 N.3    60  THR60      -0.1203
     10  CA       -38.3210   -1.2940   19.8610 C.3    60  THR60       0.1994
     11  C        -38.4650   -1.5770   21.3490 C.2    60  THR60       0.2619
     12  O        -39.0630   -0.7900   22.0970 O.2    60  THR60      -0.2717
     13  CB       -36.8800   -0.8260   19.5610 C.3    60  THR60       0.1784
     14  OG1      -36.6120    0.3830   20.2650 O.3    60  THR60      -0.2211
     15  CG2      -36.6860   -0.5440   18.0810 C.3    60  THR60       0.0376
     16  N        -37.9250   -2.7150   21.7730 N.am   61  SER61      -0.1937
     17  CA       -37.9240   -3.0900   23.1850 C.3    61  SER61       0.2055
     18  C        -36.6200   -3.7430   23.5940 C.2    61  SER61       0.2642
     19  O        -36.0390   -4.5270   22.8400 O.2    61  SER61      -0.2714
     20  CB       -39.0270   -4.1000   23.4980 C.3    61  SER61       0.2130
     21  OG       -40.3040   -3.6360   23.1360 O.3    61  SER61      -0.2179
     22  N        -36.1840   -3.4210   24.8090 N.am   62  GLN62      -0.1976
     23  CA       -35.0810   -4.1110   25.4600 C.3    62  GLN62       0.1601
     24  C        -35.4650   -5.5760   25.6780 C.2    62  GLN62       0.2287
     25  O        -36.6490   -5.9280   25.6790 O.2    62  GLN62      -0.2864
     26  CB       -34.8020   -3.4620   26.8160 C.3    62  GLN62       0.0394
     27  CG       -35.9970   -3.5790   27.7670 C.3    62  GLN62       0.0908
     28  CD       -35.7660   -3.0370   29.1630 C.2    62  GLN62       0.2608
     29  OE1      -34.6470   -2.7900   29.5820 O.2    62  GLN62      -0.2717
     30  NE2      -36.8530   -2.8820   29.9060 N.am   62  GLN62      -0.0878
     31  N        -25.2640   -1.7870   24.8980 N.3    87  LEU87      -0.1245
     32  CA       -25.4320   -0.4470   24.3830 C.3    87  LEU87       0.1561
     33  C        -25.7180    0.5360   25.5180 C.2    87  LEU87       0.2260
     34  O        -26.1900    0.1720   26.5900 O.2    87  LEU87      -0.2867
     35  CB       -26.5210   -0.3570   23.3040 C.3    87  LEU87       0.0270
     36  CG       -27.9970   -0.3640   23.7240 C.3    87  LEU87       0.0019
     37  CD1      -28.8570    0.1300   22.5760 C.3    87  LEU87       0.0001
     38  CD2      -28.4750   -1.7280   24.1800 C.3    87  LEU87       0.0001
     39  N        -29.4440    5.2030   25.7700 N.3    91  LEU91      -0.1231
     40  CA       -30.2460    4.8360   24.6000 C.3    91  LEU91       0.1693
     41  C        -31.2500    3.7170   24.8860 C.2    91  LEU91       0.2593
     42  O        -32.1890    3.5390   24.1270 O.2    91  LEU91      -0.2718
     43  CB       -29.3360    4.3980   23.4490 C.3    91  LEU91       0.0284
     44  CG       -28.3860    5.4690   22.9250 C.3    91  LEU91       0.0019
     45  CD1      -27.4290    4.8630   21.9090 C.3    91  LEU91       0.0001
     46  CD2      -29.1450    6.6350   22.3130 C.3    91  LEU91       0.0001
     47  N        -31.0290    2.9500   25.9510 N.am   92  SER92      -0.1938
     48  CA       -31.8610    1.7800   26.1950 C.3    92  SER92       0.2055
     49  C        -31.7990    1.3640   27.6550 C.2    92  SER92       0.2643
     50  O        -30.7780    1.5540   28.3080 O.2    92  SER92      -0.2714
     51  CB       -31.3700    0.6240   25.3060 C.3    92  SER92       0.2130
     52  OG       -32.0840   -0.5850   25.5040 O.3    92  SER92      -0.2179
     53  N        -32.8680    0.7340   28.1410 N.am   93  GLY93      -0.1954
     54  CA       -32.8790    0.0860   29.4380 C.3    93  GLY93       0.1869
     55  C        -32.1970   -1.2710   29.4770 C.2    93  GLY93       0.2309
     56  O        -32.1760   -1.9050   30.5360 O.2    93  GLY93      -0.2863
     57  N        -23.0740    2.3330   20.8000 N.3   117  ILE117     -0.1231
     58  CA       -23.9610    1.4950   20.0130 C.3   117  ILE117      0.1692
     59  C        -23.2750    1.2250   18.6860 C.2   117  ILE117      0.2592
     60  O        -22.3300    1.9080   18.3270 O.2   117  ILE117     -0.2718
     61  CB       -25.3510    2.1660   19.8310 C.3   117  ILE117      0.0266
     62  CG1      -26.4320    1.1440   19.4430 C.3   117  ILE117      0.0019
     63  CG2      -25.2760    3.3260   18.8720 C.3   117  ILE117      0.0020
     64  CD1      -27.8320    1.7250   19.4290 C.3   117  ILE117      0.0001
     65  N        -23.7910    0.2500   17.9310 N.am  118  SER118     -0.1952
     66  CA       -23.2220   -0.1130   16.6410 C.3   118  SER118      0.1924
     67  C        -21.7180   -0.3620   16.8380 C.2   118  SER118      0.2314
     68  O        -21.3170   -0.8860   17.8830 O.2   118  SER118     -0.2863
     69  CB       -23.5440    0.9730   15.6020 C.3   118  SER118      0.2116
     70  OG       -23.0790    0.6420   14.3040 O.3   118  SER118     -0.2180
     71  N        -18.1390    8.6580   17.6240 N.3   154  LEU154     -0.1245
     72  CA       -19.2830    8.1840   16.8610 C.3   154  LEU154      0.1561
     73  C        -20.1180    9.3450   16.3670 C.2   154  LEU154      0.2260
     74  O        -20.4440   10.2370   17.1400 O.2   154  LEU154     -0.2867
     75  CB       -20.1350    7.2530   17.7350 C.3   154  LEU154      0.0270
     76  CG       -21.3460    6.5820   17.0600 C.3   154  LEU154      0.0019
     77  CD1      -21.6570    5.2430   17.6820 C.3   154  LEU154      0.0001
     78  CD2      -22.6040    7.4570   17.0730 C.3   154  LEU154      0.0001
     79  N        -23.7300    9.9820   13.8460 N.3   156  VAL156     -0.1245
     80  CA       -24.8490    9.4050   13.1030 C.3   156  VAL156      0.1561
     81  C        -25.4460   10.4800   12.2250 C.2   156  VAL156      0.2260
     82  O        -25.6830   11.5840   12.6820 O.2   156  VAL156     -0.2867
     83  CB       -25.9270    8.8090   14.0510 C.3   156  VAL156      0.0252
     84  CG1      -26.4400    9.8130   15.0650 C.3   156  VAL156      0.0019
     85  CG2      -27.0590    8.1990   13.2560 C.3   156  VAL156      0.0019
     86  N        -28.8420   11.1580   10.5200 N.3   158  ILE158     -0.1245
     87  CA       -30.1980   10.6820   10.6680 C.3   158  ILE158      0.1561
     88  C        -30.8810   10.6320    9.3160 C.2   158  ILE158      0.2260
     89  O        -30.7300   11.5450    8.5200 O.2   158  ILE158     -0.2867
     90  CB       -30.9530   11.5850   11.6830 C.3   158  ILE158      0.0252
     91  CG1      -30.2880   11.4880   13.0600 C.3   158  ILE158      0.0019
     92  CG2      -32.4410   11.2780   11.7560 C.3   158  ILE158      0.0019
     93  CD1      -30.3730   10.1280   13.7090 C.3   158  ILE158      0.0001
     94  N        -36.7720    9.4260   14.5150 N.3   164  LEU164     -0.1245
     95  CA       -35.9270    9.6310   15.6840 C.3   164  LEU164      0.1561
     96  C        -36.7220   10.2910   16.8120 C.2   164  LEU164      0.2260
     97  O        -36.6180    9.8890   17.9680 O.2   164  LEU164     -0.2867
     98  CB       -34.7150   10.4640   15.3140 C.3   164  LEU164      0.0270
     99  CG       -33.6960   10.6260   16.4380 C.3   164  LEU164      0.0019
    100  CD1      -32.9970    9.3080   16.7390 C.3   164  LEU164      0.0001
    101  CD2      -32.7080   11.7350   16.0720 C.3   164  LEU164      0.0001
    102  N        -35.1610    8.9650   21.7510 N.3   169  ARG169     -0.1245
    103  CA       -33.7780    8.9450   22.2540 C.3   169  ARG169      0.1563
    104  C        -33.0260   10.2680   22.2000 C.2   169  ARG169      0.2260
    105  O        -31.8910   10.3480   22.6710 O.2   169  ARG169     -0.2867
    106  CB       -32.9570    7.8830   21.5310 C.3   169  ARG169      0.0307
    107  CG       -33.0360    6.5370   22.1900 C.3   169  ARG169      0.0489
    108  CD       -34.4300    5.9630   22.2590 C.3   169  ARG169      0.2205
    109  NE       -34.4030    4.7250   23.0070 N.pl3 169  ARG169     -0.0865
    110  CZ       -35.4780    4.0930   23.4620 C.cat 169  ARG169      0.5346
    111  NH1      -36.6880    4.5470   23.1770 N.pl3 169  ARG169      0.1354
    112  NH2      -35.3300    2.9890   24.1870 N.pl3 169  ARG169      0.1354
    113  N        -22.7130   10.8500   20.3220 N.3   179  LEU179     -0.1245
    114  CA       -22.9990   10.4380   21.6880 C.3   179  LEU179      0.1561
    115  C        -22.0280   11.1620   22.6200 C.2   179  LEU179      0.2260
    116  O        -20.8240   11.1660   22.3780 O.2   179  LEU179     -0.2867
    117  CB       -22.8770    8.9250   21.8630 C.3   179  LEU179      0.0270
    118  CG       -23.8470    8.0810   21.0480 C.3   179  LEU179      0.0019
    119  CD1      -23.5580    6.6070   21.2190 C.3   179  LEU179      0.0001
    120  CD2      -25.2890    8.3620   21.4270 C.3   179  LEU179      0.0001
    121  N        -27.4750   10.8600   23.1670 N.3   184  LEU184     -0.1245
    122  CA       -27.5590   11.3580   21.8040 C.3   184  LEU184      0.1561
    123  C        -27.8060   12.8670   21.7850 C.2   184  LEU184      0.2260
    124  O        -28.7980   13.3570   22.3350 O.2   184  LEU184     -0.2867
    125  CB       -28.6640   10.6160   21.0570 C.3   184  LEU184      0.0270
    126  CG       -28.9020   11.0630   19.6100 C.3   184  LEU184      0.0019
    127  CD1      -27.6640   10.8390   18.7710 C.3   184  LEU184      0.0001
    128  CD2      -30.1030   10.3510   19.0200 C.3   184  LEU184      0.0001
    129  N        -21.8120    1.7680    9.6580 N.3   219  ALA219     -0.1245
    130  CA       -23.0430    1.0020    9.6020 C.3   219  ALA219      0.1562
    131  C        -24.0700    1.8260    8.8330 C.2   219  ALA219      0.2260
    132  O        -24.0530    3.0480    8.9130 O.2   219  ALA219     -0.2867
    133  CB       -23.5390    0.6580   11.0160 C.3   219  ALA219      0.0290
    134  N        -28.2560    2.2050    7.1200 N.3   221  ALA221     -0.1245
    135  CA       -29.6520    1.7930    7.0400 C.3   221  ALA221      0.1562
    136  C        -30.0390    1.6590    5.5610 C.2   221  ALA221      0.2260
    137  O        -30.7840    2.4610    4.9980 O.2   221  ALA221     -0.2867
    138  CB       -30.5370    2.7540    7.7840 C.3   221  ALA221      0.0290
    139  N        -26.9440   -1.8740    9.2480 N.3   248  THR248     -0.1218
    140  CA       -27.2920   -1.7810   10.6600 C.3   248  THR248      0.1862
    141  C        -28.5080   -2.6260   10.9860 C.2   248  THR248      0.2287
    142  O        -29.3620   -2.9000   10.1430 O.2   248  THR248     -0.2866
    143  CB       -27.4960   -0.3160   11.0890 C.3   248  THR248      0.1770
    144  OG1      -27.3950   -0.1860   12.5090 O.3   248  THR248     -0.2211
    145  CG2      -28.8310    0.2150   10.6860 C.3   248  THR248      0.0375
    146  N        -33.2780   -2.7650   14.8610 N.3   251  VAL251     -0.1231
    147  CA       -33.5260   -2.0290   16.0970 C.3   251  VAL251      0.1692
    148  C        -32.9470   -0.6100   16.0310 C.2   251  VAL251      0.2591
    149  O        -33.5310    0.3250   16.5680 O.2   251  VAL251     -0.2718
    150  CB       -33.0300   -2.8320   17.3150 C.3   251  VAL251      0.0266
    151  CG1      -32.8770   -1.9550   18.5670 C.3   251  VAL251      0.0020
    152  CG2      -33.9980   -3.9960   17.5830 C.3   251  VAL251      0.0020
    153  N        -31.7900   -0.4580   15.3920 N.am  252  ILE252     -0.1980
    154  CA       -31.2000    0.8630   15.2160 C.3   252  ILE252      0.1595
    155  C        -31.9170    1.6580   14.1280 C.2   252  ILE252      0.2287
    156  O        -32.2720    2.8110   14.3450 O.2   252  ILE252     -0.2864
    157  CB       -29.7000    0.7410   14.9200 C.3   252  ILE252      0.0276
    158  CG1      -28.9750    0.2060   16.1590 C.3   252  ILE252      0.0022
    159  CG2      -29.1100    2.0930   14.4790 C.3   252  ILE252      0.0022
    160  CD1      -27.5040   -0.0880   15.9690 C.3   252  ILE252      0.0001
    161  N        -35.0790    3.6850   14.7330 N.3   255  HIS255     -0.1226
    162  CA       -34.9040    5.0200   15.3100 C.3   255  HIS255      0.1752
    163  C        -34.2720    6.0260   14.3560 C.2   255  HIS255      0.2596
    164  O        -34.6720    7.1830   14.3390 O.2   255  HIS255     -0.2718
    165  CB       -34.0770    4.9340   16.6060 C.3   255  HIS255      0.0759
    166  CG       -34.8110    4.2600   17.7100 C.ar  255  HIS255      0.0818
    167  ND1      -35.5480    4.9550   18.6360 N.ar  255  HIS255     -0.2268
    168  CD2      -34.9750    2.9450   17.9810 C.ar  255  HIS255      0.1154
    169  CE1      -36.1250    4.0880   19.4520 C.ar  255  HIS255      0.1986
    170  NE2      -35.8150    2.8660   19.0600 N.ar  255  HIS255     -0.2212
    171  N        -33.2700    5.6110   13.5900 N.am  256  THR256     -0.1953
    172  CA       -32.5850    6.5650   12.7130 C.3   256  THR256      0.1897
    173  C        -33.3690    6.8890   11.4570 C.2   256  THR256      0.2313
    174  O        -33.1310    7.9200   10.8260 O.2   256  THR256     -0.2863
    175  CB       -31.2110    6.0450   12.2700 C.3   256  THR256      0.1794
    176  OG1      -31.3690    4.8440   11.5140 O.3   256  THR256     -0.2208
    177  CG2      -30.3020    5.7550   13.4500 C.3   256  THR256      0.0378
    178  N        -29.9720    6.4250    6.9140 N.3   260  ALA260     -0.1245
    179  CA       -29.0020    6.8400    7.9180 C.3   260  ALA260      0.1562
    180  C        -27.6700    6.1280    7.7690 C.2   260  ALA260      0.2260
    181  O        -27.6030    5.0060    7.2460 O.2   260  ALA260     -0.2867
    182  CB       -29.5620    6.5610    9.3190 C.3   260  ALA260      0.0290
    183  N        -23.9920    5.4910   10.3240 N.3   262  GLY262     -0.1225
    184  CA       -23.2600    5.6350   11.5750 C.3   262  GLY262      0.1811
    185  C        -21.7810    5.4420   11.3190 C.2   262  GLY262      0.2280
    186  O        -21.3830    4.4140   10.8030 O.2   262  GLY262     -0.2866
    187  N        -17.9490    5.4060   12.9450 N.3   264  VAL264     -0.1245
    188  CA       -17.2360    5.1970   14.1860 C.3   264  VAL264      0.1561
    189  C        -15.7400    5.1350   13.8930 C.2   264  VAL264      0.2260
    190  O        -15.2920    4.3420   13.0640 O.2   264  VAL264     -0.2867
    191  CB       -17.6880    3.9060   14.8590 C.3   264  VAL264      0.0252
    192  CG1      -16.9420    3.6760   16.1610 C.3   264  VAL264      0.0019
    193  CG2      -19.1900    3.9400   15.1330 C.3   264  VAL264      0.0019
@<TRIPOS>BOND
     1   137   136    2
     2   136   135    1
     3   178   179    1
     4   135   134    1
     5   135   138    1
     6   181   180    2
     7   180   179    1
     8   179   182    1
     9    89    88    2
    10   131   132    2
    11   131   130    1
    12   139   140    1
    13    88    87    1
    14   130   129    1
    15   130   133    1
    16   142   141    2
    17   183   184    1
    18    86    87    1
    19   140   141    1
    20   140   143    1
    21    87    90    1
    22   145   143    1
    23   186   185    2
    24   174   173    2
    25   143   144    1
    26   185   184    1
    27   173   172    1
    28   176   175    1
    29    90    92    1
    30    90    91    1
    31    81    82    2
    32    81    80    1
    33   175   172    1
    34   175   177    1
    35   172   171    1
    36   187   188    1
    37    91    93    1
    38   190   189    2
    39    80    79    1
    40    80    83    1
    41    85    83    1
    42   171   163   am
    43   189   188    1
    44    83    84    1
    45   155   156    2
    46   155   154    1
    47   188   191    1
    48    70    69    1
    49   164   163    2
    50   163   162    1
    51   159   157    1
    52    94    95    1
    53   161   162    1
    54   191   193    1
    55   191   192    1
    56   146   147    1
    57   157   154    1
    58   157   158    1
    59   154   153    1
    60   162   165    1
    61    98    95    1
    62    98    99    1
    63   153   148   am
    64    69    66    1
    65    95    96    1
    66   160   158    1
    67   148   147    1
    68   148   149    2
    69   101    99    1
    70   147   150    1
    71    73    72    1
    72    73    74    2
    73    99   100    1
    74   165   166    1
    75    66    67    1
    76    66    65    1
    77    96    97    2
    78    67    68    2
    79    72    71    1
    80    72    75    1
    81    76    78    1
    82    76    77    1
    83    76    75    1
    84   150   152    1
    85   150   151    1
    86   166   168   ar
    87   166   167   ar
    88    65    59   am
    89   168   170   ar
    90    15    13    1
    91    60    59    2
    92   167   169   ar
    93    59    58    1
    94   127   126    1
    95    63    61    1
    96   128   126    1
    97   170   169   ar
    98    64    62    1
    99     9    10    1
   100    62    61    1
   101     4     3    2
   102    13    10    1
   103    13    14    1
   104   126   125    1
   105    61    58    1
   106    10    11    1
   107    58    57    1
   108   113   114    1
   109     3     2    1
   110   118   119    1
   111   118   120    1
   112   118   117    1
   113   125   122    1
   114     1     2    1
   115     5     2    1
   116     5     6    1
   117    11    16   am
   118    11    12    2
   119   106   107    1
   120   106   103    1
   121   114   117    1
   122   114   115    1
   123   102   103    1
   124    16    17    1
   125   123   122    1
   126   123   124    2
   127   122   121    1
   128    45    44    1
   129   107   108    1
   130   104   103    1
   131   104   105    2
   132   108   109    1
   133    46    44    1
   134   116   115    2
   135     8     6    1
   136     6     7    1
   137    37    36    1
   138    19    18    2
   139    44    43    1
   140   109   110    2
   141    21    20    1
   142   111   110    1
   143    17    20    1
   144    17    18    1
   145    35    36    1
   146    35    32    1
   147    43    40    1
   148   110   112    1
   149    18    22   am
   150    36    38    1
   151    42    41    2
   152    32    31    1
   153    32    33    1
   154    40    41    1
   155    40    39    1
   156    22    23    1
   157    41    47   am
   158    51    52    1
   159    51    48    1
   160    23    24    1
   161    23    26    1
   162    33    34    2
   163    24    25    2
   164    47    48    1
   165    48    49    1
   166    26    27    1
   167    49    53   am
   168    49    50    2
   169    27    28    1
   170    53    54    1
   171    28    29    2
   172    28    30   am
   173    54    55    1
   174    55    56    2
