@<TRIPOS>MOLECULE
tmp/4xa2B00.pdb
 235 229 0 0 0
SMALL
GASTEIGER

@<TRIPOS>ATOM
      1  N         26.1050   18.3440  128.6950 N.3    12  ASN12      -0.1240
      2  CA        26.9970   18.4740  129.8550 C.3    12  ASN12       0.1653
      3  C         28.1440   17.4610  129.8510 C.2    12  ASN12       0.2266
      4  O         28.0230   16.3780  129.2930 O.2    12  ASN12      -0.2867
      5  CB        26.2140   18.3360  131.1710 C.3    12  ASN12       0.1155
      6  CG        26.9580   18.9430  132.3560 C.2    12  ASN12       0.2627
      7  OD1       27.6170   19.9790  132.2310 O.2    12  ASN12      -0.2716
      8  ND2       26.8680   18.2910  133.5050 N.am   12  ASN12      -0.0877
      9  N         29.2190   15.5370  132.1570 N.3    14  ASP14      -0.1225
     10  CA        29.0330   14.2810  132.8730 C.3    14  ASP14       0.1805
     11  C         28.1550   13.3060  132.0870 C.2    14  ASP14       0.2597
     12  O         27.8950   12.1950  132.5460 O.2    14  ASP14      -0.2718
     13  CB        28.4450   14.5150  134.2740 C.3    14  ASP14       0.1424
     14  CG        27.1210   15.2800  134.2450 C.2    14  ASP14       0.3668
     15  OD1       26.5820   15.5250  133.1390 O.co2  14  ASP14      -0.2456
     16  OD2       26.6100   15.6240  135.3380 O.co2  14  ASP14      -0.2456
     17  N         27.7030   13.7130  130.9050 N.am   15  LYS15      -0.1979
     18  CA        26.8460   12.8520  130.0900 C.3    15  LYS15       0.1596
     19  C         27.6570   12.1480  128.9900 C.2    15  LYS15       0.2287
     20  O         28.8250   12.4480  128.7910 O.2    15  LYS15      -0.2864
     21  CB        25.7050   13.6680  129.4870 C.3    15  LYS15       0.0298
     22  CG        24.8540   14.4020  130.5240 C.3    15  LYS15       0.0038
     23  CD        24.3670   13.4370  131.5940 C.3    15  LYS15       0.0206
     24  CE        23.2270   14.0240  132.4390 C.3    15  LYS15       0.1093
     25  NZ        23.6770   15.0800  133.3900 N.3    15  LYS15      -0.1314
     26  N         29.7970   25.1400  132.1950 N.3    42  LYS42      -0.1245
     27  CA        28.6700   26.0170  132.5260 C.3    42  LYS42       0.1561
     28  C         27.8170   26.3680  131.3040 C.2    42  LYS42       0.2260
     29  O         27.4310   27.5160  131.1210 O.2    42  LYS42      -0.2867
     30  CB        29.1840   27.3010  133.1930 C.3    42  LYS42       0.0271
     31  CG        29.8510   27.0620  134.5480 C.3    42  LYS42       0.0035
     32  CD        28.8880   26.3360  135.4940 C.3    42  LYS42       0.0206
     33  CE        29.6380   25.4720  136.5260 C.3    42  LYS42       0.1093
     34  NZ        29.4660   25.9600  137.9300 N.3    42  LYS42      -0.1314
     35  N         24.8320   25.7600  130.5730 N.3    44  GLU44      -0.1231
     36  CA        23.4650   26.1600  130.8780 C.3    44  GLU44       0.1699
     37  C         23.4110   27.6170  131.3300 C.2    44  GLU44       0.2592
     38  O         22.3340   28.2340  131.3450 O.2    44  GLU44      -0.2718
     39  CB        22.8510   25.2440  131.9550 C.3    44  GLU44       0.0402
     40  CG        23.2590   25.5620  133.4060 C.3    44  GLU44       0.1161
     41  CD        24.7340   25.2650  133.7210 C.2    44  GLU44       0.3649
     42  OE1       25.4640   24.7580  132.8350 O.co2  44  GLU44      -0.2457
     43  OE2       25.1690   25.5520  134.8620 O.co2  44  GLU44      -0.2457
     44  N         24.5600   28.1460  131.7460 N.am   45  GLU45      -0.1979
     45  CA        24.6900   29.5680  132.0520 C.3    45  GLU45       0.1602
     46  C         25.1290   30.3190  130.7950 C.2    45  GLU45       0.2287
     47  O         24.7400   31.4640  130.5760 O.2    45  GLU45      -0.2864
     48  CB        25.6860   29.8040  133.2000 C.3    45  GLU45       0.0415
     49  CG        25.3460   29.0520  134.4960 C.3    45  GLU45       0.1163
     50  CD        26.2890   29.3930  135.6730 C.2    45  GLU45       0.3649
     51  OE1       27.4250   29.8390  135.4260 O.co2  45  GLU45      -0.2457
     52  OE2       25.8950   29.1960  136.8470 O.co2  45  GLU45      -0.2457
     53  N         19.8350   19.6410  128.4840 N.3    62  TRP62      -0.1227
     54  CA        19.9330   19.8620  129.9350 C.3    62  TRP62       0.1737
     55  C         18.7020   19.2480  130.6040 C.2    62  TRP62       0.2595
     56  O         17.7210   18.9140  129.9270 O.2    62  TRP62      -0.2718
     57  CB        20.0370   21.3630  130.2690 C.3    62  TRP62       0.0564
     58  CG        20.5020   21.6480  131.6640 C.ar   62  TRP62       0.0003
     59  CD1       19.7270   21.9790  132.7350 C.ar   62  TRP62       0.0946
     60  CD2       21.8570   21.6440  132.1340 C.ar   62  TRP62       0.0152
     61  NE1       20.5110   22.1650  133.8530 N.ar   62  TRP62      -0.2442
     62  CE2       21.8230   21.9630  133.5110 C.ar   62  TRP62       0.0810
     63  CE3       23.0960   21.3910  131.5270 C.ar   62  TRP62       0.0012
     64  CZ2       22.9790   22.0400  134.2890 C.ar   62  TRP62       0.0191
     65  CZ3       24.2410   21.4740  132.2930 C.ar   62  TRP62       0.0001
     66  CH2       24.1770   21.7920  133.6670 C.ar   62  TRP62       0.0015
     67  N         18.7390   19.1020  131.9230 N.am   63  ALA63      -0.1980
     68  CA        17.5370   18.7060  132.6440 C.3    63  ALA63       0.1597
     69  C         16.4770   19.7820  132.4120 C.2    63  ALA63       0.2287
     70  O         16.8090   20.9590  132.2540 O.2    63  ALA63      -0.2864
     71  CB        17.8240   18.5220  134.1170 C.3    63  ALA63       0.0319
     72  N         14.5750   21.5150  134.0590 N.3    65  ASP65      -0.1225
     73  CA        14.3190   22.6230  134.9710 C.3    65  ASP65       0.1805
     74  C         14.8410   23.9550  134.4430 C.2    65  ASP65       0.2597
     75  O         14.3040   25.0010  134.7730 O.2    65  ASP65      -0.2718
     76  CB        14.9030   22.3350  136.3660 C.3    65  ASP65       0.1424
     77  CG        16.4100   22.1940  136.3610 C.2    65  ASP65       0.3668
     78  OD1       16.9060   21.2750  135.6780 O.co2  65  ASP65      -0.2456
     79  OD2       17.1000   22.9830  137.0600 O.co2  65  ASP65      -0.2456
     80  N         15.8680   23.9250  133.6020 N.am   66  ARG66      -0.1979
     81  CA        16.3760   25.1550  133.0010 C.3    66  ARG66       0.1597
     82  C         15.5130   25.6960  131.8520 C.2    66  ARG66       0.2287
     83  O         15.6300   26.8710  131.4850 O.2    66  ARG66      -0.2864
     84  CB        17.7970   24.9250  132.4830 C.3    66  ARG66       0.0334
     85  CG        18.8830   25.3330  133.4510 C.3    66  ARG66       0.0492
     86  CD        18.8480   26.8100  133.6230 C.3    66  ARG66       0.2205
     87  NE        19.9780   27.3140  134.3920 N.pl3  66  ARG66      -0.0865
     88  CZ        20.3920   28.5680  134.3250 C.cat  66  ARG66       0.5346
     89  NH1       19.7590   29.4270  133.5130 N.pl3  66  ARG66       0.1354
     90  NH2       21.4370   28.9600  135.0490 N.pl3  66  ARG66       0.1354
     91  N         16.0540   11.1480  135.3130 N.3   111  GLU111     -0.1245
     92  CA        17.1820   10.9780  136.2230 C.3   111  GLU111      0.1567
     93  C         16.8030   11.1210  137.6960 C.2   111  GLU111      0.2260
     94  O         15.9250   11.9060  138.0470 O.2   111  GLU111     -0.2867
     95  CB        18.2660   11.9980  135.8980 C.3   111  GLU111      0.0388
     96  CG        18.6080   12.1270  134.4230 C.3   111  GLU111      0.1160
     97  CD        19.6150   13.2430  134.1680 C.2   111  GLU111      0.3649
     98  OE1       19.8470   14.0740  135.0880 O.co2 111  GLU111     -0.2457
     99  OE2       20.1730   13.2880  133.0500 O.co2 111  GLU111     -0.2457
    100  N         29.2590   14.9350  146.3830 N.3   150  ASN150     -0.1240
    101  CA        29.4630   16.3370  146.0240 C.3   150  ASN150      0.1653
    102  C         28.6830   17.2910  146.9250 C.2   150  ASN150      0.2266
    103  O         27.4460   17.2930  146.9450 O.2   150  ASN150     -0.2867
    104  CB        29.0750   16.5700  144.5610 C.3   150  ASN150      0.1155
    105  CG        29.4350   17.9480  144.0800 C.2   150  ASN150      0.2627
    106  OD1       30.0840   18.7160  144.7890 O.2   150  ASN150     -0.2716
    107  ND2       29.0250   18.2730  142.8500 N.am  150  ASN150     -0.0877
    108  N         27.3400   21.2540  144.9870 N.3   153  GLU153     -0.1231
    109  CA        26.1330   21.4560  144.1980 C.3   153  GLU153      0.1684
    110  C         24.9400   21.0530  145.0350 C.2   153  GLU153      0.2434
    111  O         24.8970   19.9380  145.5480 O.2   153  GLU153     -0.2733
    112  CB        26.1840   20.6500  142.8970 C.3   153  GLU153      0.0402
    113  CG        27.0690   21.2480  141.7900 C.3   153  GLU153      0.1161
    114  CD        26.5610   22.5860  141.2550 C.2   153  GLU153      0.3649
    115  OE1       25.3220   22.8170  141.2770 O.co2 153  GLU153     -0.2457
    116  OE2       27.4020   23.3980  140.8070 O.co2 153  GLU153     -0.2457
    117  N         23.9650   21.9620  145.1840 N.am  154  PRO154     -0.2718
    118  CA        22.8250   21.7210  146.0800 C.3   154  PRO154      0.1535
    119  C         21.9100   20.6130  145.5940 C.2   154  PRO154      0.2599
    120  O         21.0420   20.1870  146.3380 O.2   154  PRO154     -0.2715
    121  CB        22.0940   23.0740  146.0950 C.3   154  PRO154      0.0310
    122  CG        22.5250   23.7460  144.7990 C.3   154  PRO154      0.0237
    123  CD        23.9340   23.3040  144.5780 C.3   154  PRO154      0.0939
    124  N         22.0970   20.1480  144.3640 N.am  155  TYR155     -0.1960
    125  CA        21.3060   19.0320  143.8500 C.3   155  TYR155      0.1771
    126  C         21.5400   17.7450  144.6520 C.2   155  TYR155      0.2619
    127  O         20.6620   16.8920  144.7450 O.2   155  TYR155     -0.2715
    128  CB        21.6480   18.8090  142.3800 C.3   155  TYR155      0.0574
    129  CG        21.0170   17.6160  141.6850 C.ar  155  TYR155     -0.0198
    130  CD1       19.6740   17.6110  141.3260 C.ar  155  TYR155     -0.0009
    131  CD2       21.7920   16.5140  141.3410 C.ar  155  TYR155     -0.0009
    132  CE1       19.1120   16.5220  140.6570 C.ar  155  TYR155      0.0417
    133  CE2       21.2500   15.4330  140.6780 C.ar  155  TYR155      0.0417
    134  CZ        19.9160   15.4400  140.3350 C.ar  155  TYR155      0.1957
    135  OH        19.4040   14.3510  139.6710 O.3   155  TYR155     -0.2866
    136  N         22.7310   17.6140  145.2220 N.am  156  PHE156     -0.1974
    137  CA        23.1110   16.3880  145.9080 C.3   156  PHE156      0.1639
    138  C         22.6600   16.3590  147.3740 C.2   156  PHE156      0.2290
    139  O         22.5060   15.2910  147.9650 O.2   156  PHE156     -0.2864
    140  CB        24.6220   16.2050  145.8210 C.3   156  PHE156      0.0560
    141  CG        25.1130   15.9070  144.4360 C.ar  156  PHE156     -0.0200
    142  CD1       25.3430   16.9330  143.5310 C.ar  156  PHE156     -0.0042
    143  CD2       25.3540   14.5990  144.0430 C.ar  156  PHE156     -0.0042
    144  CE1       25.7990   16.6560  142.2430 C.ar  156  PHE156     -0.0003
    145  CE2       25.8060   14.3130  142.7790 C.ar  156  PHE156     -0.0003
    146  CZ        26.0300   15.3380  141.8650 C.ar  156  PHE156     -0.0000
    147  N         32.4760   16.9970  143.3060 N.3   210  TYR210     -0.1241
    148  CA        32.1340   15.8370  142.4740 C.3   210  TYR210      0.1605
    149  C         33.3200   14.9030  142.2110 C.2   210  TYR210      0.2264
    150  O         33.2010   13.6840  142.3050 O.2   210  TYR210     -0.2867
    151  CB        31.5650   16.2820  141.1180 C.3   210  TYR210      0.0534
    152  CG        30.9210   15.1430  140.3440 C.ar  210  TYR210     -0.0201
    153  CD1       31.6650   14.3380  139.4880 C.ar  210  TYR210     -0.0009
    154  CD2       29.5650   14.8650  140.4820 C.ar  210  TYR210     -0.0009
    155  CE1       31.0730   13.2880  138.7940 C.ar  210  TYR210      0.0417
    156  CE2       28.9670   13.8250  139.7900 C.ar  210  TYR210      0.0417
    157  CZ        29.7260   13.0390  138.9490 C.ar  210  TYR210      0.1957
    158  OH        29.1170   12.0050  138.2620 O.3   210  TYR210     -0.2866
    159  N         24.5270    8.4280  135.2770 N.3   230  TRP230     -0.1241
    160  CA        25.6840    8.7610  134.4470 C.3   230  TRP230      0.1605
    161  C         26.9980    8.3240  135.0780 C.2   230  TRP230      0.2264
    162  O         28.0300    8.2720  134.4030 O.2   230  TRP230     -0.2867
    163  CB        25.7290   10.2740  134.1810 C.3   230  TRP230      0.0550
    164  CG        25.7190   11.0900  135.4500 C.ar  230  TRP230      0.0003
    165  CD1       26.8060   11.4510  136.2060 C.ar  230  TRP230      0.0946
    166  CD2       24.5680   11.6290  136.1170 C.ar  230  TRP230      0.0152
    167  NE1       26.3930   12.1800  137.3080 N.ar  230  TRP230     -0.2442
    168  CE2       25.0280   12.3010  137.2730 C.ar  230  TRP230      0.0810
    169  CE3       23.1900   11.5990  135.8560 C.ar  230  TRP230      0.0012
    170  CZ2       24.1620   12.9410  138.1530 C.ar  230  TRP230      0.0191
    171  CZ3       22.3380   12.2310  136.7290 C.ar  230  TRP230      0.0001
    172  CH2       22.8240   12.8900  137.8680 C.ar  230  TRP230      0.0015
    173  N         15.2540   14.9490  137.5250 N.3   260  GLY260     -0.1225
    174  CA        15.4850   15.6330  136.2590 C.3   260  GLY260      0.1811
    175  C         15.0970   14.8390  135.0140 C.2   260  GLY260      0.2280
    176  O         15.2710   13.6150  134.9430 O.2   260  GLY260     -0.2866
    177  N         16.2970   14.8240  131.3540 N.3   262  LEU262     -0.1245
    178  CA        17.2310   15.2560  130.3330 C.3   262  LEU262      0.1561
    179  C         16.4720   15.5370  129.0500 C.2   262  LEU262      0.2260
    180  O         15.8070   14.6560  128.5270 O.2   262  LEU262     -0.2867
    181  CB        18.2970   14.1920  130.1080 C.3   262  LEU262      0.0270
    182  CG        19.4050   14.5830  129.1400 C.3   262  LEU262      0.0019
    183  CD1       20.2050   15.7370  129.6940 C.3   262  LEU262      0.0001
    184  CD2       20.3020   13.3810  128.8750 C.3   262  LEU262      0.0001
    185  N         11.1320   18.1220  138.8990 N.3   330  MET330     -0.1245
    186  CA        11.4540   19.5320  139.0420 C.3   330  MET330      0.1570
    187  C         10.4540   20.3940  138.2720 C.2   330  MET330      0.2261
    188  O         10.0420   20.0500  137.1680 O.2   330  MET330     -0.2867
    189  CB        12.8780   19.8330  138.5570 C.3   330  MET330      0.0387
    190  CG        13.9600   19.2350  139.4230 C.3   330  MET330      0.0595
    191  SD        15.6200   19.8290  139.0350 S.3   330  MET330     -0.1393
    192  CE        16.0760   18.7230  137.7110 C.3   330  MET330      0.0692
    193  N         16.0880   28.8460  138.5530 N.3   337  SER337     -0.1217
    194  CA        17.5150   29.1420  138.6410 C.3   337  SER337      0.1889
    195  C         17.7940   30.0700  139.8440 C.2   337  SER337      0.2288
    196  O         18.7980   29.9130  140.5280 O.2   337  SER337     -0.2866
    197  CB        18.0390   29.7180  137.3170 C.3   337  SER337      0.2089
    198  OG        17.4200   30.9370  136.9880 O.3   337  SER337     -0.2183
    199  N         17.8970   27.5680  142.8030 N.3   340  TRP340     -0.1227
    200  CA        19.1150   26.7680  142.8830 C.3   340  TRP340      0.1737
    201  C         20.3250   27.5620  143.3740 C.2   340  TRP340      0.2595
    202  O         21.1180   27.0670  144.1840 O.2   340  TRP340     -0.2718
    203  CB        19.4430   26.1400  141.5250 C.3   340  TRP340      0.0564
    204  CG        18.6850   24.8960  141.2050 C.ar  340  TRP340      0.0003
    205  CD1       17.9520   24.6530  140.0730 C.ar  340  TRP340      0.0946
    206  CD2       18.5780   23.7140  142.0110 C.ar  340  TRP340      0.0152
    207  NE1       17.4160   23.3880  140.1190 N.ar  340  TRP340     -0.2442
    208  CE2       17.7770   22.7940  141.2990 C.ar  340  TRP340      0.0810
    209  CE3       19.0870   23.3400  143.2630 C.ar  340  TRP340      0.0012
    210  CZ2       17.4670   21.5210  141.8000 C.ar  340  TRP340      0.0191
    211  CZ3       18.7840   22.0780  143.7490 C.ar  340  TRP340      0.0001
    212  CH2       17.9760   21.1870  143.0220 C.ar  340  TRP340      0.0015
    213  N         20.4730   28.7810  142.8680 N.am  341  TYR341     -0.1976
    214  CA        21.5680   29.6490  143.2830 C.3   341  TYR341      0.1639
    215  C         21.4840   30.0120  144.7640 C.2   341  TYR341      0.2290
    216  O         22.5070   30.1420  145.4410 O.2   341  TYR341     -0.2864
    217  CB        21.5870   30.9270  142.4490 C.3   341  TYR341      0.0560
    218  CG        22.1620   30.7700  141.0650 C.ar  341  TYR341     -0.0198
    219  CD1       23.4850   30.3920  140.8870 C.ar  341  TYR341     -0.0009
    220  CD2       21.3970   31.0390  139.9350 C.ar  341  TYR341     -0.0009
    221  CE1       24.0320   30.2610  139.6170 C.ar  341  TYR341      0.0417
    222  CE2       21.9280   30.9060  138.6640 C.ar  341  TYR341      0.0417
    223  CZ        23.2450   30.5250  138.5130 C.ar  341  TYR341      0.1957
    224  OH        23.7750   30.3970  137.2530 O.3   341  TYR341     -0.2866
    225  N         22.3460   26.7950  146.7470 N.3   344  ARG344     -0.1245
    226  CA        23.7960   26.5510  146.6430 C.3   344  ARG344      0.1563
    227  C         24.5710   27.3650  147.6740 C.2   344  ARG344      0.2260
    228  O         25.4640   26.8370  148.3450 O.2   344  ARG344     -0.2867
    229  CB        24.3360   26.8800  145.2410 C.3   344  ARG344      0.0307
    230  CG        25.8450   26.6580  145.0860 C.3   344  ARG344      0.0489
    231  CD        26.3860   27.0540  143.6890 C.3   344  ARG344      0.2205
    232  NE        26.4530   28.5010  143.4920 N.pl3 344  ARG344     -0.0865
    233  CZ        26.8080   29.0990  142.3520 C.cat 344  ARG344      0.5346
    234  NH1       27.1390   28.3820  141.2890 N.pl3 344  ARG344      0.1354
    235  NH2       26.8400   30.4240  142.2770 N.pl3 344  ARG344      0.1354
@<TRIPOS>BOND
     1    53    54    1
     2   180   179    2
     3     1     2    1
     4    20    19    2
     5   184   182    1
     6    19    18    1
     7   179   178    1
     8   182   183    1
     9   182   181    1
    10     4     3    2
    11    21    18    1
    12    21    22    1
    13     3     2    1
    14     2     5    1
    15    56    55    2
    16    54    57    1
    17    54    55    1
    18    18    17    1
    19   181   178    1
    20    57    58    1
    21   178   177    1
    22    22    23    1
    23    35    36    1
    24    47    46    2
    25    55    67   am
    26    46    45    1
    27    36    37    1
    28    36    39    1
    29    17    11   am
    30    29    28    2
    31     5     6    1
    32    28    27    1
    33    37    38    2
    34    37    44   am
    35    83    82    2
    36    63    60   ar
    37    63    65   ar
    38    23    24    1
    39    58    60   ar
    40    58    59   ar
    41    44    45    1
    42    82    81    1
    43    67    68    1
    44    39    40    1
    45    45    48    1
    46    11    12    2
    47    11    10    1
    48    60    62   ar
    49     9    10    1
    50    26    27    1
    51     7     6    2
    52    70    69    2
    53    65    66   ar
    54     6     8   am
    55    69    68    1
    56    24    25    1
    57    84    81    1
    58    84    85    1
    59    27    30    1
    60    68    71    1
    61    59    61   ar
    62    42    41   ar
    63    10    13    1
    64    81    80    1
    65    99    97   ar
    66    15    14   ar
    67    30    31    1
    68    48    49    1
    69    40    41    1
    70    85    86    1
    71    62    61   ar
    72    62    64   ar
    73    89    88    1
    74    80    74   am
    75    86    87    1
    76    66    64   ar
    77    41    43   ar
    78    72    73    1
    79    97    96    1
    80    97    98   ar
    81   163   160    1
    82   163   164    1
    83    14    13    1
    84    14    16   ar
    85    88    87    2
    86    88    90    1
    87   162   161    2
    88    96    95    1
    89    74    75    2
    90    74    73    1
    91   160   161    1
    92   160   159    1
    93    49    50    1
    94    31    32    1
    95   176   175    2
    96    73    76    1
    97   175   174    1
    98    91    92    1
    99    51    50   ar
   100   164   166   ar
   101   164   165   ar
   102    32    33    1
   103    50    52   ar
   104    78    77   ar
   105   169   166   ar
   106   169   171   ar
   107    95    92    1
   108   166   168   ar
   109   165   167   ar
   110    92    93    1
   111   174   173    1
   112    77    76    1
   113    77    79   ar
   114    33    34    1
   115   171   172   ar
   116   198   197    1
   117   188   187    2
   118   224   223    1
   119   168   167   ar
   120   168   170   ar
   121   197   194    1
   122    93    94    2
   123   192   191    1
   124   172   170   ar
   125   158   157    1
   126   187   186    1
   127   223   222   ar
   128   223   221   ar
   129   193   194    1
   130   189   186    1
   131   189   190    1
   132   194   195    1
   133   222   220   ar
   134   155   157   ar
   135   155   153   ar
   136   185   186    1
   137   157   156   ar
   138   191   190    1
   139   153   152   ar
   140   221   219   ar
   141   135   134    1
   142   156   154   ar
   143   195   196    2
   144   220   218   ar
   145   205   207   ar
   146   205   204   ar
   147   207   208   ar
   148   134   132   ar
   149   134   133   ar
   150   152   154   ar
   151   152   151    1
   152   132   130   ar
   153   133   131   ar
   154   116   114   ar
   155   219   218   ar
   156   218   217    1
   157   151   148    1
   158   204   203    1
   159   204   206   ar
   160   114   115   ar
   161   114   113    1
   162   234   233    1
   163   208   210   ar
   164   208   206   ar
   165   130   129   ar
   166   131   129   ar
   167   203   200    1
   168   129   128    1
   169   113   112    1
   170   210   212   ar
   171   146   144   ar
   172   146   145   ar
   173   206   209   ar
   174   149   150    2
   175   149   148    1
   176   144   142   ar
   177   235   233    1
   178   233   232    2
   179   128   125    1
   180   217   214    1
   181   148   147    1
   182   145   143   ar
   183   199   200    1
   184   107   105   am
   185   213   214    1
   186   213   201   am
   187   200   201    1
   188   112   109    1
   189   212   211   ar
   190   209   211   ar
   191   214   215    1
   192   201   202    2
   193   232   231    1
   194   142   141   ar
   195   231   230    1
   196   125   124    1
   197   125   126    1
   198   143   141   ar
   199   105   104    1
   200   105   106    2
   201   109   108    1
   202   109   110    1
   203   124   119   am
   204   141   140    1
   205   104   101    1
   206   123   122    1
   207   123   117    1
   208   126   127    2
   209   126   136   am
   210   215   216    2
   211   122   121    1
   212   110   117   am
   213   110   111    2
   214   230   229    1
   215   117   118    1
   216   136   137    1
   217   229   226    1
   218   119   118    1
   219   119   120    2
   220   140   137    1
   221   137   138    1
   222   101   100    1
   223   101   102    1
   224   118   121    1
   225   226   225    1
   226   226   227    1
   227   102   103    2
   228   138   139    2
   229   227   228    2
