@<TRIPOS>MOLECULE
tmp/4xa2A00.pdb
 227 222 0 0 0
SMALL
GASTEIGER

@<TRIPOS>ATOM
      1  N         32.5030   46.2100   80.3340 N.3    13  ASN13      -0.1240
      2  CA        31.5400   46.1300   81.4300 C.3    13  ASN13       0.1653
      3  C         30.3060   47.0250   81.2640 C.2    13  ASN13       0.2266
      4  O         30.3380   48.0740   80.6170 O.2    13  ASN13      -0.2867
      5  CB        32.2360   46.4450   82.7530 C.3    13  ASN13       0.1155
      6  CG        31.4840   45.8840   83.9400 C.2    13  ASN13       0.2627
      7  OD1       30.9500   44.7740   83.8770 O.2    13  ASN13      -0.2716
      8  ND2       31.4330   46.6440   85.0260 N.am   13  ASN13      -0.0877
      9  N         28.9410   49.0400   83.0980 N.3    15  ASP15      -0.1225
     10  CA        28.9440   50.3650   83.7250 C.3    15  ASP15       0.1805
     11  C         29.8000   51.3810   82.9620 C.2    15  ASP15       0.2597
     12  O         29.9210   52.5420   83.3890 O.2    15  ASP15      -0.2718
     13  CB        29.4020   50.2670   85.1890 C.3    15  ASP15       0.1424
     14  CG        30.8000   49.6620   85.3510 C.2    15  ASP15       0.3668
     15  OD1       31.4650   49.3760   84.3430 O.co2  15  ASP15      -0.2456
     16  OD2       31.2360   49.4580   86.5170 O.co2  15  ASP15      -0.2456
     17  N         30.3790   50.9540   81.8340 N.am   16  LYS16      -0.1979
     18  CA        31.1910   51.8390   80.9840 C.3    16  LYS16       0.1596
     19  C         30.4050   52.3380   79.7620 C.2    16  LYS16       0.2287
     20  O         29.2440   51.9810   79.5770 O.2    16  LYS16      -0.2864
     21  CB        32.4640   51.1190   80.5430 C.3    16  LYS16       0.0298
     22  CG        33.2620   50.4950   81.7170 C.3    16  LYS16       0.0038
     23  CD        33.8990   51.5920   82.5800 C.3    16  LYS16       0.0206
     24  CE        34.0540   51.1670   84.0390 C.3    16  LYS16       0.1093
     25  NZ        35.0090   50.0810   84.1910 N.3    16  LYS16      -0.1314
     26  N         29.3430   39.5890   84.4430 N.3    43  LYS43      -0.1245
     27  CA        30.4870   38.8510   84.9590 C.3    43  LYS43       0.1561
     28  C         31.4260   38.4620   83.8310 C.2    43  LYS43       0.2260
     29  O         31.9000   37.3300   83.7550 O.2    43  LYS43      -0.2867
     30  CB        30.0210   37.6040   85.7110 C.3    43  LYS43       0.0271
     31  CG        29.0030   37.8800   86.8130 C.3    43  LYS43       0.0035
     32  CD        29.6470   38.6710   87.9450 C.3    43  LYS43       0.0206
     33  CE        28.8400   38.5440   89.2330 C.3    43  LYS43       0.1093
     34  NZ        29.5330   39.1760   90.3980 N.3    43  LYS43      -0.1314
     35  N         34.3530   39.2630   83.2770 N.3    45  GLU45      -0.1231
     36  CA        35.7530   39.0780   83.6460 C.3    45  GLU45       0.1699
     37  C         35.9740   37.6610   84.1620 C.2    45  GLU45       0.2592
     38  O         37.1020   37.1620   84.1730 O.2    45  GLU45      -0.2718
     39  CB        36.1860   40.1140   84.6960 C.3    45  GLU45       0.0402
     40  CG        35.7840   39.8000   86.1330 C.3    45  GLU45       0.1161
     41  CD        34.2890   39.9900   86.4050 C.2    45  GLU45       0.3649
     42  OE1       33.5320   40.3720   85.4750 O.co2  45  GLU45      -0.2457
     43  OE2       33.8660   39.7640   87.5670 O.co2  45  GLU45      -0.2457
     44  N         34.8830   37.0360   84.5940 N.am   46  GLU46      -0.1979
     45  CA        34.8810   35.6630   85.0830 C.3    46  GLU46       0.1602
     46  C         34.5960   34.7200   83.9190 C.2    46  GLU46       0.2287
     47  O         35.0940   33.5960   83.8650 O.2    46  GLU46      -0.2864
     48  CB        33.8310   35.4860   86.1900 C.3    46  GLU46       0.0415
     49  CG        34.1570   36.2300   87.4980 C.3    46  GLU46       0.1163
     50  CD        33.0510   36.1440   88.5760 C.2    46  GLU46       0.3649
     51  OE1       33.3600   36.4340   89.7640 O.co2  46  GLU46      -0.2457
     52  OE2       31.8850   35.8030   88.2540 O.co2  46  GLU46      -0.2457
     53  N         38.8770   45.4490   80.7760 N.3    63  TRP63      -0.1227
     54  CA        38.7020   45.4050   82.2260 C.3    63  TRP63       0.1737
     55  C         39.8150   46.2200   82.8780 C.2    63  TRP63       0.2595
     56  O         40.7680   46.6030   82.2070 O.2    63  TRP63      -0.2718
     57  CB        38.7100   43.9510   82.7310 C.3    63  TRP63       0.0564
     58  CG        38.2010   43.7910   84.1280 C.ar   63  TRP63       0.0003
     59  CD1       38.9500   43.6900   85.2720 C.ar   63  TRP63       0.0946
     60  CD2       36.8310   43.7120   84.5320 C.ar   63  TRP63       0.0152
     61  NE1       38.1290   43.5630   86.3690 N.ar   63  TRP63      -0.2442
     62  CE2       36.8210   43.5730   85.9430 C.ar   63  TRP63       0.0810
     63  CE3       35.6140   43.7570   83.8460 C.ar   63  TRP63       0.0012
     64  CZ2       35.6310   43.4740   86.6760 C.ar   63  TRP63       0.0191
     65  CZ3       34.4280   43.6580   84.5740 C.ar   63  TRP63       0.0001
     66  CH2       34.4490   43.5190   85.9770 C.ar   63  TRP63       0.0015
     67  N         39.7030   46.4950   84.1750 N.am   64  ALA64      -0.1980
     68  CA        40.8150   47.1070   84.8720 C.3    64  ALA64       0.1597
     69  C         41.9990   46.1450   84.8570 C.2    64  ALA64       0.2287
     70  O         41.8210   44.9270   84.8100 O.2    64  ALA64      -0.2864
     71  CB        40.4290   47.4820   86.2890 C.3    64  ALA64       0.0319
     72  N         44.1260   44.9270   86.8310 N.3    66  ASP66      -0.1225
     73  CA        44.4850   44.0110   87.9090 C.3    66  ASP66       0.1805
     74  C         44.1270   42.5720   87.5380 C.2    66  ASP66       0.2597
     75  O         44.6750   41.6370   88.1060 O.2    66  ASP66      -0.2718
     76  CB        43.8040   44.4020   89.2260 C.3    66  ASP66       0.1424
     77  CG        42.2980   44.3480   89.1390 C.2    66  ASP66       0.3668
     78  OD1       41.7290   45.1460   88.3650 O.co2  66  ASP66      -0.2456
     79  OD2       41.6780   43.5110   89.8390 O.co2  66  ASP66      -0.2456
     80  N         43.2290   42.3760   86.5780 N.am   67  ARG67      -0.1979
     81  CA        42.9000   41.0050   86.2110 C.3    67  ARG67       0.1597
     82  C         43.7720   40.4220   85.1160 C.2    67  ARG67       0.2287
     83  O         43.6300   39.2470   84.7920 O.2    67  ARG67      -0.2864
     84  CB        41.4440   40.8690   85.7640 C.3    67  ARG67       0.0334
     85  CG        40.6720   40.0410   86.7900 C.3    67  ARG67       0.0492
     86  CD        39.5120   39.3660   86.1770 C.3    67  ARG67       0.2205
     87  NE        38.6950   38.6300   87.1340 N.pl3  67  ARG67      -0.0865
     88  CZ        38.9090   37.3970   87.5730 C.cat  67  ARG67       0.5346
     89  NH1       39.9460   36.6750   87.1470 N.pl3  67  ARG67       0.1354
     90  NH2       38.0370   36.8890   88.4360 N.pl3  67  ARG67       0.1354
     91  N         41.3570   55.1570   86.6700 N.3   112  GLU112     -0.1245
     92  CA        40.1810   55.3210   87.5240 C.3   112  GLU112      0.1567
     93  C         40.5090   55.3520   89.0310 C.2   112  GLU112      0.2260
     94  O         41.2840   54.5410   89.5310 O.2   112  GLU112     -0.2867
     95  CB        39.1870   54.1840   87.2540 C.3   112  GLU112      0.0388
     96  CG        38.9900   53.8290   85.7690 C.3   112  GLU112      0.1160
     97  CD        38.3300   52.4710   85.5700 C.2   112  GLU112      0.3649
     98  OE1       38.2980   51.6680   86.5360 O.co2 112  GLU112     -0.2457
     99  OE2       37.8200   52.2120   84.4550 O.co2 112  GLU112     -0.2457
    100  N         28.1240   51.0450   97.3810 N.3   151  ASN151     -0.1240
    101  CA        28.0610   49.6030   97.1650 C.3   151  ASN151      0.1653
    102  C         28.8620   48.7980   98.1960 C.2   151  ASN151      0.2266
    103  O         30.0830   48.7620   98.1490 O.2   151  ASN151     -0.2867
    104  CB        28.5660   49.2770   95.7580 C.3   151  ASN151      0.1155
    105  CG        28.3430   47.8280   95.3730 C.2   151  ASN151      0.2627
    106  OD1       27.7320   47.0440   96.1170 O.2   151  ASN151     -0.2716
    107  ND2       28.8360   47.4630   94.1990 N.am  151  ASN151     -0.0877
    108  N         30.7470   44.9500   96.7670 N.3   154  GLU154     -0.1231
    109  CA        32.0500   44.7940   96.1130 C.3   154  GLU154      0.1684
    110  C         33.1280   45.4500   96.9700 C.2   154  GLU154      0.2434
    111  O         32.9980   46.6160   97.3190 O.2   154  GLU154     -0.2733
    112  CB        32.0480   45.4060   94.7070 C.3   154  GLU154      0.0402
    113  CG        31.2910   44.5970   93.6680 C.3   154  GLU154      0.1161
    114  CD        31.9650   43.2630   93.3570 C.2   154  GLU154      0.3649
    115  OE1       33.2110   43.1320   93.5060 O.co2 154  GLU154     -0.2457
    116  OE2       31.2300   42.3290   92.9880 O.co2 154  GLU154     -0.2457
    117  N         34.2080   44.7060   97.2920 N.am  155  PRO155     -0.2718
    118  CA        35.2430   45.1830   98.2290 C.3   155  PRO155      0.1535
    119  C         36.0050   46.4000   97.7100 C.2   155  PRO155      0.2599
    120  O         36.6320   47.1290   98.4870 O.2   155  PRO155     -0.2715
    121  CB        36.1650   43.9690   98.3740 C.3   155  PRO155      0.0310
    122  CG        35.9940   43.2190   97.0790 C.3   155  PRO155      0.0237
    123  CD        34.5300   43.3740   96.7520 C.3   155  PRO155      0.0939
    124  N         35.9310   46.6280   96.3980 N.am  156  TYR156     -0.1960
    125  CA        36.5600   47.7860   95.7600 C.3   156  TYR156      0.1771
    126  C         36.1670   49.0990   96.4060 C.2   156  TYR156      0.2619
    127  O         36.9830   50.0260   96.5080 O.2   156  TYR156     -0.2715
    128  CB        36.1660   47.8160   94.2820 C.3   156  TYR156      0.0574
    129  CG        36.6990   48.9610   93.4620 C.ar  156  TYR156     -0.0198
    130  CD1       38.0400   49.0320   93.1170 C.ar  156  TYR156     -0.0009
    131  CD2       35.8410   49.9390   92.9710 C.ar  156  TYR156     -0.0009
    132  CE1       38.5160   50.0540   92.3270 C.ar  156  TYR156      0.0417
    133  CE2       36.3130   50.9690   92.1780 C.ar  156  TYR156      0.0417
    134  CZ        37.6500   51.0210   91.8620 C.ar  156  TYR156      0.1957
    135  OH        38.1270   52.0550   91.0790 O.3   156  TYR156     -0.2866
    136  N         34.9100   49.1830   96.8290 N.am  157  PHE157     -0.1974
    137  CA        34.3610   50.4140   97.4060 C.3   157  PHE157      0.1639
    138  C         34.6910   50.5750   98.9010 C.2   157  PHE157      0.2290
    139  O         34.7230   51.7050   99.4030 O.2   157  PHE157     -0.2864
    140  CB        32.8380   50.4800   97.1820 C.3   157  PHE157      0.0560
    141  CG        32.4470   50.5290   95.7170 C.ar  157  PHE157     -0.0200
    142  CD1       32.3380   49.3660   94.9720 C.ar  157  PHE157     -0.0042
    143  CD2       32.2140   51.7430   95.0830 C.ar  157  PHE157     -0.0042
    144  CE1       31.9930   49.4030   93.6220 C.ar  157  PHE157     -0.0003
    145  CE2       31.8690   51.7920   93.7250 C.ar  157  PHE157     -0.0003
    146  CZ        31.7580   50.6150   92.9940 C.ar  157  PHE157     -0.0000
    147  N         25.1780   48.4040   94.2840 N.3   211  TYR211     -0.1241
    148  CA        25.4320   49.4800   93.3380 C.3   211  TYR211      0.1605
    149  C         24.1550   50.1910   92.9080 C.2   211  TYR211      0.2264
    150  O         24.1180   51.4180   92.8780 O.2   211  TYR211     -0.2867
    151  CB        26.1430   48.9670   92.0960 C.3   211  TYR211      0.0534
    152  CG        26.6830   50.0800   91.2180 C.ar  211  TYR211     -0.0201
    153  CD1       25.8900   50.6800   90.2290 C.ar  211  TYR211     -0.0009
    154  CD2       27.9880   50.5400   91.3860 C.ar  211  TYR211     -0.0009
    155  CE1       26.3910   51.7050   89.4220 C.ar  211  TYR211      0.0417
    156  CE2       28.5010   51.5570   90.5860 C.ar  211  TYR211      0.0417
    157  CZ        27.7080   52.1320   89.6110 C.ar  211  TYR211      0.1957
    158  OH        28.2380   53.1320   88.8370 O.3   211  TYR211     -0.2866
    159  N         32.6990   56.8910   85.8090 N.3   231  TRP231     -0.1241
    160  CA        31.6680   56.2720   84.9590 C.3   231  TRP231      0.1605
    161  C         30.2500   56.6110   85.4260 C.2   231  TRP231      0.2264
    162  O         29.2980   56.5640   84.6380 O.2   231  TRP231     -0.2867
    163  CB        31.8460   54.7380   84.9090 C.3   231  TRP231      0.0550
    164  CG        31.9200   54.1340   86.2660 C.ar  231  TRP231      0.0003
    165  CD1       30.8770   53.7920   87.0710 C.ar  231  TRP231      0.0946
    166  CD2       33.1110   53.8360   87.0020 C.ar  231  TRP231      0.0152
    167  NE1       31.3420   53.2960   88.2630 N.ar  231  TRP231     -0.2442
    168  CE2       32.7140   53.3040   88.2440 C.ar  231  TRP231      0.0810
    169  CE3       34.4800   53.9650   86.7310 C.ar  231  TRP231      0.0012
    170  CZ2       33.6330   52.9050   89.2190 C.ar  231  TRP231      0.0191
    171  CZ3       35.3940   53.5520   87.6920 C.ar  231  TRP231      0.0001
    172  CH2       34.9640   53.0380   88.9250 C.ar  231  TRP231      0.0015
    173  N         42.7440   51.7430   89.4620 N.3   261  GLY261     -0.1225
    174  CA        42.7260   50.8180   88.3500 C.3   261  GLY261      0.1811
    175  C         42.9830   51.5160   87.0280 C.2   261  GLY261      0.2280
    176  O         42.6510   52.6930   86.8580 O.2   261  GLY261     -0.2866
    177  N         46.8690   49.2620   91.4560 N.3   331  MET331     -0.1245
    178  CA        46.7860   47.8500   91.8200 C.3   331  MET331      0.1570
    179  C         47.9460   47.0290   91.2550 C.2   331  MET331      0.2261
    180  O         48.4790   47.3450   90.2000 O.2   331  MET331     -0.2867
    181  CB        45.4660   47.2510   91.3480 C.3   331  MET331      0.0387
    182  CG        44.2760   47.7610   92.1110 C.3   331  MET331      0.0595
    183  SD        42.7650   46.9840   91.5430 S.3   331  MET331     -0.1393
    184  CE        42.4620   47.8070   89.9930 C.3   331  MET331      0.0692
    185  N         42.9140   38.2110   92.1170 N.3   338  SER338     -0.1217
    186  CA        41.5150   37.8150   92.2000 C.3   338  SER338      0.1889
    187  C         41.2770   37.0290   93.4900 C.2   338  SER338      0.2288
    188  O         40.2510   37.2340   94.1530 O.2   338  SER338     -0.2866
    189  CB        41.0790   37.0210   90.9550 C.3   338  SER338      0.2089
    190  OG        42.0630   36.0970   90.5390 O.3   338  SER338     -0.2183
    191  N         40.7820   39.6400   96.0480 N.3   341  TRP341     -0.1227
    192  CA        39.5200   40.3490   95.9610 C.3   341  TRP341      0.1737
    193  C         38.3790   39.4580   96.4300 C.2   341  TRP341      0.2595
    194  O         37.5430   39.9200   97.1850 O.2   341  TRP341     -0.2718
    195  CB        39.2480   40.8590   94.5370 C.3   341  TRP341      0.0564
    196  CG        39.9710   42.1120   94.1330 C.ar  341  TRP341      0.0003
    197  CD1       40.7910   42.2690   93.0360 C.ar  341  TRP341      0.0946
    198  CD2       39.9200   43.4020   94.7790 C.ar  341  TRP341      0.0152
    199  NE1       41.2490   43.5630   92.9720 N.ar  341  TRP341     -0.2442
    200  CE2       40.7450   44.2740   94.0340 C.ar  341  TRP341      0.0810
    201  CE3       39.2770   43.8930   95.9200 C.ar  341  TRP341      0.0012
    202  CZ2       40.9330   45.6110   94.3900 C.ar  341  TRP341      0.0191
    203  CZ3       39.4670   45.2190   96.2790 C.ar  341  TRP341      0.0001
    204  CH2       40.2870   46.0660   95.5120 C.ar  341  TRP341      0.0015
    205  N         38.3560   38.1860   96.0250 N.am  342  TYR342     -0.1976
    206  CA        37.2980   37.2790   96.4790 C.3   342  TYR342      0.1639
    207  C         37.3740   37.0950   98.0090 C.2   342  TYR342      0.2290
    208  O         36.3510   37.0440   98.6860 O.2   342  TYR342     -0.2864
    209  CB        37.3660   35.9130   95.7830 C.3   342  TYR342      0.0560
    210  CG        36.8580   35.8590   94.3300 C.ar  342  TYR342     -0.0198
    211  CD1       35.5090   36.0260   94.0150 C.ar  342  TYR342     -0.0009
    212  CD2       37.7370   35.6100   93.2830 C.ar  342  TYR342     -0.0009
    213  CE1       35.0660   35.9790   92.6820 C.ar  342  TYR342      0.0417
    214  CE2       37.3120   35.5710   91.9720 C.ar  342  TYR342      0.0417
    215  CZ        35.9800   35.7450   91.6680 C.ar  342  TYR342      0.1957
    216  OH        35.5910   35.6700   90.3370 O.3   342  TYR342     -0.2866
    217  N         36.0170   40.3660   99.6000 N.3   345  ARG345     -0.1245
    218  CA        34.5850   40.4390   99.3580 C.3   345  ARG345      0.1563
    219  C         33.8160   39.6490  100.4140 C.2   345  ARG345      0.2260
    220  O         32.9000   40.1630  101.0420 O.2   345  ARG345     -0.2867
    221  CB        34.2290   39.9180   97.9590 C.3   345  ARG345      0.0307
    222  CG        32.7440   40.0170   97.6770 C.3   345  ARG345      0.0489
    223  CD        32.3280   39.4900   96.3080 C.3   345  ARG345      0.2205
    224  NE        30.9280   39.8260   96.0840 N.pl3 345  ARG345     -0.0865
    225  CZ        29.8950   39.0850   96.4770 C.cat 345  ARG345      0.5346
    226  NH1       30.0900   37.9180   97.0810 N.pl3 345  ARG345      0.1354
    227  NH2       28.6610   39.5140   96.2450 N.pl3 345  ARG345      0.1354
@<TRIPOS>BOND
     1    20    19    2
     2    19    18    1
     3     1     2    1
     4    21    18    1
     5    21    22    1
     6     4     3    2
     7    53    54    1
     8    18    17    1
     9     3     2    1
    10     2     5    1
    11    22    23    1
    12    17    11   am
    13    56    55    2
    14    54    57    1
    15    54    55    1
    16    23    24    1
    17    57    58    1
    18     5     6    1
    19    55    67   am
    20    11    12    2
    21    11    10    1
    22     9    10    1
    23    35    36    1
    24    36    37    1
    25    36    39    1
    26    10    13    1
    27    29    28    2
    28    28    27    1
    29    63    60   ar
    30    63    65   ar
    31    47    46    2
    32     7     6    2
    33    46    45    1
    34     6     8   am
    35    24    25    1
    36    58    60   ar
    37    58    59   ar
    38    37    38    2
    39    37    44   am
    40    67    68    1
    41    15    14   ar
    42    26    27    1
    43    99    97   ar
    44    60    62   ar
    45    65    66   ar
    46    44    45    1
    47   162   161    2
    48    39    40    1
    49    83    82    2
    50    70    69    2
    51    69    68    1
    52    68    71    1
    53   163   160    1
    54   163   164    1
    55    27    30    1
    56   160   161    1
    57   160   159    1
    58    45    48    1
    59    82    81    1
    60    13    14    1
    61    59    61   ar
    62    14    16   ar
    63    42    41   ar
    64    97    96    1
    65    97    98   ar
    66    30    31    1
    67    84    81    1
    68    84    85    1
    69    96    95    1
    70    62    61   ar
    71    62    64   ar
    72    66    64   ar
    73    40    41    1
    74    86    85    1
    75    86    87    1
    76    48    49    1
    77    81    80    1
    78   164   166   ar
    79   164   165   ar
    80    41    43   ar
    81    80    74   am
    82    91    92    1
    83   169   166   ar
    84   169   171   ar
    85    31    32    1
    86    72    73    1
    87   176   175    2
    88   166   168   ar
    89   175   174    1
    90   165   167   ar
    91    87    88    2
    92    89    88    1
    93    95    92    1
    94    49    50    1
    95    92    93    1
    96    74    73    1
    97    74    75    2
    98    88    90    1
    99   171   172   ar
   100    73    76    1
   101    32    33    1
   102   168   167   ar
   103   168   170   ar
   104    52    50   ar
   105   174   173    1
   106    78    77   ar
   107    50    51   ar
   108   158   157    1
   109   172   170   ar
   110    93    94    2
   111    77    76    1
   112    77    79   ar
   113    33    34    1
   114   155   157   ar
   115   155   153   ar
   116   157   156   ar
   117   184   183    1
   118   180   179    2
   119   153   152   ar
   120   216   215    1
   121   190   189    1
   122   156   154   ar
   123   189   186    1
   124   135   134    1
   125   152   154   ar
   126   152   151    1
   127   179   178    1
   128   181   178    1
   129   181   182    1
   130   177   178    1
   131   183   182    1
   132   215   214   ar
   133   215   213   ar
   134   134   133   ar
   135   134   132   ar
   136   214   212   ar
   137   151   148    1
   138   185   186    1
   139   133   131   ar
   140   186   187    1
   141   132   130   ar
   142   213   211   ar
   143   150   149    2
   144   149   148    1
   145   131   129   ar
   146   199   197   ar
   147   199   200   ar
   148   116   114   ar
   149   146   144   ar
   150   146   145   ar
   151   197   196   ar
   152   130   129   ar
   153   212   210   ar
   154   148   147    1
   155   114   115   ar
   156   114   113    1
   157   129   128    1
   158   187   188    2
   159   144   142   ar
   160   113   112    1
   161   145   143   ar
   162   211   210   ar
   163   200   202   ar
   164   200   198   ar
   165   196   195    1
   166   196   198   ar
   167   107   105   am
   168   128   125    1
   169   210   209    1
   170   202   204   ar
   171   195   192    1
   172   112   109    1
   173   198   201   ar
   174   142   141   ar
   175   143   141   ar
   176   105   104    1
   177   105   106    2
   178   204   203   ar
   179   141   140    1
   180   104   101    1
   181   125   124    1
   182   125   126    1
   183   209   206    1
   184   201   203   ar
   185   192   191    1
   186   192   193    1
   187   205   193   am
   188   205   206    1
   189   224   223    1
   190   224   225    2
   191   109   108    1
   192   109   110    1
   193   227   225    1
   194   223   222    1
   195   124   119   am
   196   126   127    2
   197   126   136   am
   198   193   194    2
   199   225   226    1
   200   206   207    1
   201   123   122    1
   202   123   117    1
   203   136   137    1
   204   110   117   am
   205   110   111    2
   206   122   121    1
   207   101   100    1
   208   101   102    1
   209   140   137    1
   210   117   118    1
   211   137   138    1
   212   222   221    1
   213   119   118    1
   214   119   120    2
   215   221   218    1
   216   207   208    2
   217   103   102    2
   218   118   121    1
   219   138   139    2
   220   218   217    1
   221   218   219    1
   222   219   220    2
