@<TRIPOS>MOLECULE
tmp/4xa5A01.pdb
 135 128 0 0 0
SMALL
GASTEIGER

@<TRIPOS>ATOM
      1  N         -1.7230   10.1590   -8.3760 N.3   134  ARG134     -0.1245
      2  CA        -1.8860    9.0830   -9.3890 C.3   134  ARG134      0.1563
      3  C         -0.9770    7.9550   -9.0260 C.2   134  ARG134      0.2260
      4  O          0.1120    8.1700   -8.5500 O.2   134  ARG134     -0.2867
      5  CB        -1.6320    9.6180  -10.7850 C.3   134  ARG134      0.0307
      6  CG        -2.5660   10.7930  -11.1510 C.3   134  ARG134      0.0489
      7  CD        -2.2480   11.3480  -12.5050 C.3   134  ARG134      0.2205
      8  NE        -2.5480   10.3770  -13.5840 N.pl3 134  ARG134     -0.0865
      9  CZ        -3.7470   10.1490  -14.0920 C.cat 134  ARG134      0.5346
     10  NH1       -4.8360   10.7260  -13.5560 N.pl3 134  ARG134      0.1354
     11  NH2       -3.8770    9.2370  -15.0790 N.pl3 134  ARG134      0.1354
     12  N        -10.4780    2.7120  -18.2920 N.3   164  GLY164     -0.1210
     13  CA        -9.9500    4.0780  -18.0530 C.3   164  GLY164      0.1956
     14  C         -8.5460    4.3710  -18.6350 C.2   164  GLY164      0.2612
     15  O         -8.1410    3.9210  -19.6930 O.2   164  GLY164     -0.2717
     16  N         -7.7810    5.1630  -17.9010 N.am  165  SER165     -0.1952
     17  CA        -6.4620    5.5230  -18.3080 C.3   165  SER165      0.1924
     18  C         -5.5340    4.3820  -18.4580 C.2   165  SER165      0.2314
     19  O         -4.6000    4.4700  -19.2090 O.2   165  SER165     -0.2863
     20  CB        -5.8920    6.5890  -17.3150 C.3   165  SER165      0.2116
     21  OG        -6.0050    6.1570  -15.9720 O.3   165  SER165     -0.2180
     22  N         -5.9930    3.0280  -21.8020 N.3   168  ARG168     -0.1245
     23  CA        -5.4470    3.9960  -22.7450 C.3   168  ARG168      0.1563
     24  C         -3.9160    4.0640  -22.7210 C.2   168  ARG168      0.2260
     25  O         -3.3190    4.8520  -23.4450 O.2   168  ARG168     -0.2867
     26  CB        -6.0470    5.3830  -22.5000 C.3   168  ARG168      0.0307
     27  CG        -7.5620    5.4330  -22.6170 C.3   168  ARG168      0.0489
     28  CD        -8.0480    6.8140  -23.0230 C.3   168  ARG168      0.2205
     29  NE        -7.6260    7.8480  -22.0830 N.pl3 168  ARG168     -0.0865
     30  CZ        -8.1540    8.0270  -20.8770 C.cat 168  ARG168      0.5346
     31  NH1       -9.1300    7.2410  -20.4520 N.pl3 168  ARG168      0.1354
     32  NH2       -7.7050    8.9950  -20.0940 N.pl3 168  ARG168      0.1354
     33  N         -5.2850    7.6400  -12.1060 N.3   174  GLY174     -0.1210
     34  CA        -5.9180    8.3410  -11.0250 C.3   174  GLY174      0.1956
     35  C         -6.6030    7.3500  -10.0590 C.2   174  GLY174      0.2611
     36  O         -6.7350    7.5840   -8.8610 O.2   174  GLY174     -0.2717
     37  N         -7.0770    6.2470  -10.6250 N.am  175  ASP175     -0.1973
     38  CA        -7.7080    5.2170   -9.8650 C.3   175  ASP175      0.1709
     39  C         -7.7310    3.9560  -10.7870 C.2   175  ASP175      0.2293
     40  O         -7.1120    3.9360  -11.8920 O.2   175  ASP175     -0.2864
     41  CB        -9.1100    5.6570   -9.4450 C.3   175  ASP175      0.1436
     42  CG       -10.0160    5.8720  -10.6140 C.2   175  ASP175      0.3671
     43  OD1       -9.6150    5.5000  -11.7140 O.co2 175  ASP175     -0.2456
     44  OD2      -11.1730    6.3670  -10.4790 O.co2 175  ASP175     -0.2456
     45  N        -10.2930    1.1840  -12.7870 N.3   177  ASP177     -0.1239
     46  CA       -11.6560    0.9020  -13.2020 C.3   177  ASP177      0.1674
     47  C        -11.7540   -0.4890  -13.8090 C.2   177  ASP177      0.2266
     48  O        -11.1600   -0.7590  -14.8480 O.2   177  ASP177     -0.2867
     49  CB       -12.1210    1.9540  -14.2040 C.3   177  ASP177      0.1410
     50  CG       -11.7400    3.3570  -13.7820 C.2   177  ASP177      0.3668
     51  OD1      -12.4380    3.9180  -12.9180 O.co2 177  ASP177     -0.2456
     52  OD2      -10.7400    3.8920  -14.3010 O.co2 177  ASP177     -0.2456
     53  N        -13.1510    1.4220   -8.9450 N.3   238  ASP238     -0.1239
     54  CA       -14.4770    1.4050   -9.4910 C.3   238  ASP238      0.1674
     55  C        -14.6640    0.0850  -10.1620 C.2   238  ASP238      0.2266
     56  O        -13.7710   -0.3970  -10.8970 O.2   238  ASP238     -0.2867
     57  CB       -14.7210    2.5940  -10.5090 C.3   238  ASP238      0.1410
     58  CG       -14.7210    4.0040   -9.8590 C.2   238  ASP238      0.3668
     59  OD1      -14.8150    4.1670   -8.5990 O.co2 238  ASP238     -0.2456
     60  OD2      -14.5760    4.9920  -10.6530 O.co2 238  ASP238     -0.2456
     61  N        -17.3080    2.9820  -23.1810 N.3   253  TYR253     -0.1227
     62  CA       -17.6380    3.9750  -22.1510 C.3   253  TYR253      0.1736
     63  C        -16.5570    4.0840  -21.0760 C.2   253  TYR253      0.2595
     64  O        -16.0650    5.2080  -20.7820 O.2   253  TYR253     -0.2718
     65  CB       -19.0360    3.7320  -21.4890 C.3   253  TYR253      0.0548
     66  CG       -19.2010    4.2320  -19.9950 C.ar  253  TYR253     -0.0200
     67  CD1      -19.3420    5.5360  -19.6900 C.ar  253  TYR253     -0.0009
     68  CD2      -19.2280    3.3120  -18.9290 C.ar  253  TYR253     -0.0009
     69  CE1      -19.4790    6.0040  -18.3510 C.ar  253  TYR253      0.0417
     70  CE2      -19.3700    3.7230  -17.5630 C.ar  253  TYR253      0.0417
     71  CZ       -19.4950    5.0940  -17.2790 C.ar  253  TYR253      0.1957
     72  OH       -19.6960    5.5810  -15.9510 O.3   253  TYR253     -0.2866
     73  N        -16.1950    2.9460  -20.5220 N.am  254  PHE254     -0.1962
     74  CA       -15.3930    2.8970  -19.3090 C.3   254  PHE254      0.1771
     75  C        -13.9460    3.1840  -19.7080 C.2   254  PHE254      0.2620
     76  O        -13.1470    3.5500  -18.8880 O.2   254  PHE254     -0.2715
     77  CB       -15.6270    1.5930  -18.5410 C.3   254  PHE254      0.0574
     78  CG       -15.4740    1.6810  -16.9780 C.ar  254  PHE254     -0.0200
     79  CD1      -15.7750    2.8450  -16.2590 C.ar  254  PHE254     -0.0042
     80  CD2      -15.1210    0.5220  -16.2370 C.ar  254  PHE254     -0.0042
     81  CE1      -15.6740    2.8640  -14.8460 C.ar  254  PHE254     -0.0003
     82  CE2      -15.0350    0.5140  -14.8250 C.ar  254  PHE254     -0.0003
     83  CZ       -15.3220    1.7080  -14.1390 C.ar  254  PHE254     -0.0000
     84  N        -13.6010    3.0150  -20.9780 N.am  255  THR255     -0.1937
     85  CA       -12.2360    3.3750  -21.4130 C.3   255  THR255      0.2028
     86  C        -12.0430    4.8630  -21.6180 C.2   255  THR255      0.2643
     87  O        -10.9380    5.4130  -21.3400 O.2   255  THR255     -0.2714
     88  CB       -11.8530    2.5410  -22.6870 C.3   255  THR255      0.1808
     89  OG1      -11.8810    1.1620  -22.3250 O.3   255  THR255     -0.2208
     90  CG2      -10.4820    2.9150  -23.2250 C.3   255  THR255      0.0379
     91  N        -13.0850    5.5470  -22.1030 N.am  256  GLY256     -0.1939
     92  CA       -12.9950    6.9800  -22.2440 C.3   256  GLY256      0.2014
     93  C        -11.9700    7.3880  -23.3360 C.2   256  GLY256      0.2640
     94  O        -11.7500    6.6510  -24.2950 O.2   256  GLY256     -0.2714
     95  N        -11.3900    8.6000  -23.2530 N.am  257  SER257     -0.1935
     96  CA       -11.5550    9.5260  -22.1660 C.3   257  SER257      0.2055
     97  C        -12.9890   10.0800  -22.0730 C.2   257  SER257      0.2642
     98  O        -13.7660    9.9060  -22.9820 O.2   257  SER257     -0.2714
     99  CB       -10.6050   10.7160  -22.3710 C.3   257  SER257      0.2130
    100  OG       -11.0830   11.5800  -23.4260 O.3   257  SER257     -0.2179
    101  N        -13.2780   10.8450  -21.0310 N.am  258  ALA258     -0.1977
    102  CA       -14.5990   11.5020  -20.9000 C.3   258  ALA258      0.1597
    103  C        -14.8970   12.4000  -22.1000 C.2   258  ALA258      0.2287
    104  O        -15.9830   12.3650  -22.6630 O.2   258  ALA258     -0.2864
    105  CB       -14.6960   12.2870  -19.5940 C.3   258  ALA258      0.0319
    106  N        -15.6900   10.3470  -25.1320 N.3   261  ASN261     -0.1225
    107  CA       -17.0510    9.7540  -25.0960 C.3   261  ASN261      0.1785
    108  C        -18.0610   10.8640  -25.4500 C.2   261  ASN261      0.2597
    109  O        -18.9660   10.6630  -26.2130 O.2   261  ASN261     -0.2718
    110  CB       -17.3780    9.2620  -23.7040 C.3   261  ASN261      0.1169
    111  CG       -16.6240    8.0290  -23.3120 C.2   261  ASN261      0.2627
    112  OD1      -16.0580    7.3380  -24.1630 O.2   261  ASN261     -0.2716
    113  ND2      -16.7270    7.6580  -22.0460 N.am  261  ASN261     -0.0877
    114  N        -17.9130   12.0450  -24.8340 N.am  262  ARG262     -0.1979
    115  CA       -18.8400   13.1370  -25.0860 C.3   262  ARG262      0.1597
    116  C        -18.8730   13.4360  -26.5450 C.2   262  ARG262      0.2287
    117  O        -19.9350   13.5590  -27.1380 O.2   262  ARG262     -0.2864
    118  CB       -18.5470   14.4000  -24.1750 C.3   262  ARG262      0.0334
    119  CG       -18.8590   14.0750  -22.7110 C.3   262  ARG262      0.0492
    120  CD       -18.3780   15.1470  -21.6950 C.3   262  ARG262      0.2205
    121  NE       -19.3300   16.2310  -21.6460 N.pl3 262  ARG262     -0.0865
    122  CZ       -19.2960   17.2200  -20.7540 C.cat 262  ARG262      0.5346
    123  NH1      -18.3460   17.2410  -19.7880 N.pl3 262  ARG262      0.1354
    124  NH2      -20.2180   18.1860  -20.8110 N.pl3 262  ARG262      0.1354
    125  N        -20.6440   10.5110  -28.5250 N.3   265  ARG265     -0.1245
    126  CA       -22.1130   10.5890  -28.2710 C.3   265  ARG265      0.1563
    127  C        -22.7500   11.7600  -29.0470 C.2   265  ARG265      0.2260
    128  O        -23.7730   11.5950  -29.7250 O.2   265  ARG265     -0.2867
    129  CB       -22.4150   10.6800  -26.7380 C.3   265  ARG265      0.0307
    130  CG       -22.0040    9.4220  -25.9940 C.3   265  ARG265      0.0489
    131  CD       -22.1250    9.3800  -24.4480 C.3   265  ARG265      0.2205
    132  NE       -21.6510    8.0960  -23.8980 N.pl3 265  ARG265     -0.0865
    133  CZ       -22.0150    7.6390  -22.6780 C.cat 265  ARG265      0.5346
    134  NH1      -22.8500    8.3390  -21.8650 N.pl3 265  ARG265      0.1354
    135  NH2      -21.5540    6.4750  -22.2440 N.pl3 265  ARG265      0.1354
@<TRIPOS>BOND
     1   128   127    2
     2   127   126    1
     3   125   126    1
     4   126   129    1
     5   117   116    2
     6   129   130    1
     7   116   115    1
     8   109   108    2
     9   130   131    1
    10   108   107    1
    11   108   114   am
    12   106   107    1
    13   107   110    1
    14   115   114    1
    15   115   118    1
    16   131   132    1
    17    94    93    2
    18   118   119    1
    19   112   111    2
    20   132   133    2
    21   110   111    1
    22    25    24    2
    23   100    99    1
    24    93    95   am
    25    93    92    1
    26   111   113   am
    27    95    96    1
    28    90    88    1
    29    61    62    1
    30    28    27    1
    31    28    29    1
    32    98    97    2
    33    23    24    1
    34    23    26    1
    35    23    22    1
    36   119   120    1
    37    88    89    1
    38    88    85    1
    39   133   135    1
    40   133   134    1
    41   104   103    2
    42    27    26    1
    43    99    96    1
    44    92    91    1
    45    96    97    1
    46    62    65    1
    47    62    63    1
    48    91    86   am
    49   103   102    1
    50    29    30    2
    51    97   101   am
    52   120   121    1
    53   121   122    2
    54    86    85    1
    55    86    87    2
    56    65    66    1
    57    85    84    1
    58    63    64    2
    59    63    73   am
    60   101   102    1
    61    84    75   am
    62   102   105    1
    63    30    31    1
    64    30    32    1
    65   124   122    1
    66   122   123    1
    67    73    74    1
    68    66    67   ar
    69    66    68   ar
    70    75    74    1
    71    75    76    2
    72    15    14    2
    73    67    69   ar
    74    74    77    1
    75    19    18    2
    76    68    70   ar
    77    14    13    1
    78    14    16   am
    79    77    78    1
    80    18    17    1
    81    69    71   ar
    82    17    16    1
    83    17    20    1
    84    12    13    1
    85    70    71   ar
    86    20    21    1
    87    71    72    1
    88    78    79   ar
    89    78    80   ar
    90    79    81   ar
    91    80    82   ar
    92    11     9    1
    93    48    47    2
    94    81    83   ar
    95    82    83   ar
    96    52    50   ar
    97    49    50    1
    98    49    46    1
    99     9     8    2
   100     9    10    1
   101    47    46    1
   102    50    51   ar
   103     8     7    1
   104    46    45    1
   105     7     6    1
   106    33    34    1
   107    40    39    2
   108    43    42   ar
   109     6     5    1
   110    34    35    1
   111    56    55    2
   112    39    38    1
   113     5     2    1
   114    60    58   ar
   115    37    35   am
   116    37    38    1
   117    42    44   ar
   118    42    41    1
   119    57    58    1
   120    57    54    1
   121    55    54    1
   122    35    36    2
   123    38    41    1
   124    58    59   ar
   125    54    53    1
   126     2     3    1
   127     2     1    1
   128     3     4    2
