@<TRIPOS>MOLECULE
tmp/4xacA00.pdb
 143 136 0 0 0
SMALL
GASTEIGER

@<TRIPOS>ATOM
      1  N         32.1680   28.7920   66.3770 N.3    66  LEU66      -0.1245
      2  CA        31.0060   28.7250   65.5110 C.3    66  LEU66       0.1561
      3  C         31.0120   27.3900   64.7660 C.2    66  LEU66       0.2260
      4  O         31.9890   27.0790   64.0860 O.2    66  LEU66      -0.2867
      5  CB        31.0270   29.8990   64.5280 C.3    66  LEU66       0.0270
      6  CG        29.8610   30.0710   63.5610 C.3    66  LEU66       0.0019
      7  CD1       28.5810   30.2680   64.3340 C.3    66  LEU66       0.0001
      8  CD2       30.1260   31.2590   62.6470 C.3    66  LEU66       0.0001
      9  N         31.0010   26.2360   52.0000 N.3   108  HIS108     -0.1241
     10  CA        31.2900   26.4200   53.4120 C.3   108  HIS108      0.1621
     11  C         29.9500   26.4220   54.1430 C.2   108  HIS108      0.2264
     12  O         29.0350   27.1460   53.7630 O.2   108  HIS108     -0.2867
     13  CB        32.0650   27.7230   53.6300 C.3   108  HIS108      0.0745
     14  CG        32.4190   27.9900   55.0560 C.ar  108  HIS108      0.0817
     15  ND1       32.4920   29.2640   55.5770 N.ar  108  HIS108     -0.2268
     16  CD2       32.7240   27.1480   56.0730 C.ar  108  HIS108      0.1154
     17  CE1       32.8250   29.1960   56.8540 C.ar  108  HIS108      0.1986
     18  NE2       32.9720   27.9230   57.1790 N.ar  108  HIS108     -0.2212
     19  N         27.6650   26.7750   57.6880 N.3   110  ILE110     -0.1245
     20  CA        27.6400   27.3750   59.0060 C.3   110  ILE110      0.1561
     21  C         26.3060   27.0770   59.6740 C.2   110  ILE110      0.2260
     22  O         25.2490   27.0540   59.0240 O.2   110  ILE110     -0.2867
     23  CB        27.8580   28.8980   58.9470 C.3   110  ILE110      0.0252
     24  CG1       29.1020   29.2360   58.1320 C.3   110  ILE110      0.0019
     25  CG2       27.9930   29.4680   60.3470 C.3   110  ILE110      0.0019
     26  CD1       29.2620   30.7070   57.8650 C.3   110  ILE110      0.0001
     27  N         24.5380   28.5040   63.2430 N.3   112  LYS112     -0.1245
     28  CA        24.4600   29.1920   64.5290 C.3   112  LYS112      0.1561
     29  C         23.3860   28.5020   65.3360 C.2   112  LYS112      0.2260
     30  O         22.2020   28.6410   65.0240 O.2   112  LYS112     -0.2867
     31  CB        24.1340   30.6800   64.3710 C.3   112  LYS112      0.0271
     32  CG        25.3000   31.5430   63.8900 C.3   112  LYS112      0.0035
     33  CD        25.0250   33.0250   64.1640 C.3   112  LYS112      0.0206
     34  CE        26.0660   33.6530   65.0930 C.3   112  LYS112      0.1093
     35  NZ        27.3120   34.1160   64.3970 N.3   112  LYS112     -0.1314
     36  N         29.7610   36.9690   64.9150 N.3   120  THR120     -0.1218
     37  CA        30.8870   36.8650   64.0170 C.3   120  THR120      0.1862
     38  C         31.4010   38.2860   63.8870 C.2   120  THR120      0.2287
     39  O         30.7350   39.1300   63.2910 O.2   120  THR120     -0.2866
     40  CB        30.5010   36.3110   62.6210 C.3   120  THR120      0.1770
     41  OG1       29.8500   35.0410   62.7700 O.3   120  THR120     -0.2211
     42  CG2       31.7420   36.1500   61.7650 C.3   120  THR120      0.0375
     43  N         34.9030   41.7300   59.9750 N.3   123  HIS123     -0.1241
     44  CA        36.0650   41.2390   59.2540 C.3   123  HIS123      0.1621
     45  C         35.8460   41.4270   57.7540 C.2   123  HIS123      0.2264
     46  O         34.7240   41.6640   57.2950 O.2   123  HIS123     -0.2867
     47  CB        36.3230   39.7460   59.5790 C.3   123  HIS123      0.0745
     48  CG        35.2960   38.8230   58.9840 C.ar  123  HIS123      0.0817
     49  ND1       34.0370   38.6620   59.5280 N.ar  123  HIS123     -0.2268
     50  CD2       35.3250   38.0530   57.8670 C.ar  123  HIS123      0.1154
     51  CE1       33.3400   37.8240   58.7760 C.ar  123  HIS123      0.1986
     52  NE2       34.0950   37.4400   57.7580 N.ar  123  HIS123     -0.2212
     53  N         36.7560   39.1570   54.2660 N.3   125  ASP125     -0.1239
     54  CA        37.1610   37.8020   53.9450 C.3   125  ASP125      0.1674
     55  C         38.5790   37.7920   53.3540 C.2   125  ASP125      0.2266
     56  O         39.3410   36.8420   53.5400 O.2   125  ASP125     -0.2867
     57  CB        36.1420   37.1710   52.9790 C.3   125  ASP125      0.1410
     58  CG        34.7770   36.9670   53.6350 C.2   125  ASP125      0.3668
     59  OD1       34.7210   36.9000   54.8810 O.co2 125  ASP125     -0.2456
     60  OD2       33.7580   36.8860   52.9180 O.co2 125  ASP125     -0.2456
     61  N         31.3330   35.9300   47.8450 N.3   139  SER139     -0.1217
     62  CA        30.6910   34.8480   48.5680 C.3   139  SER139      0.1889
     63  C         29.1860   34.9770   48.4210 C.2   139  SER139      0.2288
     64  O         28.6720   36.0770   48.5020 O.2   139  SER139     -0.2866
     65  CB        31.0790   34.8820   50.0470 C.3   139  SER139      0.2089
     66  OG        32.4770   34.6760   50.1760 O.3   139  SER139     -0.2183
     67  N         25.9530   33.7970   50.3370 N.3   141  TRP141     -0.1241
     68  CA        25.5200   33.2770   51.6280 C.3   141  TRP141      0.1605
     69  C         24.0300   32.9790   51.5490 C.2   141  TRP141      0.2264
     70  O         23.2230   33.8920   51.6410 O.2   141  TRP141     -0.2867
     71  CB        25.8400   34.3360   52.7030 C.3   141  TRP141      0.0550
     72  CG        25.7320   34.0360   54.1930 C.ar  141  TRP141      0.0003
     73  CD1       26.7620   33.6700   55.0440 C.ar  141  TRP141      0.0946
     74  CD2       24.5810   34.2430   55.0340 C.ar  141  TRP141      0.0152
     75  NE1       26.2910   33.5760   56.3410 N.ar  141  TRP141     -0.2442
     76  CE2       24.9680   33.9270   56.3630 C.ar  141  TRP141      0.0810
     77  CE3       23.2590   34.6400   54.7940 C.ar  141  TRP141      0.0012
     78  CZ2       24.0760   33.9970   57.4380 C.ar  141  TRP141      0.0191
     79  CZ3       22.3730   34.7070   55.8790 C.ar  141  TRP141      0.0001
     80  CH2       22.7870   34.3830   57.1720 C.ar  141  TRP141      0.0015
     81  N         23.5710   38.8630   58.3500 N.3   154  LEU154     -0.1245
     82  CA        24.7820   39.6280   58.0910 C.3   154  LEU154      0.1561
     83  C         24.5140   41.1330   58.0880 C.2   154  LEU154      0.2260
     84  O         23.4230   41.5840   57.7270 O.2   154  LEU154     -0.2867
     85  CB        25.4130   39.2060   56.7480 C.3   154  LEU154      0.0270
     86  CG        25.8540   37.7280   56.7000 C.3   154  LEU154      0.0019
     87  CD1       26.7880   37.4350   55.5220 C.3   154  LEU154      0.0001
     88  CD2       26.5160   37.3190   58.0090 C.3   154  LEU154      0.0001
     89  N         28.5480   39.0360   48.8300 N.3   203  HIS203     -0.1241
     90  CA        29.4880   40.1240   49.1090 C.3   203  HIS203      0.1621
     91  C         30.8860   39.8850   48.5580 C.2   203  HIS203      0.2264
     92  O         31.3830   38.7530   48.5200 O.2   203  HIS203     -0.2867
     93  CB        29.5850   40.4250   50.6310 C.3   203  HIS203      0.0745
     94  CG        29.9940   39.2650   51.4850 C.ar  203  HIS203      0.0817
     95  ND1       29.0780   38.4540   52.1260 N.ar  203  HIS203     -0.2268
     96  CD2       31.2210   38.8080   51.8530 C.ar  203  HIS203      0.1154
     97  CE1       29.7160   37.5270   52.8160 C.ar  203  HIS203      0.1986
     98  NE2       31.0170   37.7220   52.6740 N.ar  203  HIS203     -0.2212
     99  N         32.0420   42.7870   56.9340 N.3   209  HIS209     -0.1226
    100  CA        30.7730   42.2720   57.4270 C.3   209  HIS209      0.1752
    101  C         30.8810   41.6700   58.8230 C.2   209  HIS209      0.2596
    102  O         31.9740   41.3460   59.3180 O.2   209  HIS209     -0.2718
    103  CB        30.1770   41.2460   56.4420 C.3   209  HIS209      0.0759
    104  CG        31.1080   40.1290   56.0790 C.ar  209  HIS209      0.0818
    105  ND1       32.1490   40.2840   55.1880 N.ar  209  HIS209     -0.2268
    106  CD2       31.1330   38.8330   56.4640 C.ar  209  HIS209      0.1154
    107  CE1       32.7840   39.1320   55.0550 C.ar  209  HIS209      0.1986
    108  NE2       32.1880   38.2350   55.8180 N.ar  209  HIS209     -0.2212
    109  N         29.7100   41.5270   59.4370 N.am  210  TYR210     -0.1962
    110  CA        29.5500   41.1570   60.8370 C.3   210  TYR210      0.1771
    111  C         28.2670   40.3490   60.9460 C.2   210  TYR210      0.2619
    112  O         27.3230   40.5970   60.1780 O.2   210  TYR210     -0.2715
    113  CB        29.4820   42.4250   61.7000 C.3   210  TYR210      0.0574
    114  CG        28.8710   42.2540   63.0680 C.ar  210  TYR210     -0.0198
    115  CD1       27.4910   42.3740   63.2640 C.ar  210  TYR210     -0.0009
    116  CD2       29.6680   42.0250   64.1730 C.ar  210  TYR210     -0.0009
    117  CE1       26.9300   42.2410   64.5180 C.ar  210  TYR210      0.0417
    118  CE2       29.1100   41.8810   65.4380 C.ar  210  TYR210      0.0417
    119  CZ        27.7400   41.9950   65.5950 C.ar  210  TYR210      0.1957
    120  OH        27.1700   41.8600   66.8370 O.3   210  TYR210     -0.2866
    121  N         28.2160   39.3920   61.8730 N.am  211  ALA211     -0.1977
    122  CA        26.9560   38.7120   62.1600 C.3   211  ALA211      0.1597
    123  C         26.6880   38.7320   63.6550 C.2   211  ALA211      0.2287
    124  O         27.5640   38.4030   64.4550 O.2   211  ALA211     -0.2864
    125  CB        26.9710   37.2710   61.6320 C.3   211  ALA211      0.0319
    126  N         20.1790   28.7460   63.0480 N.3   220  ARG220     -0.1245
    127  CA        20.2820   29.5400   61.8170 C.3   220  ARG220      0.1563
    128  C         21.3210   28.9060   60.9100 C.2   220  ARG220      0.2260
    129  O         22.5140   28.9990   61.2160 O.2   220  ARG220     -0.2867
    130  CB        20.6880   30.9980   62.1160 C.3   220  ARG220      0.0307
    131  CG        20.9910   31.8740   60.8720 C.3   220  ARG220      0.0489
    132  CD        22.2800   32.7350   61.0050 C.3   220  ARG220      0.2205
    133  NE        23.4850   32.0080   60.5960 N.pl3 220  ARG220     -0.0865
    134  CZ        24.7280   32.4950   60.6070 C.cat 220  ARG220      0.5346
    135  NH1       24.9790   33.7350   60.9980 N.pl3 220  ARG220      0.1354
    136  NH2       25.7340   31.7290   60.2140 N.pl3 220  ARG220      0.1354
    137  N         27.3210   28.6380   52.2350 N.3   224  VAL224     -0.1245
    138  CA        28.0520   29.6820   51.5300 C.3   224  VAL224      0.1561
    139  C         28.7890   29.0870   50.3470 C.2   224  VAL224      0.2260
    140  O         29.4430   28.0600   50.4760 O.2   224  VAL224     -0.2867
    141  CB        29.0490   30.4040   52.4480 C.3   224  VAL224      0.0252
    142  CG1       29.6320   31.6280   51.7420 C.3   224  VAL224      0.0019
    143  CG2       28.3590   30.8330   53.7460 C.3   224  VAL224      0.0019
@<TRIPOS>BOND
     1    61    62    1
     2    63    64    2
     3    63    62    1
     4    92    91    2
     5    91    90    1
     6    62    65    1
     7    89    90    1
     8    90    93    1
     9    65    66    1
    10    67    68    1
    11   139   140    2
    12   139   138    1
    13    93    94    1
    14    94    96   ar
    15    94    95   ar
    16   138   137    1
    17   138   141    1
    18    69    68    1
    19    69    70    2
    20    68    71    1
    21   142   141    1
    22    96    98   ar
    23     9    10    1
    24    95    97   ar
    25   141   143    1
    26    98    97   ar
    27    71    72    1
    28    60    58   ar
    29    57    58    1
    30    57    54    1
    31    55    56    2
    32    55    54    1
    33    10    13    1
    34    10    11    1
    35    13    14    1
    36    58    59   ar
    37    12    11    2
    38    54    53    1
    39    72    74   ar
    40    72    73   ar
    41    77    74   ar
    42    77    79   ar
    43    74    76   ar
    44    73    75   ar
    45   107   105   ar
    46   107   108   ar
    47    14    15   ar
    48    14    16   ar
    49   105   104   ar
    50    87    86    1
    51    15    17   ar
    52   108   106   ar
    53    79    80   ar
    54    16    18   ar
    55   104   103    1
    56   104   106   ar
    57    75    76   ar
    58    76    78   ar
    59   103   100    1
    60    86    85    1
    61    86    88    1
    62    85    82    1
    63    17    18   ar
    64    99   100    1
    65    80    78   ar
    66    46    45    2
    67   100   101    1
    68    19    20    1
    69    84    83    2
    70    45    44    1
    71    52    50   ar
    72    52    51   ar
    73    26    24    1
    74    50    48   ar
    75    83    82    1
    76    82    81    1
    77    24    23    1
    78    51    49   ar
    79   101   102    2
    80   101   109   am
    81    23    20    1
    82    23    25    1
    83    48    49   ar
    84    48    47    1
    85    20    21    1
    86    22    21    2
    87    44    47    1
    88    44    43    1
    89   109   110    1
    90   112   111    2
    91   136   134    1
    92   133   134    2
    93   133   132    1
    94   134   135    1
    95   110   111    1
    96   110   113    1
    97   131   132    1
    98   131   130    1
    99   128   129    2
   100   128   127    1
   101   111   121   am
   102   125   122    1
   103   113   114    1
   104    42    40    1
   105   127   130    1
   106   127   126    1
   107   121   122    1
   108   122   123    1
   109    40    41    1
   110    40    37    1
   111     8     6    1
   112   114   115   ar
   113   114   116   ar
   114    27    28    1
   115   115   117   ar
   116    39    38    2
   117     6     7    1
   118     6     5    1
   119   123   124    2
   120    38    37    1
   121    32    33    1
   122    32    31    1
   123    37    36    1
   124     4     3    2
   125    33    34    1
   126   116   118   ar
   127    31    28    1
   128    35    34    1
   129   117   119   ar
   130     5     2    1
   131    28    29    1
   132     3     2    1
   133    30    29    2
   134   118   119   ar
   135     2     1    1
   136   119   120    1
