@<TRIPOS>MOLECULE
tmp/4xadA00.pdb
 152 149 0 0 0
SMALL
GASTEIGER

@<TRIPOS>ATOM
      1  N         74.2040   54.0090   33.0560 N.3    35  GLU35      -0.1245
      2  CA        73.4970   54.8310   34.0300 C.3    35  GLU35       0.1567
      3  C         72.7910   56.0070   33.3580 C.2    35  GLU35       0.2260
      4  O         71.6370   56.2870   33.6510 O.2    35  GLU35      -0.2867
      5  CB        74.4290   55.3440   35.1360 C.3    35  GLU35       0.0388
      6  CG        74.9090   54.2990   36.1470 C.3    35  GLU35       0.1160
      7  CD        73.8100   53.7130   37.0240 C.2    35  GLU35       0.3649
      8  OE1       72.6350   54.1310   36.9070 O.co2  35  GLU35      -0.2457
      9  OE2       74.1280   52.8270   37.8450 O.co2  35  GLU35      -0.2457
     10  N         66.6320   60.5750   37.4880 N.3    44  ASN44      -0.1240
     11  CA        65.6390   59.5190   37.6300 C.3    44  ASN44       0.1653
     12  C         65.1530   59.4240   39.0600 C.2    44  ASN44       0.2266
     13  O         65.9500   59.4150   39.9970 O.2    44  ASN44      -0.2867
     14  CB        66.1850   58.1730   37.1500 C.3    44  ASN44       0.1155
     15  CG        66.3060   58.1120   35.6380 C.2    44  ASN44       0.2627
     16  OD1       65.3010   58.0310   34.9120 O.2    44  ASN44      -0.2716
     17  ND2       67.5380   58.1800   35.1480 N.am   44  ASN44      -0.0877
     18  N         63.5900   57.5810   42.2340 N.3    46  ASN46      -0.1225
     19  CA        63.5290   56.2530   42.8420 C.3    46  ASN46       0.1785
     20  C         62.2120   56.0560   43.5860 C.2    46  ASN46       0.2598
     21  O         61.5480   57.0330   43.9520 O.2    46  ASN46      -0.2718
     22  CB        64.6910   56.0670   43.8180 C.3    46  ASN46       0.1169
     23  CG        66.0340   56.2270   43.1510 C.2    46  ASN46       0.2627
     24  OD1       66.2690   55.6940   42.0630 O.2    46  ASN46      -0.2716
     25  ND2       66.9240   56.9710   43.7910 N.am   46  ASN46      -0.0877
     26  N         61.8550   54.7990   43.8390 N.am   47  THR47      -0.1939
     27  CA        60.6040   54.4630   44.5130 C.3    47  THR47       0.2028
     28  C         60.4500   55.1190   45.8850 C.2    47  THR47       0.2642
     29  O         59.3330   55.4490   46.3010 O.2    47  THR47      -0.2714
     30  CB        60.4260   52.9280   44.6400 C.3    47  THR47       0.1808
     31  OG1       61.5340   52.3600   45.3570 O.3    47  THR47      -0.2208
     32  CG2       60.3510   52.3030   43.2600 C.3    47  THR47       0.0379
     33  N         61.5630   55.3040   46.5870 N.am   48  ASP48      -0.1971
     34  CA        61.5230   55.8360   47.9450 C.3    48  ASP48       0.1709
     35  C         61.4520   57.3620   47.9850 C.2    48  ASP48       0.2293
     36  O         61.3520   57.9430   49.0640 O.2    48  ASP48      -0.2864
     37  CB        62.7280   55.3500   48.7580 C.3    48  ASP48       0.1436
     38  CG        64.0410   55.6440   48.0720 C.2    48  ASP48       0.3671
     39  OD1       64.3760   54.9220   47.1140 O.co2  48  ASP48      -0.2456
     40  OD2       64.7280   56.6160   48.4640 O.co2  48  ASP48      -0.2456
     41  N         63.8200   59.4570   46.6880 N.3    50  SER50      -0.1217
     42  CA        65.1300   59.9790   46.3190 C.3    50  SER50       0.1889
     43  C         65.2320   60.0880   44.7930 C.2    50  SER50       0.2288
     44  O         64.3690   59.5790   44.0680 O.2    50  SER50      -0.2866
     45  CB        66.2310   59.0700   46.8610 C.3    50  SER50       0.2089
     46  OG        66.0960   57.7650   46.3440 O.3    50  SER50      -0.2183
     47  N         68.2490   60.1050   41.4120 N.3    52  ASP52      -0.1239
     48  CA        69.6190   59.8780   40.9390 C.3    52  ASP52       0.1674
     49  C         69.9860   60.9410   39.9190 C.2    52  ASP52       0.2266
     50  O         69.1900   61.2540   39.0410 O.2    52  ASP52      -0.2867
     51  CB        69.7460   58.4940   40.3140 C.3    52  ASP52       0.1410
     52  CG        69.0050   57.4520   41.1080 C.2    52  ASP52       0.3668
     53  OD1       69.3880   57.1920   42.2760 O.co2  52  ASP52      -0.2456
     54  OD2       68.0020   56.9190   40.5770 O.co2  52  ASP52      -0.2456
     55  N         74.5460   58.9340   37.8330 N.3    57  GLN57      -0.1231
     56  CA        73.2780   58.6540   38.5130 C.3    57  GLN57       0.1698
     57  C         73.4380   58.4770   40.0260 C.2    57  GLN57       0.2592
     58  O         73.0150   57.4750   40.6170 O.2    57  GLN57      -0.2718
     59  CB        72.5870   57.4470   37.8720 C.3    57  GLN57       0.0381
     60  CG        72.0170   57.7620   36.4960 C.3    57  GLN57       0.0905
     61  CD        70.8530   58.7300   36.5830 C.2    57  GLN57       0.2608
     62  OE1       69.7250   58.3270   36.8720 O.2    57  GLN57      -0.2717
     63  NE2       71.1210   60.0180   36.3550 N.am   57  GLN57      -0.0878
     64  N         74.0640   59.4780   40.6330 N.am   58  ILE58      -0.1966
     65  CA        74.3420   59.4760   42.0530 C.3    58  ILE58       0.1727
     66  C         73.0850   59.8330   42.8480 C.2    58  ILE58       0.2616
     67  O         72.3930   60.8100   42.5480 O.2    58  ILE58      -0.2715
     68  CB        75.5270   60.4110   42.3460 C.3    58  ILE58       0.0290
     69  CG1       76.8040   59.7780   41.7800 C.3    58  ILE58       0.0022
     70  CG2       75.6450   60.7000   43.8250 C.3    58  ILE58       0.0023
     71  CD1       78.0230   60.6700   41.7740 C.3    58  ILE58       0.0001
     72  N         72.8030   59.0150   43.8540 N.am   59  ASN59      -0.1972
     73  CA        71.5310   59.0090   44.5780 C.3    59  ASN59       0.1688
     74  C         71.4870   59.9890   45.7600 C.2    59  ASN59       0.2292
     75  O         72.3600   59.9630   46.6320 O.2    59  ASN59      -0.2864
     76  CB        71.3230   57.5760   45.0910 C.3    59  ASN59       0.1181
     77  CG        69.9030   57.2770   45.4990 C.2    59  ASN59       0.2629
     78  OD1       69.1420   58.1680   45.8570 O.2    59  ASN59      -0.2716
     79  ND2       69.5490   55.9940   45.4790 N.am   59  ASN59      -0.0877
     80  N         69.6470   59.8180   48.2520 N.3    61  ARG61      -0.1231
     81  CA        69.4100   59.0900   49.5000 C.3    61  ARG61       0.1694
     82  C         70.6360   59.1560   50.4030 C.2    61  ARG61       0.2592
     83  O         70.5170   59.2190   51.6270 O.2    61  ARG61      -0.2718
     84  CB        69.0410   57.6270   49.2120 C.3    61  ARG61       0.0321
     85  CG        68.9130   56.7420   50.4500 C.3    61  ARG61       0.0489
     86  CD        67.9020   57.2940   51.4470 C.3    61  ARG61       0.2205
     87  NE        66.5570   57.3810   50.8860 N.pl3  61  ARG61      -0.0865
     88  CZ        65.5660   58.0870   51.4230 C.cat  61  ARG61       0.5346
     89  NH1       65.7680   58.7810   52.5420 N.pl3  61  ARG61       0.1354
     90  NH2       64.3760   58.1080   50.8340 N.pl3  61  ARG61       0.1354
     91  N         71.8180   59.1530   49.7960 N.am   62  TRP62      -0.1962
     92  CA        73.0580   59.1340   50.5640 C.3    62  TRP62       0.1771
     93  C         74.0240   60.2640   50.2620 C.2    62  TRP62       0.2619
     94  O         74.7430   60.7040   51.1600 O.2    62  TRP62      -0.2715
     95  CB        73.8290   57.8290   50.3310 C.3    62  TRP62       0.0590
     96  CG        73.0560   56.5940   50.5600 C.ar   62  TRP62       0.0006
     97  CD1       72.5630   55.7450   49.6110 C.ar   62  TRP62       0.0946
     98  CD2       72.6940   56.0420   51.8230 C.ar   62  TRP62       0.0152
     99  NE1       71.9080   54.7010   50.2110 N.ar   62  TRP62      -0.2442
    100  CE2       71.9710   54.8590   51.5710 C.ar   62  TRP62       0.0810
    101  CE3       72.9040   56.4340   53.1440 C.ar   62  TRP62       0.0012
    102  CZ2       71.4620   54.0610   52.5930 C.ar   62  TRP62       0.0191
    103  CZ3       72.3990   55.6450   54.1550 C.ar   62  TRP62       0.0001
    104  CH2       71.6850   54.4740   53.8760 C.ar   62  TRP62       0.0015
    105  N         74.0730   60.7110   49.0090 N.am   63  TRP63      -0.1974
    106  CA        75.2850   61.3650   48.5180 C.3    63  TRP63       0.1640
    107  C         75.2230   62.8650   48.2860 C.2    63  TRP63       0.2290
    108  O         76.2570   63.5240   48.2760 O.2    63  TRP63      -0.2864
    109  CB        75.7770   60.6600   47.2470 C.3    63  TRP63       0.0576
    110  CG        75.9420   59.1900   47.4550 C.ar   63  TRP63       0.0006
    111  CD1       75.1770   58.1840   46.9250 C.ar   63  TRP63       0.0946
    112  CD2       76.8980   58.5560   48.3090 C.ar   63  TRP63       0.0152
    113  NE1       75.6200   56.9650   47.3830 N.ar   63  TRP63      -0.2442
    114  CE2       76.6760   57.1660   48.2340 C.ar   63  TRP63       0.0810
    115  CE3       77.9430   59.0270   49.1100 C.ar   63  TRP63       0.0012
    116  CZ2       77.4520   56.2460   48.9410 C.ar   63  TRP63       0.0191
    117  CZ3       78.7110   58.1130   49.8110 C.ar   63  TRP63       0.0001
    118  CH2       78.4610   56.7400   49.7210 C.ar   63  TRP63       0.0015
    119  N         82.0480   57.3480   46.9200 N.3    98  ILE98      -0.1245
    120  CA        81.1220   56.2220   46.8430 C.3    98  ILE98       0.1561
    121  C         81.8540   54.8930   46.6720 C.2    98  ILE98       0.2260
    122  O         81.5900   53.9260   47.3850 O.2    98  ILE98      -0.2867
    123  CB        80.1280   56.4150   45.6840 C.3    98  ILE98       0.0252
    124  CG1       79.2570   57.6510   45.9360 C.3    98  ILE98       0.0019
    125  CG2       79.2670   55.1830   45.5140 C.3    98  ILE98       0.0019
    126  CD1       78.4230   58.0650   44.7490 C.3    98  ILE98       0.0001
    127  N         77.7640   49.6640   44.0750 N.3   107  ALA107     -0.1231
    128  CA        76.8200   50.7340   44.3850 C.3   107  ALA107      0.1694
    129  C         76.0570   51.2030   43.1440 C.2   107  ALA107      0.2592
    130  O         74.9430   51.7090   43.2420 O.2   107  ALA107     -0.2718
    131  CB        77.5390   51.9030   45.0340 C.3   107  ALA107      0.0304
    132  N         76.6630   51.0470   41.9720 N.am  108  TRP108     -0.1962
    133  CA        76.0030   51.4050   40.7220 C.3   108  TRP108      0.1771
    134  C         75.2840   50.1990   40.1610 C.2   108  TRP108      0.2619
    135  O         75.9050   49.2580   39.6600 O.2   108  TRP108     -0.2715
    136  CB        77.0120   51.9760   39.7220 C.3   108  TRP108      0.0590
    137  CG        77.4290   53.3630   40.0860 C.ar  108  TRP108      0.0006
    138  CD1       76.7400   54.5120   39.8240 C.ar  108  TRP108      0.0946
    139  CD2       78.6090   53.7560   40.8020 C.ar  108  TRP108      0.0152
    140  NE1       77.4190   55.5990   40.3220 N.ar  108  TRP108     -0.2442
    141  CE2       78.5670   55.1650   40.9280 C.ar  108  TRP108      0.0810
    142  CE3       79.6940   53.0580   41.3440 C.ar  108  TRP108      0.0012
    143  CZ2       79.5770   55.8890   41.5740 C.ar  108  TRP108      0.0191
    144  CZ3       80.6940   53.7750   41.9880 C.ar  108  TRP108      0.0001
    145  CH2       80.6280   55.1770   42.0980 C.ar  108  TRP108      0.0015
    146  N         73.9600   50.2350   40.2620 N.am  109  VAL109     -0.1977
    147  CA        73.1260   49.1260   39.8300 C.3   109  VAL109      0.1596
    148  C         73.4120   48.7370   38.3790 C.2   109  VAL109      0.2287
    149  O         73.5900   47.5550   38.0660 O.2   109  VAL109     -0.2864
    150  CB        71.6270   49.4520   40.0220 C.3   109  VAL109      0.0276
    151  CG1       70.7590   48.3410   39.4760 C.3   109  VAL109      0.0022
    152  CG2       71.3230   49.6850   41.4980 C.3   109  VAL109      0.0022
@<TRIPOS>BOND
     1     1     2    1
     2     3     4    2
     3     3     2    1
     4     2     5    1
     5    16    15    2
     6     5     6    1
     7    17    15   am
     8    15    14    1
     9     6     7    1
    10    63    61   am
    11    60    61    1
    12    60    59    1
    13    61    62    2
    14     8     7   ar
    15     7     9   ar
    16    14    11    1
    17    10    11    1
    18    11    12    1
    19    55    56    1
    20    59    56    1
    21   149   148    2
    22   148   147    1
    23    56    57    1
    24    50    49    2
    25    12    13    2
    26   151   150    1
    27   135   134    2
    28   136   137    1
    29   136   133    1
    30   138   137   ar
    31   138   140   ar
    32   147   150    1
    33   147   146    1
    34    49    48    1
    35   150   152    1
    36    57    58    2
    37    57    64   am
    38   137   139   ar
    39   134   146   am
    40   134   133    1
    41    51    48    1
    42    51    52    1
    43   140   141   ar
    44    54    52   ar
    45    64    65    1
    46   133   132    1
    47   139   141   ar
    48   139   142   ar
    49   141   143   ar
    50    48    47    1
    51    52    53   ar
    52   142   144   ar
    53   143   145   ar
    54    71    69    1
    55    69    68    1
    56   132   129   am
    57   144   145   ar
    58    65    68    1
    59    65    66    1
    60    24    23    2
    61    18    19    1
    62    68    70    1
    63    67    66    2
    64    19    20    1
    65    19    22    1
    66    66    72   am
    67   129   130    2
    68   129   128    1
    69    23    25   am
    70    23    22    1
    71    32    30    1
    72    20    26   am
    73    20    21    2
    74    26    27    1
    75    72    73    1
    76    44    43    2
    77   127   128    1
    78   128   131    1
    79    27    30    1
    80    27    28    1
    81    73    76    1
    82    73    74    1
    83    30    31    1
    84   126   124    1
    85    43    42    1
    86    76    77    1
    87    79    77   am
    88    77    78    2
    89   125   123    1
    90   123   124    1
    91   123   120    1
    92    74    75    2
    93    28    29    2
    94    28    33   am
    95    42    41    1
    96    42    45    1
    97    46    45    1
    98    33    34    1
    99   121   120    1
   100   121   122    2
   101   120   119    1
   102   111   113   ar
   103   111   110   ar
   104    39    38   ar
   105   109   110    1
   106   109   106    1
   107   113   114   ar
   108   110   112   ar
   109    34    35    1
   110    34    37    1
   111    35    36    2
   112    38    40   ar
   113    38    37    1
   114   114   112   ar
   115   114   116   ar
   116    80    81    1
   117   108   107    2
   118   107   106    1
   119   112   115   ar
   120   106   105    1
   121   116   118   ar
   122   105    93   am
   123   115   117   ar
   124    84    81    1
   125    84    85    1
   126    81    82    1
   127    97    99   ar
   128    97    96   ar
   129   118   117   ar
   130    91    82   am
   131    91    92    1
   132    99   100   ar
   133    93    92    1
   134    93    94    2
   135    95    96    1
   136    95    92    1
   137    82    83    2
   138    85    86    1
   139    96    98   ar
   140    90    88    1
   141    87    88    2
   142    87    86    1
   143    88    89    1
   144   100    98   ar
   145   100   102   ar
   146    98   101   ar
   147   102   104   ar
   148   101   103   ar
   149   104   103   ar
