@<TRIPOS>MOLECULE
tmp/4xaqA00.pdb
 108 102 0 0 0
SMALL
GASTEIGER

@<TRIPOS>ATOM
      1  N        -12.3530   29.0950   35.0230 N.3    36  ARG36      -0.1245
      2  CA       -11.5720   28.9730   33.7800 C.3    36  ARG36       0.1563
      3  C        -10.4890   27.8780   33.8840 C.2    36  ARG36       0.2260
      4  O         -9.8170   27.5860   32.8980 O.2    36  ARG36      -0.2867
      5  CB       -11.0110   30.3310   33.3210 C.3    36  ARG36       0.0307
      6  CG       -12.1060   31.3430   33.0460 C.3    36  ARG36       0.0489
      7  CD       -11.5570   32.6190   32.4740 C.3    36  ARG36       0.2205
      8  NE       -12.6380   33.4550   31.9340 N.pl3  36  ARG36      -0.0865
      9  CZ       -12.5050   34.7510   31.6820 C.cat  36  ARG36       0.5346
     10  NH1      -11.3460   35.3600   31.8980 N.pl3  36  ARG36       0.1354
     11  NH2      -13.5350   35.4520   31.2230 N.pl3  36  ARG36       0.1354
     12  N        -13.0780   23.9870   32.5710 N.3    40  ARG40      -0.1245
     13  CA       -12.6000   23.8420   31.1720 C.3    40  ARG40       0.1563
     14  C        -11.8660   22.5420   30.9700 C.2    40  ARG40       0.2260
     15  O        -12.0460   21.8800   29.9390 O.2    40  ARG40      -0.2867
     16  CB       -11.7350   25.0270   30.7370 C.3    40  ARG40       0.0307
     17  CG       -12.5160   26.3080   30.5190 C.3    40  ARG40       0.0489
     18  CD       -11.5750   27.4310   30.1300 C.3    40  ARG40       0.2205
     19  NE       -12.2860   28.6980   29.9780 N.pl3  40  ARG40      -0.0865
     20  CZ       -11.6990   29.8610   29.7540 C.cat  40  ARG40       0.5346
     21  NH1      -10.3800   29.9380   29.6690 N.pl3  40  ARG40       0.1354
     22  NH2      -12.4230   30.9610   29.6280 N.pl3  40  ARG40       0.1354
     23  N         -5.3240   28.9710   27.4670 N.3    99  SER99      -0.1202
     24  CA        -6.3370   29.9880   27.7210 C.3    99  SER99       0.2020
     25  C         -5.7760   31.3820   27.4260 C.2    99  SER99       0.2619
     26  O         -6.2060   32.0490   26.4800 O.2    99  SER99      -0.2717
     27  CB        -6.8600   29.8910   29.1630 C.3    99  SER99       0.2103
     28  OG        -7.6300   28.7110   29.3570 O.3    99  SER99      -0.2182
     29  N         -4.7780   31.7870   28.2110 N.am  100  TYR100     -0.1961
     30  CA        -4.0990   33.0660   28.0430 C.3   100  TYR100      0.1771
     31  C         -3.3190   33.1180   26.7550 C.2   100  TYR100      0.2620
     32  O         -2.6720   32.1380   26.3890 O.2   100  TYR100     -0.2715
     33  CB        -3.1690   33.3320   29.2210 C.3   100  TYR100      0.0574
     34  CG        -3.9170   33.5590   30.5060 C.ar  100  TYR100     -0.0198
     35  CD1       -4.5120   34.7880   30.7800 C.ar  100  TYR100     -0.0009
     36  CD2       -4.0050   32.5590   31.4670 C.ar  100  TYR100     -0.0009
     37  CE1       -5.2060   35.0040   31.9680 C.ar  100  TYR100      0.0417
     38  CE2       -4.6740   32.7690   32.6680 C.ar  100  TYR100      0.0417
     39  CZ        -5.2550   34.0010   32.9240 C.ar  100  TYR100      0.1957
     40  OH        -5.9200   34.2050   34.1040 O.3   100  TYR100     -0.2866
     41  N         -3.3690   34.2700   26.0820 N.am  101  SER101     -0.1950
     42  CA        -2.6840   34.4730   24.8090 C.3   101  SER101      0.1924
     43  C         -1.1790   34.2600   24.8860 C.2   101  SER101      0.2314
     44  O         -0.6030   33.6070   23.9950 O.2   101  SER101     -0.2863
     45  CB        -3.0160   35.8420   24.2350 C.3   101  SER101      0.2116
     46  OG        -4.2370   35.7770   23.5220 O.3   101  SER101     -0.2180
     47  N         -9.6390   29.9080   23.9180 N.3   122  ALA122     -0.1231
     48  CA        -9.7970   31.1920   24.6210 C.3   122  ALA122      0.1694
     49  C         -8.8110   32.2920   24.2330 C.2   122  ALA122      0.2593
     50  O         -9.0740   33.4290   24.5740 O.2   122  ALA122     -0.2718
     51  CB        -9.7380   30.9730   26.1380 C.3   122  ALA122      0.0304
     52  N         -7.6710   31.9770   23.5880 N.am  123  SER123     -0.1938
     53  CA        -6.6510   32.9970   23.2460 C.3   123  SER123      0.2055
     54  C         -7.1070   33.7840   22.0470 C.2   123  SER123      0.2643
     55  O         -7.2030   33.2460   20.9550 O.2   123  SER123     -0.2714
     56  CB        -5.2950   32.3570   22.9810 C.3   123  SER123      0.2130
     57  OG        -4.9490   31.5000   24.0480 O.3   123  SER123     -0.2179
     58  N         -7.3600   35.0660   22.2580 N.am  124  THR124     -0.1950
     59  CA        -7.9660   35.9560   21.2870 C.3   124  THR124      0.1897
     60  C         -7.0220   36.9950   20.6920 C.2   124  THR124      0.2313
     61  O         -7.4620   37.7500   19.8330 O.2   124  THR124     -0.2863
     62  CB        -9.1930   36.6310   21.9440 C.3   124  THR124      0.1794
     63  OG1       -8.7390   37.3560   23.0950 O.3   124  THR124     -0.2208
     64  CG2      -10.3010   35.6310   22.3350 C.3   124  THR124      0.0378
     65  N         -2.0830   40.3170   24.8630 N.3   172  TYR172     -0.1241
     66  CA        -3.5400   40.3500   24.8790 C.3   172  TYR172      0.1605
     67  C         -3.9960   41.7780   25.1840 C.2   172  TYR172      0.2264
     68  O         -4.8010   42.3270   24.4490 O.2   172  TYR172     -0.2867
     69  CB        -4.1080   39.3630   25.8940 C.3   172  TYR172      0.0534
     70  CG        -5.5500   39.6440   26.2440 C.ar  172  TYR172     -0.0201
     71  CD1       -6.5740   39.3400   25.3550 C.ar  172  TYR172     -0.0009
     72  CD2       -5.8910   40.2520   27.4550 C.ar  172  TYR172     -0.0009
     73  CE1       -7.9010   39.6410   25.6510 C.ar  172  TYR172      0.0417
     74  CE2       -7.2230   40.5350   27.7720 C.ar  172  TYR172      0.0417
     75  CZ        -8.2190   40.2560   26.8510 C.ar  172  TYR172      0.1957
     76  OH        -9.5370   40.4560   27.1770 O.3   172  TYR172     -0.2866
     77  N         -6.6470   40.8770   31.9010 N.3   227  ARG227     -0.1245
     78  CA        -6.7770   39.5030   32.4030 C.3   227  ARG227      0.1563
     79  C         -7.7600   39.6000   33.5980 C.2   227  ARG227      0.2260
     80  O         -7.8430   40.6680   34.2300 O.2   227  ARG227     -0.2867
     81  CB        -5.4060   39.0080   32.9130 C.3   227  ARG227      0.0307
     82  CG        -4.3440   38.9230   31.8030 C.3   227  ARG227      0.0489
     83  CD        -2.9240   38.7110   32.2960 C.3   227  ARG227      0.2205
     84  NE        -2.7630   37.4890   33.0910 N.pl3 227  ARG227     -0.0865
     85  CZ        -2.1680   36.3760   32.6600 C.cat 227  ARG227      0.5346
     86  NH1       -2.0690   35.3180   33.4570 N.pl3 227  ARG227      0.1354
     87  NH2       -1.6890   36.3050   31.4220 N.pl3 227  ARG227      0.1354
     88  N        -13.3080   40.4990   27.2290 N.3   251  ASP251     -0.1225
     89  CA       -13.6590   39.1360   27.6530 C.3   251  ASP251      0.1805
     90  C        -12.8760   38.6050   28.8840 C.2   251  ASP251      0.2598
     91  O        -13.3170   37.6370   29.5090 O.2   251  ASP251     -0.2718
     92  CB       -13.5250   38.1830   26.4540 C.3   251  ASP251      0.1424
     93  CG       -12.0880   37.7700   26.1830 C.2   251  ASP251      0.3668
     94  OD1      -11.3170   38.6040   25.6650 O.co2 251  ASP251     -0.2456
     95  OD2      -11.7210   36.6460   26.5620 O.co2 251  ASP251     -0.2456
     96  N        -11.7170   39.2080   29.1650 N.am  252  GLY252     -0.1957
     97  CA       -10.8500   38.8890   30.2970 C.3   252  GLY252      0.1869
     98  C        -11.6270   38.9960   31.5880 C.2   252  GLY252      0.2309
     99  O        -11.6100   38.0700   32.4110 O.2   252  GLY252     -0.2863
    100  N        -16.8310   30.1490   28.2170 N.3   333  LYS333     -0.1245
    101  CA       -16.1140   29.5720   27.0690 C.3   333  LYS333      0.1561
    102  C        -16.1090   28.0430   27.0130 C.2   333  LYS333      0.2260
    103  O        -15.4050   27.4770   26.1710 O.2   333  LYS333     -0.2867
    104  CB       -14.6820   30.1260   26.9730 C.3   333  LYS333      0.0271
    105  CG       -14.6430   31.6170   26.6510 C.3   333  LYS333      0.0035
    106  CD       -13.2040   32.0570   26.3440 C.3   333  LYS333      0.0206
    107  CE       -13.0560   33.5320   26.0250 C.3   333  LYS333      0.1093
    108  NZ       -13.0910   34.3780   27.2490 N.3   333  LYS333     -0.1314
@<TRIPOS>BOND
     1    61    60    2
     2    60    59    1
     3    55    54    2
     4    59    62    1
     5    59    58    1
     6    62    64    1
     7    62    63    1
     8    54    58   am
     9    54    53    1
    10    56    53    1
    11    56    57    1
    12    53    52    1
    13    46    45    1
    14    52    49   am
    15    47    48    1
    16    44    43    2
    17    49    50    2
    18    49    48    1
    19    45    42    1
    20    68    67    2
    21    48    51    1
    22    42    43    1
    23    42    41    1
    24    65    66    1
    25    66    67    1
    26    66    69    1
    27    71    73   ar
    28    71    70   ar
    29    73    75   ar
    30    94    93   ar
    31    69    70    1
    32   107   106    1
    33   107   108    1
    34    41    31   am
    35   103   102    2
    36    93    92    1
    37    93    95   ar
    38    70    72   ar
    39   106   105    1
    40    32    31    2
    41    92    89    1
    42    26    25    2
    43   105   104    1
    44    31    30    1
    45    75    76    1
    46    75    74   ar
    47   104   101    1
    48   102   101    1
    49   101   100    1
    50    88    89    1
    51    25    24    1
    52    25    29   am
    53    72    74   ar
    54    23    24    1
    55    89    90    1
    56    24    27    1
    57    30    29    1
    58    30    33    1
    59    90    96   am
    60    90    91    2
    61    27    28    1
    62    96    97    1
    63    33    34    1
    64    22    20    1
    65    21    20    1
    66    20    19    2
    67    15    14    2
    68    19    18    1
    69    18    17    1
    70    97    98    1
    71    34    35   ar
    72    34    36   ar
    73    17    16    1
    74    16    13    1
    75    35    37   ar
    76    14    13    1
    77    13    12    1
    78    11     9    1
    79    87    85    1
    80    36    38   ar
    81    98    99    2
    82     9    10    1
    83     9     8    2
    84    82    83    1
    85    82    81    1
    86    77    78    1
    87     8     7    1
    88    37    39   ar
    89    83    84    1
    90    78    81    1
    91    78    79    1
    92     7     6    1
    93    85    84    2
    94    85    86    1
    95    38    39   ar
    96     4     3    2
    97    39    40    1
    98     6     5    1
    99     5     2    1
   100    79    80    2
   101     2     3    1
   102     2     1    1
