@<TRIPOS>MOLECULE
tmp/4xarA00.pdb
 121 115 0 0 0
SMALL
GASTEIGER

@<TRIPOS>ATOM
      1  N         47.1040  -34.4530   13.1400 N.3    17  PRO17      -0.2116
      2  CA        48.2750  -34.6210   14.0240 C.3    17  PRO17       0.1372
      3  C         47.8060  -34.7230   15.4590 C.2    17  PRO17       0.2244
      4  O         48.0020  -33.7890   16.2170 O.2    17  PRO17      -0.2868
      5  CB        49.0920  -33.3360   13.7820 C.3    17  PRO17       0.0268
      6  CG        48.0830  -32.2940   13.4190 C.3    17  PRO17       0.0207
      7  CD        46.9410  -33.0450   12.7170 C.3    17  PRO17       0.0892
      8  N         45.2680  -28.3500   17.5770 N.3    35  ARG35      -0.1245
      9  CA        45.4700  -28.6700   16.1560 C.3    35  ARG35       0.1563
     10  C         45.3010  -30.1590   15.8740 C.2    35  ARG35       0.2260
     11  O         45.1640  -30.5640   14.7230 O.2    35  ARG35      -0.2867
     12  CB        46.8070  -28.1100   15.6370 C.3    35  ARG35       0.0307
     13  CG        46.7600  -26.5810   15.5430 C.3    35  ARG35       0.0489
     14  CD        48.0180  -25.9600   14.9730 C.3    35  ARG35       0.2205
     15  NE        47.7590  -24.5910   14.5070 N.pl3  35  ARG35      -0.0865
     16  CZ        48.6670  -23.7800   13.9800 C.cat  35  ARG35       0.5346
     17  NH1       49.9260  -24.1770   13.8470 N.pl3  35  ARG35       0.1354
     18  NH2       48.3340  -22.5500   13.6180 N.pl3  35  ARG35       0.1354
     19  N         40.4580  -30.5670   15.7930 N.3    39  ARG39      -0.1245
     20  CA        40.3200  -30.7520   14.3380 C.3    39  ARG39       0.1563
     21  C         39.6920  -32.0710   14.0030 C.2    39  ARG39       0.2260
     22  O         38.7940  -32.1110   13.1580 O.2    39  ARG39      -0.2867
     23  CB        41.6640  -30.5810   13.6160 C.3    39  ARG39       0.0307
     24  CG        42.0780  -29.1120   13.5780 C.3    39  ARG39       0.0489
     25  CD        43.3140  -28.9300   12.7540 C.3    39  ARG39       0.2205
     26  NE        43.8580  -27.5800   12.8980 N.pl3  39  ARG39      -0.0865
     27  CZ        45.0180  -27.1940   12.3880 C.cat  39  ARG39       0.5346
     28  NH1       45.7900  -28.0620   11.7410 N.pl3  39  ARG39       0.1354
     29  NH2       45.4340  -25.9510   12.5490 N.pl3  39  ARG39       0.1354
     30  N         47.5020  -31.8960    8.0500 N.3    98  SER98      -0.1202
     31  CA        47.7940  -30.5430    8.5290 C.3    98  SER98       0.2020
     32  C         49.1470  -30.0670    7.9770 C.2    98  SER98       0.2619
     33  O         49.1660  -29.1780    7.1370 O.2    98  SER98      -0.2717
     34  CB        47.8550  -30.5200   10.0540 C.3    98  SER98       0.2103
     35  OG        46.5510  -30.6670   10.5790 O.3    98  SER98      -0.2182
     36  N         50.2700  -30.6680    8.4470 N.am   99  TYR99      -0.1961
     37  CA        51.6360  -30.3350    8.0090 C.3    99  TYR99       0.1771
     38  C         51.7590  -30.5960    6.5280 C.2    99  TYR99       0.2620
     39  O         51.2680  -31.6160    6.0730 O.2    99  TYR99      -0.2715
     40  CB        52.6860  -31.1710    8.7820 C.3    99  TYR99       0.0574
     41  CG        52.8270  -30.7190   10.2180 C.ar   99  TYR99      -0.0198
     42  CD1       53.4130  -29.4910   10.5270 C.ar   99  TYR99      -0.0009
     43  CD2       52.2220  -31.4250   11.2480 C.ar   99  TYR99      -0.0009
     44  CE1       53.4690  -29.0240   11.8370 C.ar   99  TYR99       0.0417
     45  CE2       52.2730  -30.9690   12.5670 C.ar   99  TYR99       0.0417
     46  CZ        52.9270  -29.7840   12.8610 C.ar   99  TYR99       0.1957
     47  OH        52.9800  -29.3320   14.1600 O.3    99  TYR99      -0.2866
     48  N         52.3760  -29.6700    5.7740 N.am  100  SER100     -0.1950
     49  CA        52.5310  -29.8460    4.3390 C.3   100  SER100      0.1924
     50  C         53.3490  -31.0940    3.9830 C.2   100  SER100      0.2314
     51  O         53.0210  -31.7250    2.9860 O.2   100  SER100     -0.2863
     52  CB        53.1510  -28.6110    3.6930 C.3   100  SER100      0.2116
     53  OG        52.3170  -27.4650    3.7320 O.3   100  SER100     -0.2180
     54  N         44.6620  -27.5770    6.1010 N.3   121  ALA121     -0.1231
     55  CA        45.7250  -26.7440    6.7130 C.3   121  ALA121      0.1694
     56  C         47.0550  -26.6640    5.9450 C.2   121  ALA121      0.2593
     57  O         47.8650  -25.7780    6.2550 O.2   121  ALA121     -0.2718
     58  CB        45.9980  -27.1930    8.1420 C.3   121  ALA121      0.0304
     59  N         47.3030  -27.5670    4.9760 N.am  122  SER122     -0.1938
     60  CA        48.5860  -27.5340    4.2510 C.3   122  SER122      0.2055
     61  C         48.6440  -26.4080    3.2490 C.2   122  SER122      0.2643
     62  O         47.9230  -26.4130    2.2630 O.2   122  SER122     -0.2714
     63  CB        48.8930  -28.8740    3.5840 C.3   122  SER122      0.2130
     64  OG        48.8770  -29.9060    4.5530 O.3   122  SER122     -0.2179
     65  N         49.5220  -25.4490    3.4960 N.am  123  THR123     -0.1950
     66  CA        49.6410  -24.2680    2.6440 C.3   123  THR123      0.1897
     67  C         50.8540  -24.2130    1.6930 C.2   123  THR123      0.2313
     68  O         51.0110  -23.1960    1.0110 O.2   123  THR123     -0.2863
     69  CB        49.6280  -23.0380    3.5350 C.3   123  THR123      0.1794
     70  OG1       50.6950  -23.1770    4.4670 O.3   123  THR123     -0.2208
     71  CG2       48.2720  -22.8470    4.2410 C.3   123  THR123      0.0378
     72  N         57.0160  -26.8230    4.1230 N.3   171  TYR171     -0.1241
     73  CA        56.3620  -25.5960    4.5180 C.3   171  TYR171      0.1605
     74  C         57.3230  -24.4210    4.5990 C.2   171  TYR171      0.2264
     75  O         57.1140  -23.4260    3.9080 O.2   171  TYR171     -0.2867
     76  CB        55.6080  -25.7940    5.8420 C.3   171  TYR171      0.0534
     77  CG        55.0600  -24.5110    6.4390 C.ar  171  TYR171     -0.0201
     78  CD1       54.0060  -23.8290    5.8310 C.ar  171  TYR171     -0.0009
     79  CD2       55.6070  -23.9730    7.6010 C.ar  171  TYR171     -0.0009
     80  CE1       53.4800  -22.6610    6.3920 C.ar  171  TYR171      0.0417
     81  CE2       55.0760  -22.8230    8.1860 C.ar  171  TYR171      0.0417
     82  CZ        54.0220  -22.1660    7.5710 C.ar  171  TYR171      0.1957
     83  OH        53.4690  -21.0930    8.1890 O.3   171  TYR171     -0.2866
     84  N         57.3070  -24.2640   11.6220 N.3   226  ARG226     -0.1231
     85  CA        56.4310  -25.1240   12.3430 C.3   226  ARG226      0.1694
     86  C         56.2970  -24.6550   13.7630 C.2   226  ARG226      0.2592
     87  O         57.1250  -23.9850   14.2990 O.2   226  ARG226     -0.2718
     88  CB        56.9540  -26.5480   12.3470 C.3   226  ARG226      0.0321
     89  CG        56.8070  -27.3210   11.0700 C.3   226  ARG226      0.0489
     90  CD        57.6310  -28.5750   11.1480 C.3   226  ARG226      0.2205
     91  NE        57.1200  -29.4840   12.1480 N.pl3 226  ARG226     -0.0865
     92  CZ        56.4910  -30.6040   11.8620 C.cat 226  ARG226      0.5346
     93  NH1       56.3350  -30.9580   10.5990 N.pl3 226  ARG226      0.1354
     94  NH2       56.0330  -31.3590   12.8260 N.pl3 226  ARG226      0.1354
     95  N         55.2180  -25.0800   14.3650 N.am  227  SER227     -0.1952
     96  CA        54.8990  -24.7610   15.7230 C.3   227  SER227      0.1924
     97  C         55.9090  -25.3390   16.6750 C.2   227  SER227      0.2314
     98  O         56.4260  -24.6490   17.5100 O.2   227  SER227     -0.2863
     99  CB        53.5180  -25.2860   16.0320 C.3   227  SER227      0.2116
    100  OG        53.3030  -25.3060   17.3950 O.3   227  SER227     -0.2180
    101  N         51.4790  -18.6540    9.5950 N.3   250  ASP250     -0.1225
    102  CA        50.4050  -19.4030   10.2810 C.3   250  ASP250      0.1805
    103  C         50.8800  -20.5850   11.1360 C.2   250  ASP250      0.2598
    104  O         50.0980  -21.0810   11.9430 O.2   250  ASP250     -0.2718
    105  CB        49.3320  -19.8650    9.2870 C.3   250  ASP250      0.1424
    106  CG        49.8520  -21.0180    8.4490 C.2   250  ASP250      0.3668
    107  OD1       50.8150  -20.8080    7.6940 O.co2 250  ASP250     -0.2456
    108  OD2       49.3920  -22.1420    8.6550 O.co2 250  ASP250     -0.2456
    109  N         52.1020  -21.0750   10.8950 N.am  251  GLY251     -0.1957
    110  CA        52.6880  -22.1640   11.6720 C.3   251  GLY251      0.1869
    111  C         52.6850  -21.8310   13.1560 C.2   251  GLY251      0.2309
    112  O         52.4580  -22.7000   13.9960 O.2   251  GLY251     -0.2863
    113  N         41.7320  -22.8240   12.4770 N.3   331  LYS331     -0.1245
    114  CA        41.4760  -23.5250   11.1890 C.3   331  LYS331      0.1561
    115  C         40.2940  -24.5380   11.1590 C.2   331  LYS331      0.2260
    116  O         40.1250  -25.2530   10.1610 O.2   331  LYS331     -0.2867
    117  CB        42.7690  -24.2160   10.7050 C.3   331  LYS331      0.0271
    118  CG        43.8820  -23.2340   10.3190 C.3   331  LYS331      0.0035
    119  CD        44.8890  -23.8740    9.3480 C.3   331  LYS331      0.0206
    120  CE        46.0770  -23.0040    8.9990 C.3   331  LYS331      0.1093
    121  NZ        47.0310  -22.8220   10.1370 N.3   331  LYS331     -0.1314
@<TRIPOS>BOND
     1    68    67    2
     2    67    66    1
     3    62    61    2
     4    66    65    1
     5    66    69    1
     6    51    50    2
     7    61    65   am
     8    61    60    1
     9    69    71    1
    10    69    70    1
    11    63    60    1
    12    63    64    1
    13    52    53    1
    14    52    49    1
    15    75    74    2
    16    50    49    1
    17    72    73    1
    18    60    59    1
    19    49    48    1
    20    73    74    1
    21    73    76    1
    22    59    56   am
    23    48    38   am
    24    78    80   ar
    25    78    77   ar
    26    76    77    1
    27    56    57    2
    28    56    55    1
    29    39    38    2
    30    54    55    1
    31    80    82   ar
    32    77    79   ar
    33    38    37    1
    34    55    58    1
    35    33    32    2
    36    82    81   ar
    37    82    83    1
    38    79    81   ar
    39   107   106   ar
    40    32    36   am
    41    32    31    1
    42    37    36    1
    43    37    40    1
    44    30    31    1
    45   106   108   ar
    46   106   105    1
    47    31    34    1
    48    40    41    1
    49   120   119    1
    50   120   121    1
    51   105   102    1
    52   119   118    1
    53   101   102    1
    54    34    35    1
    55   116   115    2
    56    41    42   ar
    57    41    43   ar
    58   102   103    1
    59   118   117    1
    60    42    44   ar
    61    93    92    1
    62   117   114    1
    63   109   103   am
    64   109   110    1
    65    89    90    1
    66    89    88    1
    67   103   104    2
    68    90    91    1
    69   115   114    1
    70   114   113    1
    71    43    45   ar
    72    84    85    1
    73   110   111    1
    74    28    27    1
    75    44    46   ar
    76    92    91    2
    77    92    94    1
    78    85    88    1
    79    85    86    1
    80    27    29    1
    81    27    26    2
    82    45    46   ar
    83     7     1    1
    84     7     6    1
    85    25    26    1
    86    25    24    1
    87    46    47    1
    88     1     2    1
    89   111   112    2
    90    22    21    2
    91     6     5    1
    92    24    23    1
    93    23    20    1
    94    18    16    1
    95    86    87    2
    96    86    95   am
    97     5     2    1
    98    17    16    1
    99    16    15    2
   100    21    20    1
   101     2     3    1
   102    20    19    1
   103    95    96    1
   104    15    14    1
   105    11    10    2
   106    14    13    1
   107     3     4    2
   108    13    12    1
   109    12     9    1
   110    96    99    1
   111    96    97    1
   112    10     9    1
   113    99   100    1
   114     9     8    1
   115    97    98    2
