@<TRIPOS>MOLECULE
tmp/4xasA00.pdb
 115 108 0 0 0
SMALL
GASTEIGER

@<TRIPOS>ATOM
      1  N        -22.2940   24.4890  -32.5020 N.3    35  ARG35      -0.1245
      2  CA       -23.1890   24.4440  -31.3630 C.3    35  ARG35       0.1563
      3  C        -24.1720   23.2660  -31.4350 C.2    35  ARG35       0.2260
      4  O        -24.9460   23.0730  -30.4970 O.2    35  ARG35      -0.2867
      5  CB       -23.8850   25.8090  -31.2000 C.3    35  ARG35       0.0307
      6  CG       -22.9120   26.8690  -30.6850 C.3    35  ARG35       0.0489
      7  CD       -23.5340   28.2250  -30.4490 C.3    35  ARG35       0.2205
      8  NE       -22.5780   29.0540  -29.7270 N.pl3  35  ARG35      -0.0865
      9  CZ       -22.7340   30.3410  -29.4620 C.cat  35  ARG35       0.5346
     10  NH1      -23.8110   30.9790  -29.8800 N.pl3  35  ARG35       0.1354
     11  NH2      -21.8100   31.0020  -28.7820 N.pl3  35  ARG35       0.1354
     12  N        -21.4220   19.6900  -29.8810 N.3    39  ARG39      -0.1245
     13  CA       -22.1050   19.5970  -28.5940 C.3    39  ARG39       0.1563
     14  C        -22.7380   18.2300  -28.4210 C.2    39  ARG39       0.2260
     15  O        -22.5440   17.6180  -27.3820 O.2    39  ARG39      -0.2867
     16  CB       -23.0890   20.7520  -28.3740 C.3    39  ARG39       0.0307
     17  CG       -22.3730   22.0460  -28.0440 C.3    39  ARG39       0.0489
     18  CD       -23.3430   23.1340  -27.6310 C.3    39  ARG39       0.2205
     19  NE       -22.6510   24.4070  -27.4740 N.pl3  39  ARG39      -0.0865
     20  CZ       -23.2590   25.5790  -27.3260 C.cat  39  ARG39       0.5346
     21  NH1      -24.5780   25.6550  -27.3390 N.pl3  39  ARG39       0.1354
     22  NH2      -22.5510   26.6820  -27.1700 N.pl3  39  ARG39       0.1354
     23  N        -30.0990   24.0270  -25.5160 N.3    97  SER97      -0.1202
     24  CA       -29.0680   25.0520  -25.6900 C.3    97  SER97       0.2020
     25  C        -29.7180   26.4070  -25.4380 C.2    97  SER97       0.2619
     26  O        -29.3870   27.0980  -24.4920 O.2    97  SER97      -0.2717
     27  CB       -28.5020   25.0150  -27.1180 C.3    97  SER97       0.2103
     28  OG       -27.2260   24.4120  -27.2010 O.3    97  SER97      -0.2182
     29  N        -30.6370   26.7680  -26.3200 N.am   98  TYR98      -0.1961
     30  CA       -31.3970   28.0010  -26.3250 C.3    98  TYR98       0.1771
     31  C        -32.2640   28.0740  -25.0920 C.2    98  TYR98       0.2620
     32  O        -32.8920   27.0820  -24.7180 O.2    98  TYR98      -0.2715
     33  CB       -32.2420   28.0650  -27.6080 C.3    98  TYR98       0.0574
     34  CG       -31.4040   28.2590  -28.8580 C.ar   98  TYR98      -0.0198
     35  CD1      -30.8470   27.1720  -29.5240 C.ar   98  TYR98      -0.0009
     36  CD2      -31.1760   29.5330  -29.3810 C.ar   98  TYR98      -0.0009
     37  CE1      -30.0870   27.3430  -30.6790 C.ar   98  TYR98       0.0417
     38  CE2      -30.4350   29.7140  -30.5470 C.ar   98  TYR98       0.0417
     39  CZ       -29.8870   28.6160  -31.1900 C.ar   98  TYR98       0.1957
     40  OH       -29.1360   28.7880  -32.3350 O.3    98  TYR98      -0.2866
     41  N        -32.2440   29.2280  -24.4280 N.am   99  SER99      -0.1950
     42  CA       -32.9800   29.4290  -23.1820 C.3    99  SER99       0.1924
     43  C        -34.4870   29.2350  -23.3330 C.2    99  SER99       0.2314
     44  O        -35.0980   28.5740  -22.4810 O.2    99  SER99      -0.2863
     45  CB       -32.6380   30.7810  -22.5560 C.3    99  SER99       0.2116
     46  OG       -31.4880   30.6430  -21.7390 O.3    99  SER99      -0.2180
     47  N        -25.8800   25.4070  -21.5050 N.3   120  ALA120     -0.1245
     48  CA       -25.8100   26.6680  -22.2840 C.3   120  ALA120      0.1562
     49  C        -26.8630   27.7220  -21.9930 C.2   120  ALA120      0.2260
     50  O        -26.6770   28.8930  -22.3720 O.2   120  ALA120     -0.2867
     51  CB       -25.8530   26.3490  -23.7750 C.3   120  ALA120      0.0290
     52  N        -28.5440   30.4360  -20.3550 N.3   122  THR122     -0.1218
     53  CA       -28.1210   31.4950  -19.4280 C.3   122  THR122      0.1862
     54  C        -29.2130   32.4220  -18.8980 C.2   122  THR122      0.2287
     55  O        -28.9070   33.2520  -18.0250 O.2   122  THR122     -0.2866
     56  CB       -27.0160   32.3440  -20.0280 C.3   122  THR122      0.1770
     57  OG1      -27.4400   32.7870  -21.3030 O.3   122  THR122     -0.2211
     58  CG2      -25.6390   31.6380  -20.0730 C.3   122  THR122      0.0375
     59  N        -33.9940   35.1880  -23.5770 N.3   170  TYR170     -0.1241
     60  CA       -32.5580   35.4510  -23.4740 C.3   170  TYR170      0.1605
     61  C        -32.2550   36.9390  -23.8050 C.2   170  TYR170      0.2264
     62  O        -31.5230   37.6150  -23.0810 O.2   170  TYR170     -0.2867
     63  CB       -31.7870   34.5340  -24.4100 C.3   170  TYR170      0.0534
     64  CG       -30.3310   34.9160  -24.5680 C.ar  170  TYR170     -0.0201
     65  CD1      -29.3930   34.5910  -23.5880 C.ar  170  TYR170     -0.0009
     66  CD2      -29.8890   35.5990  -25.7000 C.ar  170  TYR170     -0.0009
     67  CE1      -28.0540   34.9640  -23.7170 C.ar  170  TYR170      0.0417
     68  CE2      -28.5430   35.9260  -25.8670 C.ar  170  TYR170      0.0417
     69  CZ       -27.6330   35.6080  -24.8690 C.ar  170  TYR170      0.1957
     70  OH       -26.3180   35.8950  -25.0240 O.3   170  TYR170     -0.2866
     71  N        -28.1950   38.9080  -28.4390 N.3   224  THR224     -0.1203
     72  CA       -28.8310   38.2740  -29.5880 C.3   224  THR224      0.1994
     73  C        -28.4310   36.8120  -29.7590 C.2   224  THR224      0.2618
     74  O        -27.4440   36.3640  -29.1930 O.2   224  THR224     -0.2717
     75  CB       -28.6300   39.0800  -30.9170 C.3   224  THR224      0.1784
     76  OG1      -27.2850   39.0270  -31.3320 O.3   224  THR224     -0.2211
     77  CG2      -29.0900   40.5160  -30.8400 C.3   224  THR224      0.0376
     78  N        -29.2200   36.0860  -30.5500 N.am  225  ARG225     -0.1965
     79  CA       -28.9660   34.7310  -30.9910 C.3   225  ARG225      0.1729
     80  C        -27.8390   34.8620  -32.0290 C.2   225  ARG225      0.2616
     81  O        -27.6500   35.9520  -32.5700 O.2   225  ARG225     -0.2715
     82  CB       -30.2420   34.1380  -31.6230 C.3   225  ARG225      0.0348
     83  CG       -31.4420   34.0680  -30.6520 C.3   225  ARG225      0.0492
     84  CD       -32.7410   33.6690  -31.3260 C.3   225  ARG225      0.2205
     85  NE       -32.6410   32.3800  -32.0160 N.pl3 225  ARG225     -0.0865
     86  CZ       -33.4310   31.3310  -31.7930 C.cat 225  ARG225      0.5346
     87  NH1      -33.2580   30.2080  -32.4730 N.pl3 225  ARG225      0.1354
     88  NH2      -34.4010   31.3980  -30.8870 N.pl3 225  ARG225      0.1354
     89  N        -27.0850   33.7890  -32.2910 N.am  226  SER226     -0.1950
     90  CA       -25.9460   33.8050  -33.2340 C.3   226  SER226      0.1924
     91  C        -26.3510   34.3420  -34.5870 C.2   226  SER226      0.2314
     92  O        -25.8530   35.3840  -35.0180 O.2   226  SER226     -0.2863
     93  CB       -25.3200   32.4210  -33.3660 C.3   226  SER226      0.2116
     94  OG       -26.2250   31.4630  -33.8880 O.3   226  SER226     -0.2180
     95  N        -22.7580   36.2350  -24.9420 N.3   249  ASP249     -0.1225
     96  CA       -22.2780   34.9110  -25.3620 C.3   249  ASP249      0.1805
     97  C        -22.9470   34.3870  -26.6350 C.2   249  ASP249      0.2598
     98  O        -22.3850   33.5170  -27.2750 O.2   249  ASP249     -0.2718
     99  CB       -22.3770   33.8850  -24.2270 C.3   249  ASP249      0.1424
    100  CG       -23.7920   33.4550  -23.9630 C.2   249  ASP249      0.3668
    101  OD1      -24.6010   34.3120  -23.5970 O.co2 249  ASP249     -0.2456
    102  OD2      -24.1110   32.2740  -24.2220 O.co2 249  ASP249     -0.2456
    103  N        -24.1330   34.8730  -26.9720 N.am  250  GLY250     -0.1957
    104  CA       -24.8120   34.4830  -28.2110 C.3   250  GLY250      0.1869
    105  C        -23.8710   34.5610  -29.4110 C.2   250  GLY250      0.2309
    106  O        -23.7010   33.5820  -30.1390 O.2   250  GLY250     -0.2863
    107  N        -18.4260   26.0980  -25.4140 N.3   331  LYS331     -0.1245
    108  CA       -19.2160   25.4840  -24.3220 C.3   331  LYS331      0.1561
    109  C        -19.0660   23.9620  -24.2000 C.2   331  LYS331      0.2260
    110  O        -19.7720   23.3630  -23.3890 O.2   331  LYS331     -0.2867
    111  CB       -20.7040   25.8770  -24.4220 C.3   331  LYS331      0.0271
    112  CG       -20.9520   27.3570  -24.1190 C.3   331  LYS331      0.0035
    113  CD       -22.4460   27.6170  -23.9080 C.3   331  LYS331      0.0206
    114  CE       -22.8200   29.0420  -23.5980 C.3   331  LYS331      0.1093
    115  NZ       -22.3770   29.9890  -24.6430 N.3   331  LYS331     -0.1314
@<TRIPOS>BOND
     1    92    91    2
     2    91    90    1
     3    94    93    1
     4    93    90    1
     5    90    89    1
     6    81    80    2
     7     1     2    1
     8    87    86    1
     9    40    39    1
    10    89    80   am
    11    80    79    1
    12    85    86    2
    13    85    84    1
    14    86    88    1
    15    82    79    1
    16    82    83    1
    17     3     2    1
    18     3     4    2
    19     2     5    1
    20    76    75    1
    21    84    83    1
    22     5     6    1
    23    39    37   ar
    24    39    38   ar
    25    79    78    1
    26    75    77    1
    27    75    72    1
    28     6     7    1
    29    37    35   ar
    30    78    73   am
    31    38    36   ar
    32     7     8    1
    33   106   105    2
    34    12    13    1
    35    10     9    1
    36    73    72    1
    37    73    74    2
    38     8     9    2
    39    72    71    1
    40    35    34   ar
    41     9    11    1
    42   105   104    1
    43    36    34   ar
    44    34    33    1
    45    13    14    1
    46    13    16    1
    47    14    15    2
    48    16    17    1
    49   104   103    1
    50    17    18    1
    51    18    19    1
    52    33    30    1
    53    19    20    2
    54    21    20    1
    55    20    22    1
    56    98    97    2
    57    28    27    1
    58    27    24    1
    59   103    97   am
    60    97    96    1
    61    30    29    1
    62    30    31    1
    63    29    25   am
    64    68    66   ar
    65    68    69   ar
    66    66    64   ar
    67    24    23    1
    68    24    25    1
    69    25    26    2
    70   107   108    1
    71    96    95    1
    72    96    99    1
    73    31    32    2
    74    31    41   am
    75    70    69    1
    76    69    67   ar
    77   115   114    1
    78    64    63    1
    79    64    65   ar
    80    41    42    1
    81   111   108    1
    82   111   112    1
    83    63    60    1
    84   108   109    1
    85    99   100    1
    86   102   100   ar
    87   109   110    2
    88   112   113    1
    89   100   101   ar
    90   113   114    1
    91    61    60    1
    92    61    62    2
    93    51    48    1
    94    67    65   ar
    95    59    60    1
    96    43    42    1
    97    43    44    2
    98    42    45    1
    99    45    46    1
   100    50    49    2
   101    48    49    1
   102    48    47    1
   103    57    56    1
   104    52    53    1
   105    58    56    1
   106    56    53    1
   107    53    54    1
   108    54    55    2
