@<TRIPOS>MOLECULE
tmp/4xauC00.pdb
 128 120 0 0 0
SMALL
GASTEIGER

@<TRIPOS>ATOM
      1  N        -38.2180  -56.9270  -27.0110 N.3    58  SER58      -0.1202
      2  CA       -38.3500  -56.0650  -25.8720 C.3    58  SER58       0.2020
      3  C        -37.1160  -55.2330  -25.8070 C.2    58  SER58       0.2619
      4  O        -36.0820  -55.6630  -26.2610 O.2    58  SER58      -0.2717
      5  CB       -38.4850  -56.8870  -24.5930 C.3    58  SER58       0.2103
      6  OG       -37.2570  -57.5270  -24.2740 O.3    58  SER58      -0.2182
      7  N        -37.1950  -54.0840  -25.1690 N.am   59  GLY59      -0.1942
      8  CA       -36.0530  -53.2130  -25.0270 C.3    59  GLY59       0.2014
      9  C        -34.8970  -53.8990  -24.3500 C.2    59  GLY59       0.2639
     10  O        -33.7510  -53.5940  -24.6020 O.2    59  GLY59      -0.2714
     11  N        -35.2090  -54.7900  -23.4240 N.am   60  THR60      -0.1950
     12  CA       -34.1860  -55.5070  -22.6980 C.3    60  THR60       0.1897
     13  C        -33.4380  -56.3850  -23.6540 C.2    60  THR60       0.2313
     14  O        -32.2230  -56.4600  -23.5950 O.2    60  THR60      -0.2863
     15  CB       -34.7790  -56.3200  -21.5670 C.3    60  THR60       0.1794
     16  OG1      -35.5880  -55.4570  -20.7660 O.3    60  THR60      -0.2208
     17  CG2      -33.6850  -56.9260  -20.7190 C.3    60  THR60       0.0378
     18  N        -31.0850  -54.4900  -25.6540 N.3    63  LEU63      -0.1245
     19  CA       -29.8630  -54.2350  -24.8930 C.3    63  LEU63       0.1561
     20  C        -28.9400  -55.4310  -24.8520 C.2    63  LEU63       0.2260
     21  O        -27.7430  -55.2900  -24.9790 O.2    63  LEU63      -0.2867
     22  CB       -30.2010  -53.8070  -23.4620 C.3    63  LEU63       0.0270
     23  CG       -30.5150  -52.3570  -23.1160 C.3    63  LEU63       0.0019
     24  CD1      -31.1830  -52.3070  -21.7880 C.3    63  LEU63       0.0001
     25  CD2      -29.2150  -51.6420  -22.9950 C.3    63  LEU63       0.0001
     26  N        -33.6600  -48.1810  -14.5950 N.3    86  PHE86      -0.1241
     27  CA       -34.4860  -49.3530  -14.4070 C.3    86  PHE86       0.1605
     28  C        -33.5470  -50.5380  -14.3600 C.2    86  PHE86       0.2264
     29  O        -32.4340  -50.4480  -14.7930 O.2    86  PHE86      -0.2867
     30  CB       -35.5440  -49.5010  -15.4850 C.3    86  PHE86       0.0534
     31  CG       -36.3800  -50.7190  -15.3200 C.ar   86  PHE86      -0.0203
     32  CD1      -36.9970  -50.9850  -14.1290 C.ar   86  PHE86      -0.0042
     33  CD2      -36.5530  -51.5940  -16.3500 C.ar   86  PHE86      -0.0042
     34  CE1      -37.7550  -52.1050  -13.9690 C.ar   86  PHE86      -0.0003
     35  CE2      -37.3160  -52.7140  -16.1930 C.ar   86  PHE86      -0.0003
     36  CZ       -37.9160  -52.9670  -15.0020 C.ar   86  PHE86      -0.0000
     37  N        -33.3370  -53.3220  -15.7260 N.3    88  ALA88      -0.1231
     38  CA       -33.0660  -54.0000  -16.9830 C.3    88  ALA88       0.1694
     39  C        -31.7420  -53.5560  -17.5350 C.2    88  ALA88       0.2592
     40  O        -30.9320  -54.3610  -17.9400 O.2    88  ALA88      -0.2718
     41  CB       -34.1430  -53.7210  -17.9350 C.3    88  ALA88       0.0304
     42  N        -31.5080  -52.2610  -17.4850 N.am   89  THR89      -0.1953
     43  CA       -30.2870  -51.6640  -17.9730 C.3    89  THR89       0.1897
     44  C        -29.0410  -52.2860  -17.3990 C.2    89  THR89       0.2313
     45  O        -28.0420  -52.3950  -18.0780 O.2    89  THR89      -0.2863
     46  CB       -30.2750  -50.1990  -17.6490 C.3    89  THR89       0.1794
     47  OG1      -31.4810  -49.6240  -18.1520 O.3    89  THR89      -0.2208
     48  CG2      -29.0980  -49.5130  -18.2670 C.3    89  THR89       0.0378
     49  N        -28.1610  -43.6000  -19.9330 N.3   131  VAL131     -0.1245
     50  CA       -29.6030  -43.6880  -19.8700 C.3   131  VAL131      0.1561
     51  C        -30.2180  -42.3120  -19.9040 C.2   131  VAL131      0.2260
     52  O        -29.9830  -41.5070  -19.0390 O.2   131  VAL131     -0.2867
     53  CB       -30.0510  -44.4100  -18.6100 C.3   131  VAL131      0.0252
     54  CG1      -31.5290  -44.5920  -18.6290 C.3   131  VAL131      0.0019
     55  CG2      -29.3700  -45.7410  -18.4910 C.3   131  VAL131      0.0019
     56  N        -32.5180  -40.8260  -18.8260 N.3   133  TRP133     -0.1241
     57  CA       -33.4170  -41.1380  -17.7230 C.3   133  TRP133      0.1605
     58  C        -34.6410  -40.2380  -17.6400 C.2   133  TRP133      0.2264
     59  O        -34.5390  -39.0280  -17.6690 O.2   133  TRP133     -0.2867
     60  CB       -32.6290  -41.0850  -16.4290 C.3   133  TRP133      0.0550
     61  CG       -33.3660  -41.6250  -15.2840 C.ar  133  TRP133      0.0003
     62  CD1      -33.6380  -40.9850  -14.1310 C.ar  133  TRP133      0.0946
     63  CD2      -33.9310  -42.9340  -15.1630 C.ar  133  TRP133      0.0152
     64  NE1      -34.3520  -41.7910  -13.3120 N.ar  133  TRP133     -0.2442
     65  CE2      -34.5410  -43.0020  -13.9170 C.ar  133  TRP133      0.0810
     66  CE3      -33.9850  -44.0520  -15.9990 C.ar  133  TRP133      0.0012
     67  CZ2      -35.1990  -44.1320  -13.4730 C.ar  133  TRP133      0.0191
     68  CZ3      -34.6370  -45.1800  -15.5430 C.ar  133  TRP133      0.0001
     69  CH2      -35.2330  -45.2060  -14.2940 C.ar  133  TRP133      0.0015
     70  N        -29.5920  -46.0410  -23.7550 N.3   163  ASP163     -0.1239
     71  CA       -30.8600  -46.6330  -23.3630 C.3   163  ASP163      0.1674
     72  C        -31.9240  -45.5800  -23.4870 C.2   163  ASP163      0.2266
     73  O        -32.0180  -44.7060  -22.6550 O.2   163  ASP163     -0.2867
     74  CB       -30.8370  -47.1730  -21.9480 C.3   163  ASP163      0.1410
     75  CG       -32.1270  -47.8900  -21.5800 C.2   163  ASP163      0.3668
     76  OD1      -33.1850  -47.5800  -22.1620 O.co2 163  ASP163     -0.2456
     77  OD2      -32.0910  -48.7650  -20.6970 O.co2 163  ASP163     -0.2456
     78  N        -35.2140  -45.9240  -23.4920 N.3   165  ALA165     -0.1231
     79  CA       -36.5100  -46.4540  -23.0860 C.3   165  ALA165      0.1694
     80  C        -37.4900  -45.3780  -22.6480 C.2   165  ALA165      0.2592
     81  O        -38.6830  -45.4910  -22.8720 O.2   165  ALA165     -0.2718
     82  CB       -36.3360  -47.4320  -22.0510 C.3   165  ALA165      0.0304
     83  N        -37.0030  -44.3520  -21.9720 N.am  166  HIS166     -0.1976
     84  CA       -37.8930  -43.2870  -21.5470 C.3   166  HIS166      0.1656
     85  C        -37.9570  -42.1500  -22.5620 C.2   166  HIS166      0.2291
     86  O        -38.7310  -41.2180  -22.3950 O.2   166  HIS166     -0.2864
     87  CB       -37.4600  -42.7560  -20.1960 C.3   166  HIS166      0.0771
     88  CG       -37.5970  -43.7530  -19.0890 C.ar  166  HIS166      0.0820
     89  ND1      -37.1910  -43.4990  -17.8000 N.ar  166  HIS166     -0.2267
     90  CD2      -38.1100  -45.0030  -19.0770 C.ar  166  HIS166      0.1154
     91  CE1      -37.4360  -44.5540  -17.0510 C.ar  166  HIS166      0.1986
     92  NE2      -37.9950  -45.4810  -17.8010 N.ar  166  HIS166     -0.2212
     93  N        -37.7640  -48.5530  -26.2430 N.3   187  SER187     -0.1217
     94  CA       -38.6590  -49.5150  -25.6380 C.3   187  SER187      0.1889
     95  C        -40.0720  -49.2230  -25.9860 C.2   187  SER187      0.2288
     96  O        -40.4630  -48.0730  -26.0920 O.2   187  SER187     -0.2866
     97  CB       -38.5220  -49.5420  -24.1400 C.3   187  SER187      0.2089
     98  OG       -39.4980  -50.4140  -23.6270 O.3   187  SER187     -0.2183
     99  N        -42.5410  -51.1600  -24.4690 N.3   189  GLN189     -0.1245
    100  CA       -43.2490  -51.8000  -23.3620 C.3   189  GLN189      0.1566
    101  C        -44.5390  -51.0660  -23.0530 C.2   189  GLN189      0.2260
    102  O        -44.6380  -49.8920  -23.3430 O.2   189  GLN189     -0.2867
    103  CB       -42.3300  -51.8380  -22.1430 C.3   189  GLN189      0.0367
    104  CG       -42.8170  -52.6810  -21.0010 C.3   189  GLN189      0.0905
    105  CD       -43.6440  -51.9060  -20.0000 C.2   189  GLN189      0.2608
    106  OE1      -43.4470  -50.7210  -19.7910 O.2   189  GLN189     -0.2717
    107  NE2      -44.6030  -52.5730  -19.4090 N.am  189  GLN189     -0.0878
    108  N        -44.7130  -47.5000  -21.8970 N.3   192  LYS192     -0.1245
    109  CA       -43.9130  -46.5390  -22.6210 C.3   192  LYS192      0.1561
    110  C        -44.7540  -45.7660  -23.6000 C.2   192  LYS192      0.2260
    111  O        -45.9000  -46.1160  -23.8420 O.2   192  LYS192     -0.2867
    112  CB       -42.7630  -47.2250  -23.3170 C.3   192  LYS192      0.0271
    113  CG       -41.5020  -47.3100  -22.5080 C.3   192  LYS192      0.0035
    114  CD       -41.7440  -47.9600  -21.1990 C.3   192  LYS192      0.0206
    115  CE       -40.4830  -48.1390  -20.3970 C.3   192  LYS192      0.1093
    116  NZ       -40.7690  -49.0830  -19.2810 N.3   192  LYS192     -0.1314
    117  N        -45.5180  -55.2010  -26.1100 N.3   198  ASP198     -0.1225
    118  CA       -44.1260  -55.3290  -25.7330 C.3   198  ASP198      0.1805
    119  C        -43.2420  -55.3390  -26.9690 C.2   198  ASP198      0.2598
    120  O        -43.5960  -55.9170  -27.9820 O.2   198  ASP198     -0.2718
    121  CB       -43.9220  -56.5830  -24.9230 C.3   198  ASP198      0.1424
    122  CG       -43.0540  -56.3570  -23.7510 C.2   198  ASP198      0.3668
    123  OD1      -42.1000  -55.5600  -23.8780 O.co2 198  ASP198     -0.2456
    124  OD2      -43.3320  -56.9770  -22.7070 O.co2 198  ASP198     -0.2456
    125  N        -42.0710  -54.7360  -26.8740 N.am  199  GLY199     -0.1957
    126  CA       -41.2510  -54.5490  -28.0490 C.3   199  GLY199      0.1869
    127  C        -40.1070  -53.6110  -27.7840 C.2   199  GLY199      0.2309
    128  O        -40.0030  -53.0620  -26.7130 O.2   199  GLY199     -0.2863
@<TRIPOS>BOND
     1   126   127    1
     2   126   125    1
     3   120   119    2
     4   127   128    2
     5     1     2    1
     6   119   125   am
     7   119   118    1
     8     4     3    2
     9    93    94    1
    10   117   118    1
    11    96    95    2
    12    95    94    1
    13     2     3    1
    14     2     5    1
    15     3     7   am
    16   118   121    1
    17    18    19    1
    18    94    97    1
    19     7     8    1
    20     8     9    1
    21    21    20    2
    22   121   122    1
    23    19    20    1
    24    19    22    1
    25    10     9    2
    26     5     6    1
    27    99   100    1
    28     9    11   am
    29    97    98    1
    30   123   122   ar
    31   111   110    2
    32    70    71    1
    33   122   124   ar
    34    13    14    2
    35    13    12    1
    36   110   109    1
    37    78    79    1
    38    72    71    1
    39    72    73    2
    40    22    23    1
    41    11    12    1
    42    71    74    1
    43   100   101    1
    44   100   103    1
    45   102   101    2
    46   112   109    1
    47   112   113    1
    48    23    25    1
    49    23    24    1
    50    79    80    1
    51    79    82    1
    52    81    80    2
    53    12    15    1
    54    80    83   am
    55   109   108    1
    56    85    86    2
    57    85    84    1
    58   113   114    1
    59    76    75   ar
    60   103   104    1
    61    83    84    1
    62    74    75    1
    63    75    77   ar
    64    15    16    1
    65    15    17    1
    66    84    87    1
    67   114   115    1
    68   104   105    1
    69   115   116    1
    70    87    88    1
    71   105   106    2
    72   105   107   am
    73    49    50    1
    74    51    50    1
    75    51    52    2
    76    50    53    1
    77    88    90   ar
    78    88    89   ar
    79    90    92   ar
    80    56    57    1
    81    54    53    1
    82    53    55    1
    83    48    46    1
    84    47    46    1
    85    45    44    2
    86    43    46    1
    87    43    42    1
    88    43    44    1
    89    40    39    2
    90    41    38    1
    91    92    91   ar
    92    89    91   ar
    93    57    58    1
    94    57    60    1
    95    59    58    2
    96    39    42   am
    97    39    38    1
    98    38    37    1
    99    60    61    1
   100    33    35   ar
   101    33    31   ar
   102    35    36   ar
   103    66    68   ar
   104    66    63   ar
   105    68    69   ar
   106    30    31    1
   107    30    27    1
   108    31    32   ar
   109    61    63   ar
   110    61    62   ar
   111    63    65   ar
   112    36    34   ar
   113    29    28    2
   114    26    27    1
   115    27    28    1
   116    69    67   ar
   117    62    64   ar
   118    32    34   ar
   119    65    67   ar
   120    65    64   ar
