@<TRIPOS>MOLECULE
tmp/4xb1A01.pdb
 117 106 0 0 0
SMALL
GASTEIGER

@<TRIPOS>ATOM
      1  N         27.9160   37.8520   -1.2710 N.3   116  LYS116     -0.1245
      2  CA        26.7090   37.7100   -2.0900 C.3   116  LYS116      0.1561
      3  C         26.1700   36.2670   -2.2590 C.2   116  LYS116      0.2260
      4  O         24.9460   36.0510   -2.1830 O.2   116  LYS116     -0.2867
      5  CB        26.9980   38.2610   -3.5250 C.3   116  LYS116      0.0271
      6  CG        27.2270   39.7370   -3.6040 C.3   116  LYS116      0.0035
      7  CD        28.3550   40.2060   -4.5830 C.3   116  LYS116      0.0206
      8  CE        28.8590   41.5540   -4.0160 C.3   116  LYS116      0.1093
      9  NZ        29.8990   42.2000   -4.8820 N.3   116  LYS116     -0.1314
     10  N         25.7530   43.6130    0.0340 N.3   142  THR142     -0.1218
     11  CA        25.7560   42.6800   -1.0830 C.3   142  THR142      0.1862
     12  C         25.2350   43.3040   -2.3940 C.2   142  THR142      0.2287
     13  O         25.4200   42.7170   -3.4330 O.2   142  THR142     -0.2866
     14  CB        24.8680   41.5180   -0.8380 C.3   142  THR142      0.1770
     15  OG1       23.5140   41.9660   -0.6240 O.3   142  THR142     -0.2211
     16  CG2       25.3860   40.7490    0.3100 C.3   142  THR142      0.0375
     17  N         26.5610   48.0880   -2.6260 N.3   145  ALA145     -0.1245
     18  CA        27.4080   48.3900   -1.4960 C.3   145  ALA145      0.1562
     19  C         26.7040   49.2000   -0.4060 C.2   145  ALA145      0.2260
     20  O         25.6740   48.8270    0.0610 O.2   145  ALA145     -0.2867
     21  CB        28.7050   49.0240   -1.9540 C.3   145  ALA145      0.0290
     22  N         24.6840   47.7730  -11.6050 N.3   169  VAL169     -0.1231
     23  CA        25.2740   47.4620  -10.3060 C.3   169  VAL169      0.1692
     24  C         26.7560   46.9450  -10.3590 C.2   169  VAL169      0.2592
     25  O         27.2960   46.4940   -9.3690 O.2   169  VAL169     -0.2718
     26  CB        24.4010   46.4600   -9.5310 C.3   169  VAL169      0.0266
     27  CG1       23.0450   47.0400   -9.2490 C.3   169  VAL169      0.0020
     28  CG2       24.2690   45.1640  -10.2610 C.3   169  VAL169      0.0020
     29  N         27.4130   47.0770  -11.4970 N.am  170  ASN170     -0.1960
     30  CA        28.7510   46.5580  -11.6450 C.3   170  ASN170      0.1819
     31  C         29.6790   47.5350  -12.3030 C.2   170  ASN170      0.2621
     32  O         29.7220   47.5890  -13.5360 O.2   170  ASN170     -0.2715
     33  CB        28.7060   45.2680  -12.4410 C.3   170  ASN170      0.1195
     34  CG        30.0660   44.6680  -12.5900 C.2   170  ASN170      0.2630
     35  OD1       30.8460   45.0520  -13.4880 O.2   170  ASN170     -0.2716
     36  ND2       30.4050   43.7570  -11.6710 N.am  170  ASN170     -0.0877
     37  N         30.3930   48.3270  -11.4880 N.am  171  ALA171     -0.1963
     38  CA        31.2930   49.3830  -11.9880 C.3   171  ALA171      0.1728
     39  C         32.4570   48.9110  -12.9070 C.2   171  ALA171      0.2616
     40  O         32.9400   49.6740  -13.7780 O.2   171  ALA171     -0.2715
     41  CB        31.9060   50.1440  -10.8230 C.3   171  ALA171      0.0334
     42  N         32.9260   47.7020  -12.6550 N.am  172  SER172     -0.1950
     43  CA        33.9820   47.0960  -13.4590 C.3   172  SER172      0.1924
     44  C         33.6120   47.0470  -14.9140 C.2   172  SER172      0.2314
     45  O         34.3740   47.5100  -15.7290 O.2   172  SER172     -0.2863
     46  CB        34.2570   45.6920  -12.9800 C.3   172  SER172      0.2116
     47  OG        34.8100   45.8150  -11.6740 O.3   172  SER172     -0.2180
     48  N         39.9500   41.0170  -11.5730 N.3   200  GLU200     -0.1245
     49  CA        40.8900   39.9830  -11.1460 C.3   200  GLU200      0.1567
     50  C         41.5900   39.2920  -12.3490 C.2   200  GLU200      0.2260
     51  O         41.3230   39.6390  -13.5090 O.2   200  GLU200     -0.2867
     52  CB        40.1440   38.9860  -10.2580 C.3   200  GLU200      0.0388
     53  CG        39.6880   39.6540   -8.9710 C.3   200  GLU200      0.1160
     54  CD        38.9770   38.6820   -8.0730 C.2   200  GLU200      0.3649
     55  OE1       39.5060   38.4250   -6.9720 O.co2 200  GLU200     -0.2457
     56  OE2       37.9130   38.1560   -8.4830 O.co2 200  GLU200     -0.2457
     57  N         33.6960   36.8910  -13.4060 N.3   205  LYS205     -0.1231
     58  CA        32.5540   37.2460  -12.5660 C.3   205  LYS205      0.1693
     59  C         31.9320   38.5980  -12.9010 C.2   205  LYS205      0.2592
     60  O         30.7240   38.7260  -12.9580 O.2   205  LYS205     -0.2718
     61  CB        32.9020   37.1340  -11.0910 C.3   205  LYS205      0.0285
     62  CG        32.8360   35.6860  -10.5880 C.3   205  LYS205      0.0035
     63  CD        33.6030   35.4370   -9.2880 C.3   205  LYS205      0.0206
     64  CE        33.2210   36.4280   -8.1930 C.3   205  LYS205      0.1093
     65  NZ        33.9370   36.1200   -6.9200 N.3   205  LYS205     -0.1314
     66  N         32.7800   39.5780  -13.1440 N.am  206  ASP206     -0.1974
     67  CA        32.3860   40.8380  -13.6890 C.3   206  ASP206      0.1709
     68  C         31.9720   40.7980  -15.1980 C.2   206  ASP206      0.2293
     69  O         30.8940   41.2620  -15.5810 O.2   206  ASP206     -0.2864
     70  CB        33.5220   41.8180  -13.4480 C.3   206  ASP206      0.1436
     71  CG        33.7660   42.0650  -11.9830 C.2   206  ASP206      0.3671
     72  OD1       32.7880   42.2300  -11.2510 O.co2 206  ASP206     -0.2456
     73  OD2       34.9190   42.1120  -11.5280 O.co2 206  ASP206     -0.2456
     74  N         28.3550   38.5550  -11.2240 N.3   211  ASP211     -0.1239
     75  CA        28.2100   39.4160  -10.0490 C.3   211  ASP211      0.1674
     76  C         26.8550   40.0960  -10.1330 C.2   211  ASP211      0.2266
     77  O         26.0880   40.1050   -9.1930 O.2   211  ASP211     -0.2867
     78  CB        29.3590   40.4400  -10.0250 C.3   211  ASP211      0.1410
     79  CG        29.1540   41.5120   -9.0470 C.2   211  ASP211      0.3668
     80  OD1       29.2700   41.1500   -7.8710 O.co2 211  ASP211     -0.2456
     81  OD2       28.8520   42.7030   -9.4560 O.co2 211  ASP211     -0.2456
     82  N         23.4500   39.8140   -7.7010 N.3   215  LYS215     -0.1245
     83  CA        22.8070   40.9920   -7.1990 C.3   215  LYS215      0.1561
     84  C         21.3220   41.0730   -7.6070 C.2   215  LYS215      0.2260
     85  O         20.4760   41.3240   -6.7920 O.2   215  LYS215     -0.2867
     86  CB        23.5840   42.1980   -7.6280 C.3   215  LYS215      0.0271
     87  CG        24.9410   42.2520   -6.9580 C.3   215  LYS215      0.0035
     88  CD        25.7430   43.4120   -7.4670 C.3   215  LYS215      0.0206
     89  CE        27.0870   43.4830   -6.8080 C.3   215  LYS215      0.1093
     90  NZ        28.0000   44.4950   -7.4610 N.3   215  LYS215     -0.1314
     91  N         26.6410   53.3660   -9.0070 N.3   276  ASN276     -0.1240
     92  CA        25.5120   52.4780   -9.3530 C.3   276  ASN276      0.1653
     93  C         24.1510   53.1940   -9.3790 C.2   276  ASN276      0.2266
     94  O         23.9830   54.2640   -8.8190 O.2   276  ASN276     -0.2867
     95  CB        25.3920   51.3210   -8.3810 C.3   276  ASN276      0.1155
     96  CG        26.5440   50.3720   -8.4030 C.2   276  ASN276      0.2627
     97  OD1       27.5270   50.4940   -9.1960 O.2   276  ASN276     -0.2716
     98  ND2       26.3950   49.3270   -7.6050 N.am  276  ASN276     -0.0877
     99  N         29.0110   52.1710   -5.5840 N.3   294  GLY294     -0.1210
    100  CA        28.7360   50.7450   -5.5830 C.3   294  GLY294      0.1956
    101  C         29.8740   49.8300   -5.1120 C.2   294  GLY294      0.2612
    102  O         29.7910   48.5890   -5.2320 O.2   294  GLY294     -0.2717
    103  N         30.9380   50.4450   -4.6040 N.am  295  GLY295     -0.1942
    104  CA        32.1860   49.7380   -4.2950 C.3   295  GLY295      0.2014
    105  C         33.1550   50.6550   -3.5420 C.2   295  GLY295      0.2639
    106  O         32.9370   51.8600   -3.4580 O.2   295  GLY295     -0.2714
    107  N         34.2610   50.0940   -3.0510 N.am  296  GLY296     -0.1954
    108  CA        35.2220   50.8600   -2.2510 C.3   296  GLY296      0.1869
    109  C         35.1260   50.2950   -0.8190 C.2   296  GLY296      0.2309
    110  O         34.0670   49.7770   -0.3900 O.2   296  GLY296     -0.2863
    111  N         31.6370   50.2440    1.1500 N.3   300  THR300     -0.1218
    112  CA        31.0440   48.9690    1.5060 C.3   300  THR300      0.1862
    113  C         30.9570   48.7650    3.0280 C.2   300  THR300      0.2287
    114  O         29.9450   48.2570    3.5510 O.2   300  THR300     -0.2866
    115  CB        31.8430   47.8800    0.8830 C.3   300  THR300      0.1770
    116  OG1       31.9960   48.1860   -0.4940 O.3   300  THR300     -0.2211
    117  CG2       31.2480   46.5150    1.0760 C.3   300  THR300      0.0375
@<TRIPOS>BOND
     1    45    44    2
     2    69    68    2
     3    68    67    1
     4    44    43    1
     5    40    39    2
     6    67    70    1
     7    67    66    1
     8    32    31    2
     9    51    50    2
    10    35    34    2
    11    43    46    1
    12    43    42    1
    13    70    71    1
    14    57    58    1
    15    66    59   am
    16    46    47    1
    17    60    59    2
    18    39    42   am
    19    39    38    1
    20    59    58    1
    21    34    33    1
    22    34    36   am
    23    58    61    1
    24    33    30    1
    25    50    49    1
    26    31    30    1
    27    31    37   am
    28    38    37    1
    29    38    41    1
    30    71    73   ar
    31    71    72   ar
    32    30    29    1
    33    22    23    1
    34    48    49    1
    35    29    24   am
    36    74    75    1
    37    49    52    1
    38    61    62    1
    39    62    63    1
    40    24    23    1
    41    24    25    2
    42    23    26    1
    43    28    26    1
    44    52    53    1
    45    76    75    1
    46    76    77    2
    47    75    78    1
    48    78    79    1
    49    26    27    1
    50    81    79   ar
    51    93    92    1
    52    93    94    2
    53    92    91    1
    54    92    95    1
    55    63    64    1
    56    97    96    2
    57    79    80   ar
    58    53    54    1
    59    56    54   ar
    60    96    95    1
    61    96    98   am
    62    64    65    1
    63    54    55   ar
    64    82    83    1
    65    86    83    1
    66    86    87    1
    67    84    83    1
    68    84    85    2
    69    88    87    1
    70    88    89    1
    71    90    89    1
    72    99   100    1
    73   100   101    1
    74   102   101    2
    75   101   103   am
    76     9     8    1
    77   103   104    1
    78     7     8    1
    79     7     6    1
    80   104   105    1
    81     6     5    1
    82   105   106    2
    83   105   107   am
    84     5     2    1
    85    13    12    2
    86   107   108    1
    87    17    18    1
    88    12    11    1
    89     3     4    2
    90     3     2    1
    91   108   109    1
    92     2     1    1
    93    21    18    1
    94    18    19    1
    95    11    14    1
    96    11    10    1
    97    14    15    1
    98    14    16    1
    99   109   110    2
   100   116   115    1
   101    19    20    2
   102   115   117    1
   103   115   112    1
   104   111   112    1
   105   112   113    1
   106   113   114    2
