@<TRIPOS>MOLECULE
tmp/4xb1B02.pdb
 113 105 0 0 0
SMALL
GASTEIGER

@<TRIPOS>ATOM
      1  N         25.9810   67.5060    3.8440 N.3   164  ARG164     -0.1245
      2  CA        24.9190   68.3570    3.3870 C.3   164  ARG164      0.1563
      3  C         23.8470   67.5700    2.7000 C.2   164  ARG164      0.2260
      4  O         24.0790   66.4090    2.2770 O.2   164  ARG164     -0.2867
      5  CB        25.4810   69.4120    2.4260 C.3   164  ARG164      0.0307
      6  CG        26.2930   68.8480    1.2680 C.3   164  ARG164      0.0489
      7  CD        26.9740   69.9650    0.4490 C.3   164  ARG164      0.2205
      8  NE        26.0100   70.7550   -0.3380 N.pl3 164  ARG164     -0.0865
      9  CZ        26.3170   71.9050   -0.9660 C.cat 164  ARG164      0.5346
     10  NH1       25.3620   72.5580   -1.6150 N.pl3 164  ARG164      0.1354
     11  NH2       27.5870   72.4290   -0.9380 N.pl3 164  ARG164      0.1354
     12  N         20.9550   68.6100   -0.4780 N.3   166  ASP166     -0.1239
     13  CA        20.3470   69.5630   -1.3440 C.3   166  ASP166      0.1674
     14  C         19.1420   68.9130   -1.9740 C.2   166  ASP166      0.2266
     15  O         19.2360   67.8260   -2.5410 O.2   166  ASP166     -0.2867
     16  CB        21.3550   69.9780   -2.4300 C.3   166  ASP166      0.1410
     17  CG        22.5940   70.6490   -1.8470 C.2   166  ASP166      0.3668
     18  OD1       23.5100   69.9920   -1.3370 O.co2 166  ASP166     -0.2456
     19  OD2       22.6420   71.8670   -1.8790 O.co2 166  ASP166     -0.2456
     20  N         15.5250   75.4410   -4.3160 N.3   248  VAL248     -0.1245
     21  CA        16.4180   74.4520   -3.7350 C.3   248  VAL248      0.1561
     22  C         16.5930   74.6960   -2.2650 C.2   248  VAL248      0.2260
     23  O         16.8840   75.8290   -1.8410 O.2   248  VAL248     -0.2867
     24  CB        17.8440   74.5180   -4.3710 C.3   248  VAL248      0.0252
     25  CG1       18.8410   73.7170   -3.5690 C.3   248  VAL248      0.0019
     26  CG2       17.8080   73.9640   -5.7900 C.3   248  VAL248      0.0019
     27  N         18.8790   73.8410    0.9220 N.3   250  GLN250     -0.1245
     28  CA        20.2550   73.4840    1.1350 C.3   250  GLN250      0.1566
     29  C         20.4570   73.3470    2.6390 C.2   250  GLN250      0.2260
     30  O         20.3540   74.2820    3.3690 O.2   250  GLN250     -0.2867
     31  CB        21.1620   74.5350    0.5430 C.3   250  GLN250      0.0367
     32  CG        22.6450   74.2270    0.7370 C.3   250  GLN250      0.0905
     33  CD        23.5400   75.4860    0.5540 C.2   250  GLN250      0.2608
     34  OE1       23.8820   75.8440   -0.5640 O.2   250  GLN250     -0.2717
     35  NE2       23.8810   76.1630    1.6680 N.am  250  GLN250     -0.0878
     36  N         17.8910   78.4340   -7.2470 N.3   261  ARG261     -0.1231
     37  CA        19.3080   78.1470   -7.5930 C.3   261  ARG261      0.1694
     38  C         19.2920   77.6130   -8.9880 C.2   261  ARG261      0.2592
     39  O         18.2750   77.0340   -9.4070 O.2   261  ARG261     -0.2718
     40  CB        19.9780   77.1630   -6.6000 C.3   261  ARG261      0.0321
     41  CG        20.2620   77.7450   -5.2160 C.3   261  ARG261      0.0489
     42  CD        20.9390   76.7720   -4.2390 C.3   261  ARG261      0.2205
     43  NE        21.4540   77.4480   -3.0420 N.pl3 261  ARG261     -0.0865
     44  CZ        20.8180   77.5940   -1.8810 C.cat 261  ARG261      0.5346
     45  NH1       21.4270   78.2320   -0.8810 N.pl3 261  ARG261      0.1354
     46  NH2       19.5880   77.0920   -1.6810 N.pl3 261  ARG261      0.1354
     47  N         20.3590   77.9410   -9.7350 N.am  262  LYS262     -0.1966
     48  CA        20.5450   77.5400  -11.1140 C.3   262  LYS262      0.1728
     49  C         21.2230   76.1990  -11.1290 C.2   262  LYS262      0.2616
     50  O         22.2270   75.9670  -10.4170 O.2   262  LYS262     -0.2715
     51  CB        21.4810   78.5610  -11.8940 C.3   262  LYS262      0.0311
     52  CG        20.9430   79.0490  -13.2370 C.3   262  LYS262      0.0038
     53  CD        21.5900   78.3900  -14.4570 C.3   262  LYS262      0.0206
     54  CE        20.9490   78.7990  -15.7970 C.3   262  LYS262      0.1093
     55  NZ        20.0670   80.0080  -15.7180 N.3   262  LYS262     -0.1314
     56  N         20.7760   75.3810  -12.0570 N.am  263  LEU263     -0.1977
     57  CA        21.2210   74.0580  -12.2130 C.3   263  LEU263      0.1596
     58  C         21.6430   73.7620  -13.6590 C.2   263  LEU263      0.2287
     59  O         20.8860   74.0720  -14.5590 O.2   263  LEU263     -0.2864
     60  CB        20.0200   73.1720  -11.9330 C.3   263  LEU263      0.0297
     61  CG        19.6900   72.6030  -10.5520 C.3   263  LEU263      0.0022
     62  CD1       20.4050   73.2430   -9.3780 C.3   263  LEU263      0.0001
     63  CD2       18.1760   72.4780  -10.3270 C.3   263  LEU263      0.0001
     64  N         22.0770   68.0980  -13.6880 N.3   267  ASN267     -0.1226
     65  CA        21.9780   67.9700  -12.2500 C.3   267  ASN267      0.1770
     66  C         20.7360   67.1330  -11.8130 C.2   267  ASN267      0.2439
     67  O         19.6240   67.3600  -12.2970 O.2   267  ASN267     -0.2733
     68  CB        21.9040   69.3310  -11.6280 C.3   267  ASN267      0.1168
     69  CG        22.1730   69.3030  -10.1250 C.2   267  ASN267      0.2627
     70  OD1       21.3570   68.7940   -9.3590 O.2   267  ASN267     -0.2716
     71  ND2       23.2890   69.9000   -9.6940 N.am  267  ASN267     -0.0877
     72  N         20.9070   66.1970  -10.8850 N.am  268  PRO268     -0.2718
     73  CA        19.7650   65.3410  -10.5230 C.3   268  PRO268      0.1535
     74  C         18.6370   66.0900   -9.9300 C.2   268  PRO268      0.2598
     75  O         17.5730   65.5630   -9.8750 O.2   268  PRO268     -0.2715
     76  CB        20.3240   64.4540   -9.4140 C.3   268  PRO268      0.0310
     77  CG        21.6830   64.8950   -9.1700 C.3   268  PRO268      0.0237
     78  CD        22.1570   65.6550  -10.3560 C.3   268  PRO268      0.0939
     79  N         18.8850   67.2900   -9.4300 N.am  269  LEU269     -0.1978
     80  CA        17.8380   68.0960   -8.8540 C.3   269  LEU269      0.1596
     81  C         16.9820   68.8520   -9.8930 C.2   269  LEU269      0.2287
     82  O         16.0340   69.5550   -9.5100 O.2   269  LEU269     -0.2864
     83  CB        18.4140   69.1080   -7.8530 C.3   269  LEU269      0.0297
     84  CG        19.1350   68.5740   -6.6490 C.3   269  LEU269      0.0022
     85  CD1       19.5890   69.7380   -5.7870 C.3   269  LEU269      0.0001
     86  CD2       18.2910   67.6490   -5.7640 C.3   269  LEU269      0.0001
     87  N         19.9710   65.1460   -2.9420 N.3   279  VAL279     -0.1245
     88  CA        21.3410   64.7120   -2.9360 C.3   279  VAL279      0.1561
     89  C         21.8470   64.8150   -1.5180 C.2   279  VAL279      0.2260
     90  O         21.8890   65.9100   -0.9400 O.2   279  VAL279     -0.2867
     91  CB        22.1930   65.6120   -3.8670 C.3   279  VAL279      0.0252
     92  CG1       23.6100   65.0790   -3.9250 C.3   279  VAL279      0.0019
     93  CG2       21.5950   65.6030   -5.2970 C.3   279  VAL279      0.0019
     94  N         25.0790   64.1820    0.8490 N.3   281  ARG281     -0.1245
     95  CA        26.5370   63.9430    0.6960 C.3   281  ARG281      0.1563
     96  C         27.0120   63.5600    2.0760 C.2   281  ARG281      0.2260
     97  O         26.7410   64.3040    3.0750 O.2   281  ARG281     -0.2867
     98  CB        27.2900   65.2010    0.1920 C.3   281  ARG281      0.0307
     99  CG        28.8280   65.1030    0.1650 C.3   281  ARG281      0.0489
    100  CD        29.4530   66.4500   -0.3060 C.3   281  ARG281      0.2205
    101  NE        29.1530   66.6210   -1.7210 N.pl3 281  ARG281     -0.0865
    102  CZ        30.0410   66.5590   -2.7010 C.cat 281  ARG281      0.5346
    103  NH1       31.3270   66.4480   -2.4350 N.pl3 281  ARG281      0.1354
    104  NH2       29.6380   66.6490   -3.9610 N.pl3 281  ARG281      0.1354
    105  N         28.0170   61.5380   -2.5800 N.3   287  GLU287     -0.1245
    106  CA        26.6580   61.8590   -2.9170 C.3   287  GLU287      0.1567
    107  C         25.8430   60.5950   -3.1050 C.2   287  GLU287      0.2260
    108  O         26.1940   59.6900   -3.8400 O.2   287  GLU287     -0.2867
    109  CB        26.5890   62.6710   -4.1960 C.3   287  GLU287      0.0388
    110  CG        27.1740   64.0790   -4.0610 C.3   287  GLU287      0.1160
    111  CD        26.8840   64.9420   -5.3020 C.2   287  GLU287      0.3649
    112  OE1       26.6000   64.3940   -6.3870 O.co2 287  GLU287     -0.2457
    113  OE2       26.9210   66.1550   -5.1680 O.co2 287  GLU287     -0.2457
@<TRIPOS>BOND
     1    54    55    1
     2    54    53    1
     3    59    58    2
     4    53    52    1
     5    64    65    1
     6    58    57    1
     7    52    51    1
     8    67    66    2
     9    65    66    1
    10    65    68    1
    11    57    56    1
    12    57    60    1
    13    56    49   am
    14    60    61    1
    15    51    48    1
    16    66    72   am
    17    68    69    1
    18    49    48    1
    19    49    50    2
    20    48    47    1
    21    72    73    1
    22    72    78    1
    23    61    63    1
    24    61    62    1
    25    73    74    1
    26    73    76    1
    27    78    77    1
    28    69    71   am
    29    69    70    2
    30    74    75    2
    31    74    79   am
    32    81    82    2
    33    81    80    1
    34    47    38   am
    35    79    80    1
    36    76    77    1
    37    39    38    2
    38    38    37    1
    39    80    83    1
    40    83    84    1
    41    37    36    1
    42    37    40    1
    43    84    85    1
    44    84    86    1
    45    40    41    1
    46   112   111   ar
    47    26    24    1
    48   111   113   ar
    49   111   110    1
    50    93    91    1
    51    41    42    1
    52    24    21    1
    53    24    25    1
    54    20    21    1
    55    42    43    1
    56   109   110    1
    57   109   106    1
    58   104   102    1
    59    92    91    1
    60    91    88    1
    61   108   107    2
    62    21    22    1
    63   107   106    1
    64    43    44    2
    65    87    88    1
    66    88    89    1
    67   106   105    1
    68   102   103    1
    69   102   101    2
    70    15    14    2
    71    16    17    1
    72    16    13    1
    73    22    23    2
    74    14    13    1
    75    44    46    1
    76    44    45    1
    77    19    17   ar
    78    17    18   ar
    79   101   100    1
    80    10     9    1
    81    89    90    2
    82    13    12    1
    83     9    11    1
    84     9     8    2
    85    34    33    2
    86     8     7    1
    87   100    99    1
    88    99    98    1
    89    98    95    1
    90     7     6    1
    91    31    32    1
    92    31    28    1
    93    33    32    1
    94    33    35   am
    95    95    94    1
    96    95    96    1
    97    27    28    1
    98    28    29    1
    99     6     5    1
   100    96    97    2
   101     4     3    2
   102     5     2    1
   103    29    30    2
   104     3     2    1
   105     2     1    1
