@<TRIPOS>MOLECULE
tmp/4xb2B01.pdb
 103 93 0 0 0
SMALL
GASTEIGER

@<TRIPOS>ATOM
      1  N        -35.2140   -1.6920  -23.5870 N.3   116  LYS116     -0.1245
      2  CA       -34.2590   -0.5870  -23.7200 C.3   116  LYS116      0.1561
      3  C        -34.5410    0.7330  -22.9330 C.2   116  LYS116      0.2260
      4  O        -33.6560    1.2470  -22.2230 O.2   116  LYS116     -0.2867
      5  CB       -34.0880   -0.2750  -25.1870 C.3   116  LYS116      0.0271
      6  CG       -33.4250   -1.3690  -25.9940 C.3   116  LYS116      0.0035
      7  CD       -33.4660   -0.9890  -27.4830 C.3   116  LYS116      0.0206
      8  CE       -34.6690   -1.6060  -28.2120 C.3   116  LYS116      0.1093
      9  NZ       -34.5840   -3.1040  -28.1690 N.3   116  LYS116     -0.1314
     10  N        -28.9130   -7.7910  -23.6460 N.3   141  SER141     -0.1217
     11  CA       -29.7720   -7.9980  -24.8140 C.3   141  SER141      0.1889
     12  C        -30.5200   -6.7210  -25.2520 C.2   141  SER141      0.2288
     13  O        -31.2900   -6.7540  -26.2000 O.2   141  SER141     -0.2866
     14  CB       -30.7450   -9.1540  -24.5660 C.3   141  SER141      0.2089
     15  OG       -30.1830  -10.4560  -24.7870 O.3   141  SER141     -0.2183
     16  N        -28.8040   -7.9240  -29.0900 N.3   145  ALA145     -0.1245
     17  CA       -29.2640   -9.0870  -28.3840 C.3   145  ALA145      0.1562
     18  C        -28.1820   -9.8710  -27.6200 C.2   145  ALA145      0.2260
     19  O        -27.4550   -9.3320  -26.8340 O.2   145  ALA145     -0.2867
     20  CB       -30.1290   -9.9580  -29.2750 C.3   145  ALA145      0.0290
     21  N        -27.5490   -2.2090  -36.2280 N.3   169  VAL169     -0.1231
     22  CA       -28.3000   -2.9110  -35.2650 C.3   169  VAL169      0.1692
     23  C        -29.7660   -3.2280  -35.6590 C.2   169  VAL169      0.2592
     24  O        -30.5020   -3.8190  -34.8370 O.2   169  VAL169     -0.2718
     25  CB       -28.2840   -2.1300  -33.9380 C.3   169  VAL169      0.0266
     26  CG1      -26.8730   -1.9980  -33.3560 C.3   169  VAL169      0.0020
     27  CG2      -28.9060   -0.7780  -34.1100 C.3   169  VAL169      0.0020
     28  N        -30.1790   -2.8760  -36.8920 N.am  170  ASN170     -0.1960
     29  CA       -31.5070   -3.2460  -37.3990 C.3   170  ASN170      0.1819
     30  C        -31.4760   -3.9970  -38.6940 C.2   170  ASN170      0.2621
     31  O        -31.3000   -3.4350  -39.7800 O.2   170  ASN170     -0.2715
     32  CB       -32.3750   -2.0070  -37.6210 C.3   170  ASN170      0.1195
     33  CG       -32.3220   -1.0770  -36.4560 C.2   170  ASN170      0.2630
     34  OD1      -31.7280   -0.0030  -36.5320 O.2   170  ASN170     -0.2716
     35  ND2      -32.8830   -1.5070  -35.3580 N.am  170  ASN170     -0.0877
     36  N        -31.6930   -5.2850  -38.5770 N.am  171  ALA171     -0.1963
     37  CA       -31.6650   -6.1620  -39.7240 C.3   171  ALA171      0.1728
     38  C        -32.7030   -5.7450  -40.7480 C.2   171  ALA171      0.2616
     39  O        -32.4870   -5.8510  -41.9300 O.2   171  ALA171     -0.2715
     40  CB       -31.8900   -7.6030  -39.2530 C.3   171  ALA171      0.0334
     41  N        -33.8470   -5.3000  -40.2940 N.am  172  SER172     -0.1950
     42  CA       -34.9290   -4.9450  -41.1880 C.3   172  SER172      0.1924
     43  C        -34.4860   -3.8630  -42.1550 C.2   172  SER172      0.2314
     44  O        -34.8440   -3.9000  -43.3270 O.2   172  SER172     -0.2863
     45  CB       -36.1520   -4.4680  -40.4030 C.3   172  SER172      0.2116
     46  OG       -35.8520   -3.5010  -39.3730 O.3   172  SER172     -0.2180
     47  N        -40.0280    2.2680  -35.5240 N.3   205  LYS205     -0.1231
     48  CA       -38.8180    1.9540  -34.7640 C.3   205  LYS205      0.1693
     49  C        -37.6160    1.5330  -35.5910 C.2   205  LYS205      0.2592
     50  O        -36.4870    1.7400  -35.1710 O.2   205  LYS205     -0.2718
     51  CB       -39.1120    0.8730  -33.7490 C.3   205  LYS205      0.0285
     52  CG       -40.0670    1.3850  -32.6930 C.3   205  LYS205      0.0035
     53  CD       -40.5950    0.2300  -31.8810 C.3   205  LYS205      0.0206
     54  CE       -40.9790    0.7010  -30.4900 C.3   205  LYS205      0.1093
     55  NZ       -41.1610   -0.5390  -29.6860 N.3   205  LYS205     -0.1314
     56  N        -37.8520    0.9360  -36.7600 N.am  206  ASP206     -0.1974
     57  CA       -36.7850    0.6570  -37.6950 C.3   206  ASP206      0.1709
     58  C        -36.5950    1.7690  -38.6870 C.2   206  ASP206      0.2293
     59  O        -35.5020    2.2910  -38.8290 O.2   206  ASP206     -0.2864
     60  CB       -37.0430   -0.6550  -38.4050 C.3   206  ASP206      0.1436
     61  CG       -37.0790   -1.8240  -37.4330 C.2   206  ASP206      0.3671
     62  OD1      -36.0440   -2.1500  -36.8040 O.co2 206  ASP206     -0.2456
     63  OD2      -38.1450   -2.4040  -37.2780 O.co2 206  ASP206     -0.2456
     64  N        -35.3590    2.5580  -32.6570 N.3   211  ASP211     -0.1239
     65  CA       -34.6640    1.4390  -31.9810 C.3   211  ASP211      0.1674
     66  C        -33.1430    1.7110  -31.9050 C.2   211  ASP211      0.2266
     67  O        -32.5640    1.6410  -30.8430 O.2   211  ASP211     -0.2867
     68  CB       -34.9670    0.1350  -32.6820 C.3   211  ASP211      0.1410
     69  CG       -34.1850   -1.0540  -32.1480 C.2   211  ASP211      0.3668
     70  OD1      -34.6770   -1.7470  -31.2090 O.co2 211  ASP211     -0.2456
     71  OD2      -33.1440   -1.3960  -32.7420 O.co2 211  ASP211     -0.2456
     72  N        -30.4940    2.2370  -28.6930 N.3   215  LYS215     -0.1245
     73  CA       -29.2990    1.4150  -28.5570 C.3   215  LYS215      0.1561
     74  C        -28.0320    2.2530  -28.5510 C.2   215  LYS215      0.2260
     75  O        -27.1640    1.9960  -27.7500 O.2   215  LYS215     -0.2867
     76  CB       -29.2620    0.3480  -29.6380 C.3   215  LYS215      0.0271
     77  CG       -30.3890   -0.6560  -29.4680 C.3   215  LYS215      0.0035
     78  CD       -30.4090   -1.5880  -30.6390 C.3   215  LYS215      0.0206
     79  CE       -31.3120   -2.7610  -30.3640 C.3   215  LYS215      0.1093
     80  NZ       -31.8410   -3.4060  -31.5870 N.3   215  LYS215     -0.1314
     81  N        -25.9480   -8.2550  -37.5350 N.3   276  ASN276     -0.1240
     82  CA       -25.5880   -7.0360  -36.8730 C.3   276  ASN276      0.1653
     83  C        -24.0800   -6.9540  -36.7230 C.2   276  ASN276      0.2266
     84  O        -23.3880   -7.9650  -36.7050 O.2   276  ASN276     -0.2867
     85  CB       -26.1530   -6.9820  -35.4430 C.3   276  ASN276      0.1155
     86  CG       -27.6210   -6.7080  -35.3860 C.2   276  ASN276      0.2627
     87  OD1      -28.1400   -6.1790  -34.3880 O.2   276  ASN276     -0.2716
     88  ND2      -28.3130   -7.0760  -36.4330 N.am  276  ASN276     -0.0877
     89  N        -28.9380  -10.1620  -34.2070 N.3   294  GLY294     -0.1210
     90  CA       -29.4930   -9.0430  -33.4380 C.3   294  GLY294      0.1956
     91  C        -30.8950   -9.1710  -32.8480 C.2   294  GLY294      0.2612
     92  O        -31.4030   -8.2560  -32.1210 O.2   294  GLY294     -0.2717
     93  N        -31.5010  -10.3180  -33.1350 N.am  295  GLY295     -0.1956
     94  CA       -32.8490  -10.6240  -32.6700 C.3   295  GLY295      0.1869
     95  C        -33.1940  -12.1050  -32.7770 C.2   295  GLY295      0.2309
     96  O        -32.4090  -12.8960  -33.2940 O.2   295  GLY295     -0.2863
     97  N        -31.9780  -13.6690  -28.1060 N.3   300  THR300     -0.1218
     98  CA       -32.1430  -12.6500  -27.0740 C.3   300  THR300      0.1862
     99  C        -32.0900  -13.2440  -25.6890 C.2   300  THR300      0.2287
    100  O        -31.4900  -12.6880  -24.7780 O.2   300  THR300     -0.2866
    101  CB       -33.5130  -11.9490  -27.2540 C.3   300  THR300      0.1770
    102  OG1      -33.6110  -11.4810  -28.5850 O.3   300  THR300     -0.2211
    103  CG2      -33.7000  -10.7800  -26.3020 C.3   300  THR300      0.0375
@<TRIPOS>BOND
     1    44    43    2
     2    43    42    1
     3    39    38    2
     4    42    45    1
     5    42    41    1
     6    38    41   am
     7    38    37    1
     8    45    46    1
     9    31    30    2
    10    37    40    1
    11    37    36    1
    12    59    58    2
    13    30    36   am
    14    30    29    1
    15    58    57    1
    16    60    57    1
    17    60    61    1
    18    57    56    1
    19    32    29    1
    20    32    33    1
    21    81    82    1
    22    61    63   ar
    23    61    62   ar
    24    29    28    1
    25    28    23   am
    26    82    83    1
    27    82    85    1
    28    56    49   am
    29    83    84    2
    30    34    33    2
    31    33    35   am
    32    88    86   am
    33    21    22    1
    34    23    22    1
    35    23    24    2
    36    49    50    2
    37    49    48    1
    38    47    48    1
    39    85    86    1
    40    86    87    2
    41    22    25    1
    42    48    51    1
    43    89    90    1
    44    27    25    1
    45    25    26    1
    46    51    52    1
    47    90    91    1
    48    96    95    2
    49    93    91   am
    50    93    94    1
    51    91    92    2
    52    95    94    1
    53    71    69   ar
    54    52    53    1
    55    68    69    1
    56    68    65    1
    57    64    65    1
    58    69    70   ar
    59    65    66    1
    60    66    67    2
    61    53    54    1
    62    80    79    1
    63    78    79    1
    64    78    77    1
    65    54    55    1
    66    76    77    1
    67    76    73    1
    68    20    17    1
    69    16    17    1
    70    72    73    1
    71   102   101    1
    72    73    74    1
    73    74    75    2
    74    17    18    1
    75     8     9    1
    76     8     7    1
    77    97    98    1
    78    18    19    2
    79     7     6    1
    80   101    98    1
    81   101   103    1
    82    98    99    1
    83    13    12    2
    84     6     5    1
    85    99   100    2
    86    12    11    1
    87     5     2    1
    88    11    14    1
    89    11    10    1
    90    15    14    1
    91     2     1    1
    92     2     3    1
    93     3     4    2
