@<TRIPOS>MOLECULE
tmp/4xb2B00.pdb
 191 184 0 0 0
SMALL
GASTEIGER

@<TRIPOS>ATOM
      1  N        -40.4920  -11.0150  -15.7060 N.3     8  PHE8       -0.1227
      2  CA       -41.5390  -10.0290  -15.9670 C.3     8  PHE8        0.1736
      3  C        -41.6660   -9.8130  -17.4690 C.2     8  PHE8        0.2596
      4  O        -40.7730   -9.2810  -18.1080 O.2     8  PHE8       -0.2718
      5  CB       -41.2420   -8.7300  -15.2300 C.3     8  PHE8        0.0547
      6  CG       -42.2370   -7.6580  -15.4810 C.ar    8  PHE8       -0.0202
      7  CD1      -43.4000   -7.5730  -14.7010 C.ar    8  PHE8       -0.0042
      8  CD2      -42.0330   -6.7210  -16.5020 C.ar    8  PHE8       -0.0042
      9  CE1      -44.3420   -6.5910  -14.9500 C.ar    8  PHE8       -0.0003
     10  CE2      -42.9630   -5.7230  -16.7420 C.ar    8  PHE8       -0.0003
     11  CZ       -44.1240   -5.6670  -15.9760 C.ar    8  PHE8       -0.0000
     12  N        -42.7880  -10.2370  -18.0020 N.am    9  GLY9       -0.1942
     13  CA       -43.0290  -10.3230  -19.4150 C.3     9  GLY9        0.2014
     14  C        -42.8770  -11.7530  -19.8120 C.2     9  GLY9        0.2639
     15  O        -42.0970  -12.4660  -19.2480 O.2     9  GLY9       -0.2714
     16  N        -43.6700  -12.1790  -20.7630 N.am   10  PHE10      -0.1959
     17  CA       -43.6380  -13.5530  -21.1840 C.3    10  PHE10       0.1771
     18  C        -44.0370  -13.7370  -22.6230 C.2    10  PHE10       0.2620
     19  O        -44.9030  -14.4890  -22.9070 O.2    10  PHE10      -0.2715
     20  CB       -44.4920  -14.4050  -20.2390 C.3    10  PHE10       0.0574
     21  CG       -44.0160  -15.8160  -20.0940 C.ar   10  PHE10      -0.0200
     22  CD1      -42.7050  -16.0830  -19.8190 C.ar   10  PHE10      -0.0042
     23  CD2      -44.8800  -16.8650  -20.2390 C.ar   10  PHE10      -0.0042
     24  CE1      -42.2570  -17.3600  -19.6980 C.ar   10  PHE10      -0.0003
     25  CE2      -44.4390  -18.1490  -20.1240 C.ar   10  PHE10      -0.0003
     26  CZ       -43.1260  -18.3970  -19.8580 C.ar   10  PHE10      -0.0000
     27  N        -43.3540  -13.0790  -23.5350 N.am   11  GLY11      -0.1940
     28  CA       -43.6300  -13.1800  -24.9480 C.3    11  GLY11       0.2014
     29  C        -42.5770  -13.9770  -25.6510 C.2    11  GLY11       0.2640
     30  O        -42.0340  -14.8620  -25.0830 O.2    11  GLY11      -0.2714
     31  N        -42.2800  -13.6580  -26.8920 N.am   12  THR12      -0.1936
     32  CA       -41.2050  -14.3850  -27.5800 C.3    12  THR12       0.2028
     33  C        -39.9990  -14.5880  -26.6520 C.2    12  THR12       0.2642
     34  O        -39.5190  -15.7220  -26.4920 O.2    12  THR12      -0.2714
     35  CB       -40.7500  -13.6320  -28.8610 C.3    12  THR12       0.1808
     36  OG1      -41.8260  -13.5890  -29.8040 O.3    12  THR12      -0.2208
     37  CG2      -39.5820  -14.3120  -29.5360 C.3    12  THR12       0.0379
     38  N        -39.5120  -13.5070  -26.0240 N.am   13  VAL13      -0.1977
     39  CA       -38.1920  -13.5670  -25.3670 C.3    13  VAL13       0.1596
     40  C        -38.2810  -14.3250  -24.0640 C.2    13  VAL13       0.2287
     41  O        -37.4720  -15.2240  -23.8020 O.2    13  VAL13      -0.2864
     42  CB       -37.5470  -12.1790  -25.1500 C.3    13  VAL13       0.0276
     43  CG1      -36.2480  -12.3080  -24.3850 C.3    13  VAL13       0.0022
     44  CG2      -37.2820  -11.5170  -26.5060 C.3    13  VAL13       0.0022
     45  N        -44.9630  -13.1560  -15.1230 N.3    38  THR38      -0.1203
     46  CA       -45.9720  -12.1090  -15.2810 C.3    38  THR38       0.1994
     47  C        -46.1880  -11.6790  -16.7110 C.2    38  THR38       0.2618
     48  O        -45.2740  -11.3910  -17.4220 O.2    38  THR38      -0.2717
     49  CB       -45.5750  -10.8440  -14.5250 C.3    38  THR38       0.1784
     50  OG1      -45.3620  -11.1460  -13.1610 O.3    38  THR38      -0.2211
     51  CG2      -46.6460   -9.8150  -14.5970 C.3    38  THR38       0.0376
     52  N        -47.4300  -11.5590  -17.1000 N.am   39  ASP39      -0.1959
     53  CA       -47.7980  -10.8970  -18.3270 C.3    39  ASP39       0.1840
     54  C        -48.9170   -9.9190  -17.9820 C.2    39  ASP39       0.2622
     55  O        -49.1650   -9.6660  -16.8410 O.2    39  ASP39      -0.2715
     56  CB       -48.1100  -11.8790  -19.4540 C.3    39  ASP39       0.1450
     57  CG       -49.3520  -12.6640  -19.2300 C.2    39  ASP39       0.3671
     58  OD1      -50.2240  -12.2280  -18.4850 O.co2  39  ASP39      -0.2456
     59  OD2      -49.4830  -13.7220  -19.8270 O.co2  39  ASP39      -0.2456
     60  N        -49.5320   -9.3200  -18.9700 N.am   40  ARG40      -0.1963
     61  CA       -50.6120   -8.3980  -18.7350 C.3    40  ARG40       0.1729
     62  C        -51.7760   -9.0890  -18.0440 C.2    40  ARG40       0.2616
     63  O        -52.4180   -8.5140  -17.1980 O.2    40  ARG40      -0.2715
     64  CB       -51.0550   -7.7970  -20.0320 C.3    40  ARG40       0.0348
     65  CG       -50.0340   -6.9080  -20.6630 C.3    40  ARG40       0.0492
     66  CD       -50.7030   -6.1800  -21.7910 C.3    40  ARG40       0.2205
     67  NE       -49.7930   -5.6610  -22.7810 N.pl3  40  ARG40      -0.0865
     68  CZ       -49.4230   -4.3940  -22.8620 C.cat  40  ARG40       0.5346
     69  NH1      -48.5950   -4.0180  -23.8040 N.pl3  40  ARG40       0.1354
     70  NH2      -49.8710   -3.5010  -22.0060 N.pl3  40  ARG40       0.1354
     71  N        -52.0470  -10.3290  -18.4090 N.am   41  SER41      -0.1950
     72  CA       -53.1800  -11.0420  -17.8120 C.3    41  SER41       0.1924
     73  C        -52.9940  -11.3040  -16.2970 C.2    41  SER41       0.2314
     74  O        -53.9390  -11.1760  -15.5310 O.2    41  SER41      -0.2863
     75  CB       -53.5410  -12.3110  -18.6170 C.3    41  SER41       0.2116
     76  OG       -52.6650  -13.3950  -18.4020 O.3    41  SER41      -0.2180
     77  N        -51.7370  -18.2260  -25.0830 N.3    61  GLY61      -0.1225
     78  CA       -51.3470  -16.8200  -25.0500 C.3    61  GLY61       0.1811
     79  C        -51.6150  -16.1310  -23.7260 C.2    61  GLY61       0.2280
     80  O        -51.7170  -14.9040  -23.6780 O.2    61  GLY61      -0.2866
     81  N        -46.8430   -3.9450  -10.6820 N.3    76  PRO76      -0.2116
     82  CA       -45.4170   -4.1450  -10.6630 C.3    76  PRO76       0.1372
     83  C        -44.8180   -3.9850   -9.2890 C.2    76  PRO76       0.2244
     84  O        -44.0080   -4.8060   -8.8820 O.2    76  PRO76      -0.2868
     85  CB       -44.9200   -3.0660  -11.6110 C.3    76  PRO76       0.0268
     86  CG       -45.9560   -3.0550  -12.6610 C.3    76  PRO76       0.0207
     87  CD       -47.2460   -3.2230  -11.9000 C.3    76  PRO76       0.0892
     88  N        -38.3750   -8.9440  -19.3500 N.3    91  VAL91      -0.1231
     89  CA       -38.3210   -9.2190  -20.7900 C.3    91  VAL91       0.1692
     90  C        -39.6190   -8.7980  -21.4440 C.2    91  VAL91       0.2593
     91  O        -40.1110   -9.4390  -22.3670 O.2    91  VAL91      -0.2718
     92  CB       -37.9670  -10.6960  -21.1040 C.3    91  VAL91       0.0266
     93  CG1      -36.5110  -10.9700  -20.8140 C.3    91  VAL91       0.0020
     94  CG2      -38.8790  -11.6720  -20.3560 C.3    91  VAL91       0.0020
     95  N        -40.1290   -7.6570  -20.9980 N.am   92  SER92      -0.1938
     96  CA       -41.4030   -7.0990  -21.4800 C.3    92  SER92       0.2055
     97  C        -41.2240   -5.9210  -22.4240 C.2    92  SER92       0.2644
     98  O        -40.1220   -5.4160  -22.6020 O.2    92  SER92      -0.2714
     99  CB       -42.2170   -6.5980  -20.2820 C.3    92  SER92       0.2130
    100  OG       -41.7900   -5.2930  -19.8530 O.3    92  SER92      -0.2179
    101  N        -42.3480   -5.4700  -22.9940 N.am   93  SER93      -0.1935
    102  CA       -42.4070   -4.2430  -23.8260 C.3    93  SER93       0.2055
    103  C        -42.9730   -3.0100  -23.0870 C.2    93  SER93       0.2643
    104  O        -43.4550   -2.0530  -23.7160 O.2    93  SER93      -0.2714
    105  CB       -43.1650   -4.4910  -25.1610 C.3    93  SER93       0.2130
    106  OG       -44.2010   -5.4390  -25.0430 O.3    93  SER93      -0.2179
    107  N        -42.8210   -2.9990  -21.7690 N.am   94  TRP94      -0.1973
    108  CA       -43.3040   -1.9150  -20.9370 C.3    94  TRP94       0.1640
    109  C        -42.2820   -0.7930  -20.8670 C.2    94  TRP94       0.2290
    110  O        -41.3960   -0.8120  -20.0660 O.2    94  TRP94      -0.2864
    111  CB       -43.6540   -2.4450  -19.5270 C.3    94  TRP94       0.0576
    112  CG       -44.1710   -1.3700  -18.5800 C.ar   94  TRP94       0.0006
    113  CD1      -44.8840   -0.2560  -18.9190 C.ar   94  TRP94       0.0946
    114  CD2      -44.0100   -1.3180  -17.1570 C.ar   94  TRP94       0.0152
    115  NE1      -45.1700    0.4870  -17.8030 N.ar   94  TRP94      -0.2442
    116  CE2      -44.6580   -0.1380  -16.7050 C.ar   94  TRP94       0.0810
    117  CE3      -43.4130   -2.1610  -16.2210 C.ar   94  TRP94       0.0012
    118  CZ2      -44.7040    0.2360  -15.3670 C.ar   94  TRP94       0.0191
    119  CZ3      -43.4570   -1.7890  -14.8820 C.ar   94  TRP94       0.0001
    120  CH2      -44.1020   -0.5870  -14.4680 C.ar   94  TRP94       0.0015
    121  N        -33.9200   -6.8800  -21.0430 N.3   114  SER114     -0.1202
    122  CA       -33.7230   -6.6960  -22.4770 C.3   114  SER114      0.2020
    123  C        -34.5180   -5.5190  -23.0210 C.2   114  SER114      0.2619
    124  O        -34.6740   -5.3400  -24.2380 O.2   114  SER114     -0.2717
    125  CB       -34.1470   -7.9560  -23.2000 C.3   114  SER114      0.2103
    126  OG       -35.4610   -8.3200  -22.7780 O.3   114  SER114     -0.2182
    127  N        -35.0110   -4.7090  -22.1080 N.am  115  ASN115     -0.1960
    128  CA       -36.0000   -3.6620  -22.3990 C.3   115  ASN115      0.1819
    129  C        -35.2600   -2.3520  -22.4480 C.2   115  ASN115      0.2621
    130  O        -34.6790   -1.9470  -21.4770 O.2   115  ASN115     -0.2715
    131  CB       -37.0160   -3.6650  -21.2660 C.3   115  ASN115      0.1195
    132  CG       -38.2130   -2.7710  -21.5250 C.2   115  ASN115      0.2630
    133  OD1      -38.4570   -2.3030  -22.6310 O.2   115  ASN115     -0.2716
    134  ND2      -38.9990   -2.5700  -20.4700 N.am  115  ASN115     -0.0877
    135  N        -35.2140   -1.6920  -23.5870 N.am  116  LYS116     -0.1977
    136  CA       -34.2590   -0.5870  -23.7200 C.3   116  LYS116      0.1596
    137  C        -34.5410    0.7330  -22.9330 C.2   116  LYS116      0.2287
    138  O        -33.6560    1.2470  -22.2230 O.2   116  LYS116     -0.2864
    139  CB       -34.0880   -0.2750  -25.1870 C.3   116  LYS116      0.0298
    140  CG       -33.4250   -1.3690  -25.9940 C.3   116  LYS116      0.0038
    141  CD       -33.4660   -0.9890  -27.4830 C.3   116  LYS116      0.0206
    142  CE       -34.6690   -1.6060  -28.2120 C.3   116  LYS116      0.1093
    143  NZ       -34.5840   -3.1040  -28.1690 N.3   116  LYS116     -0.1314
    144  N        -28.9130   -7.7910  -23.6460 N.3   141  SER141     -0.1217
    145  CA       -29.7720   -7.9980  -24.8140 C.3   141  SER141      0.1889
    146  C        -30.5200   -6.7210  -25.2520 C.2   141  SER141      0.2288
    147  O        -31.2900   -6.7540  -26.2000 O.2   141  SER141     -0.2866
    148  CB       -30.7450   -9.1540  -24.5660 C.3   141  SER141      0.2089
    149  OG       -30.1830  -10.4560  -24.7870 O.3   141  SER141     -0.2183
    150  N        -28.8040   -7.9240  -29.0900 N.3   145  ALA145     -0.1245
    151  CA       -29.2640   -9.0870  -28.3840 C.3   145  ALA145      0.1562
    152  C        -28.1820   -9.8710  -27.6200 C.2   145  ALA145      0.2260
    153  O        -27.4550   -9.3320  -26.8340 O.2   145  ALA145     -0.2867
    154  CB       -30.1290   -9.9580  -29.2750 C.3   145  ALA145      0.0290
    155  N        -40.0280    2.2680  -35.5240 N.3   205  LYS205     -0.1245
    156  CA       -38.8180    1.9540  -34.7640 C.3   205  LYS205      0.1561
    157  C        -37.6160    1.5330  -35.5910 C.2   205  LYS205      0.2260
    158  O        -36.4870    1.7400  -35.1710 O.2   205  LYS205     -0.2867
    159  CB       -39.1120    0.8730  -33.7490 C.3   205  LYS205      0.0271
    160  CG       -40.0670    1.3850  -32.6930 C.3   205  LYS205      0.0035
    161  CD       -40.5950    0.2300  -31.8810 C.3   205  LYS205      0.0206
    162  CE       -40.9790    0.7010  -30.4900 C.3   205  LYS205      0.1093
    163  NZ       -41.1610   -0.5390  -29.6860 N.3   205  LYS205     -0.1314
    164  N        -30.4940    2.2370  -28.6930 N.3   215  LYS215     -0.1245
    165  CA       -29.2990    1.4150  -28.5570 C.3   215  LYS215      0.1561
    166  C        -28.0320    2.2530  -28.5510 C.2   215  LYS215      0.2260
    167  O        -27.1640    1.9960  -27.7500 O.2   215  LYS215     -0.2867
    168  CB       -29.2620    0.3480  -29.6380 C.3   215  LYS215      0.0271
    169  CG       -30.3890   -0.6560  -29.4680 C.3   215  LYS215      0.0035
    170  CD       -30.4090   -1.5880  -30.6390 C.3   215  LYS215      0.0206
    171  CE       -31.3120   -2.7610  -30.3640 C.3   215  LYS215      0.1093
    172  NZ       -31.8410   -3.4060  -31.5870 N.3   215  LYS215     -0.1314
    173  N        -28.9380  -10.1620  -34.2070 N.3   294  GLY294     -0.1210
    174  CA       -29.4930   -9.0430  -33.4380 C.3   294  GLY294      0.1956
    175  C        -30.8950   -9.1710  -32.8480 C.2   294  GLY294      0.2612
    176  O        -31.4030   -8.2560  -32.1210 O.2   294  GLY294     -0.2717
    177  N        -31.5010  -10.3180  -33.1350 N.am  295  GLY295     -0.1942
    178  CA       -32.8490  -10.6240  -32.6700 C.3   295  GLY295      0.2014
    179  C        -33.1940  -12.1050  -32.7770 C.2   295  GLY295      0.2639
    180  O        -32.4090  -12.8960  -33.2940 O.2   295  GLY295     -0.2714
    181  N        -34.3870  -12.4460  -32.2880 N.am  296  GLY296     -0.1954
    182  CA       -34.8520  -13.8210  -32.1600 C.3   296  GLY296      0.1869
    183  C        -35.0390  -14.2180  -30.6920 C.2   296  GLY296      0.2309
    184  O        -34.4210  -13.6590  -29.7670 O.2   296  GLY296     -0.2863
    185  N        -31.9780  -13.6690  -28.1060 N.3   300  THR300     -0.1218
    186  CA       -32.1430  -12.6500  -27.0740 C.3   300  THR300      0.1862
    187  C        -32.0900  -13.2440  -25.6890 C.2   300  THR300      0.2287
    188  O        -31.4900  -12.6880  -24.7780 O.2   300  THR300     -0.2866
    189  CB       -33.5130  -11.9490  -27.2540 C.3   300  THR300      0.1770
    190  OG1      -33.6110  -11.4810  -28.5850 O.3   300  THR300     -0.2211
    191  CG2      -33.7000  -10.7800  -26.3020 C.3   300  THR300      0.0375
@<TRIPOS>BOND
     1   157   158    2
     2   157   156    1
     3   155   156    1
     4   156   159    1
     5   173   174    1
     6   159   160    1
     7   174   175    1
     8   180   179    2
     9   177   175   am
    10   177   178    1
    11   175   176    2
    12   179   178    1
    13   179   181   am
    14   160   161    1
    15   181   182    1
    16   182   183    1
    17   161   162    1
    18   172   171    1
    19   183   184    2
    20   170   171    1
    21   170   169    1
    22   162   163    1
    23    36    35    1
    24   168   169    1
    25   168   165    1
    26    37    35    1
    27   154   151    1
    28   150   151    1
    29    35    32    1
    30   164   165    1
    31   190   189    1
    32   165   166    1
    33   166   167    2
    34   151   152    1
    35   142   143    1
    36   142   141    1
    37   185   186    1
    38   152   153    2
    39    32    31    1
    40    32    33    1
    41   141   140    1
    42   189   186    1
    43   189   191    1
    44   186   187    1
    45    31    29   am
    46    33    34    2
    47    33    38   am
    48    44    42    1
    49   147   146    2
    50    38    39    1
    51   140   139    1
    52   187   188    2
    53    29    30    2
    54    29    28    1
    55    39    42    1
    56    39    40    1
    57   146   145    1
    58   139   136    1
    59   105   106    1
    60   105   102    1
    61    42    43    1
    62    77    78    1
    63    78    79    1
    64    28    27    1
    65   145   148    1
    66   145   144    1
    67   149   148    1
    68   124   123    2
    69    40    41    2
    70   102   103    1
    71   102   101    1
    72    69    68    1
    73    79    80    2
    74   136   135    1
    75   136   137    1
    76   104   103    2
    77   135   129   am
    78    27    18   am
    79   125   126    1
    80   125   122    1
    81   103   107   am
    82   123   122    1
    83   123   127   am
    84   101    97   am
    85   137   138    2
    86    19    18    2
    87    68    67    2
    88    68    70    1
    89    67    66    1
    90   133   132    2
    91    18    17    1
    92    98    97    2
    93   122   121    1
    94   129   128    1
    95   129   130    2
    96    97    96    1
    97   128   127    1
    98   128   131    1
    99    91    90    2
   100    66    65    1
   101   107   108    1
   102   132   131    1
   103   132   134   am
   104    96    95    1
   105    96    99    1
   106    90    95   am
   107    90    89    1
   108    17    16    1
   109    17    20    1
   110    92    93    1
   111    92    89    1
   112    92    94    1
   113   108   109    1
   114   108   111    1
   115   109   110    2
   116    89    88    1
   117    16    14   am
   118    65    64    1
   119    99   100    1
   120    20    21    1
   121    23    25   ar
   122    23    21   ar
   123    25    26   ar
   124    21    22   ar
   125    64    61    1
   126    26    24   ar
   127    59    57   ar
   128    22    24   ar
   129    14    13    1
   130    14    15    2
   131   111   112    1
   132    56    57    1
   133    56    53    1
   134    13    12    1
   135    57    58   ar
   136    60    61    1
   137    60    54   am
   138   113   112   ar
   139   113   115   ar
   140    61    62    1
   141    75    76    1
   142    75    72    1
   143   112   114   ar
   144    71    62   am
   145    71    72    1
   146    53    54    1
   147    53    52    1
   148     4     3    2
   149    62    63    2
   150    12     3   am
   151    54    55    2
   152    72    73    1
   153   115   116   ar
   154     3     2    1
   155    48    47    2
   156   114   116   ar
   157   114   117   ar
   158    52    47   am
   159    10     8   ar
   160    10    11   ar
   161    47    46    1
   162   116   118   ar
   163     8     6   ar
   164    73    74    2
   165   117   119   ar
   166    11     9   ar
   167     2     1    1
   168     2     5    1
   169     6     5    1
   170     6     7   ar
   171   118   120   ar
   172    46    45    1
   173    46    49    1
   174     9     7   ar
   175   119   120   ar
   176    51    49    1
   177    49    50    1
   178    86    87    1
   179    86    85    1
   180    87    81    1
   181    85    82    1
   182    81    82    1
   183    82    83    1
   184    83    84    2
