@<TRIPOS>MOLECULE
tmp/4xb3A00.pdb
 84 80 0 0 0
SMALL
GASTEIGER

@<TRIPOS>ATOM
      1  N         -8.1360    3.1490   25.9000 N.3     5  TRP5       -0.1241
      2  CA        -8.5140    4.3110   25.1020 C.3     5  TRP5        0.1605
      3  C         -8.1820    4.1080   23.6210 C.2     5  TRP5        0.2264
      4  O         -9.0030    4.3920   22.7400 O.2     5  TRP5       -0.2867
      5  CB        -7.8220    5.5710   25.6380 C.3     5  TRP5        0.0550
      6  CG        -6.3230    5.5080   25.5870 C.ar    5  TRP5        0.0003
      7  CD1       -5.4900    4.9930   26.5390 C.ar    5  TRP5        0.0946
      8  CD2       -5.4800    5.9750   24.5260 C.ar    5  TRP5        0.0152
      9  NE1       -4.1810    5.1090   26.1350 N.ar    5  TRP5       -0.2442
     10  CE2       -4.1480    5.7090   24.9040 C.ar    5  TRP5        0.0810
     11  CE3       -5.7220    6.5920   23.2950 C.ar    5  TRP5        0.0012
     12  CZ2       -3.0630    6.0370   24.0930 C.ar    5  TRP5        0.0191
     13  CZ3       -4.6430    6.9160   22.4910 C.ar    5  TRP5        0.0001
     14  CH2       -3.3300    6.6380   22.8930 C.ar    5  TRP5        0.0015
     15  N         -6.9190   10.7340   17.5670 N.3    46  MET46      -0.1245
     16  CA        -6.7850   10.7220   19.0190 C.3    46  MET46       0.1570
     17  C         -5.3200   10.7630   19.4490 C.2    46  MET46       0.2261
     18  O         -5.0080   10.9940   20.6200 O.2    46  MET46      -0.2867
     19  CB        -7.4730    9.4800   19.5890 C.3    46  MET46       0.0387
     20  CG        -7.7380    9.5150   21.0830 C.3    46  MET46       0.0595
     21  SD        -8.7460    8.1140   21.6100 S.3    46  MET46      -0.1393
     22  CE       -10.2170    8.3660   20.6200 C.3    46  MET46       0.0692
     23  N         -2.9150   18.0080   24.0780 N.3    89  LYS89      -0.1245
     24  CA        -3.6980   17.5530   25.2230 C.3    89  LYS89       0.1561
     25  C         -5.0170   18.3120   25.3180 C.2    89  LYS89       0.2260
     26  O         -6.0730   17.7190   25.5300 O.2    89  LYS89      -0.2867
     27  CB        -2.8960   17.7280   26.5140 C.3    89  LYS89       0.0271
     28  CG        -3.6230   17.3100   27.7820 C.3    89  LYS89       0.0035
     29  CD        -2.9230   17.8800   29.0060 C.3    89  LYS89       0.0206
     30  CE        -3.0830   16.9780   30.2180 C.3    89  LYS89       0.1093
     31  NZ        -4.5040   16.8300   30.6300 N.3    89  LYS89      -0.1314
     32  N         -7.5560   17.1060   22.8940 N.3    92  GLY92      -0.1210
     33  CA        -7.8850   15.6940   22.9990 C.3    92  GLY92       0.1956
     34  C         -6.9680   14.7830   22.2060 C.2    92  GLY92       0.2612
     35  O         -7.3800   13.7140   21.7530 O.2    92  GLY92      -0.2717
     36  N         -5.7170   15.2010   22.0450 N.am   93  ILE93      -0.1965
     37  CA        -4.7640   14.4600   21.2250 C.3    93  ILE93       0.1727
     38  C         -3.5010   14.1110   22.0060 C.2    93  ILE93       0.2616
     39  O         -2.8810   14.9800   22.6160 O.2    93  ILE93      -0.2715
     40  CB        -4.3720   15.2620   19.9680 C.3    93  ILE93       0.0290
     41  CG1       -5.6170   15.6190   19.1530 C.3    93  ILE93       0.0022
     42  CG2       -3.3750   14.4820   19.1220 C.3    93  ILE93       0.0023
     43  CD1       -5.3250   16.4790   17.9420 C.3    93  ILE93       0.0001
     44  N         -3.1250   12.8370   21.9830 N.am   94  LYS94      -0.1977
     45  CA        -1.9060   12.3920   22.6480 C.3    94  LYS94       0.1596
     46  C         -0.7240   12.3950   21.6860 C.2    94  LYS94       0.2287
     47  O         -0.8950   12.2460   20.4780 O.2    94  LYS94      -0.2864
     48  CB        -2.0910   10.9930   23.2350 C.3    94  LYS94       0.0298
     49  CG        -3.2420   10.8740   24.2110 C.3    94  LYS94       0.0038
     50  CD        -3.2590    9.5090   24.8700 C.3    94  LYS94       0.0206
     51  CE        -4.4790    9.3460   25.7610 C.3    94  LYS94       0.1093
     52  NZ        -4.4160   10.2240   26.9640 N.3    94  LYS94      -0.1314
     53  N          4.5660   13.3710   29.8270 N.3   187  GLY187     -0.1210
     54  CA         3.1500   13.2290   29.5350 C.3   187  GLY187      0.1956
     55  C          2.8030   12.7550   28.1360 C.2   187  GLY187      0.2612
     56  O          1.7220   13.0530   27.6280 O.2   187  GLY187     -0.2717
     57  N          3.7080   12.0110   27.5100 N.am  188  ILE188     -0.1965
     58  CA         3.4420   11.4550   26.1870 C.3   188  ILE188      0.1727
     59  C          2.3730   10.3670   26.2600 C.2   188  ILE188      0.2616
     60  O          2.0570    9.8700   27.3410 O.2   188  ILE188     -0.2715
     61  CB         4.7100   10.8650   25.5520 C.3   188  ILE188      0.0290
     62  CG1        5.2230    9.6980   26.3920 C.3   188  ILE188      0.0022
     63  CG2        5.7780   11.9350   25.3970 C.3   188  ILE188      0.0023
     64  CD1        6.4050    9.0040   25.7880 C.3   188  ILE188      0.0001
     65  N          1.8240   10.0010   25.1060 N.am  189  GLY189     -0.1955
     66  CA         0.7650    9.0090   25.0450 C.3   189  GLY189      0.1869
     67  C          1.2570    7.6120   24.7160 C.2   189  GLY189      0.2309
     68  O          0.5010    6.6440   24.8100 O.2   189  GLY189     -0.2863
     69  N         -0.6560    3.7020   31.0180 N.3   230  ASP230     -0.1225
     70  CA        -1.6910    3.2640   30.0920 C.3   230  ASP230      0.1805
     71  C         -1.4220    3.8540   28.7150 C.2   230  ASP230      0.2597
     72  O         -2.1860    4.6830   28.2210 O.2   230  ASP230     -0.2718
     73  CB        -3.0750    3.6740   30.6060 C.3   230  ASP230      0.1424
     74  CG        -4.2020    3.1110   29.7670 C.2   230  ASP230      0.3668
     75  OD1       -3.9680    2.1310   29.0310 O.co2 230  ASP230     -0.2456
     76  OD2       -5.3260    3.6470   29.8480 O.co2 230  ASP230     -0.2456
     77  N         -0.3260    3.4180   28.1010 N.am  231  LEU231     -0.1979
     78  CA         0.1480    4.0130   26.8570 C.3   231  LEU231      0.1596
     79  C         -0.1020    3.1320   25.6370 C.2   231  LEU231      0.2287
     80  O         -0.3380    1.9280   25.7550 O.2   231  LEU231     -0.2864
     81  CB         1.6460    4.3200   26.9570 C.3   231  LEU231      0.0297
     82  CG         2.1180    5.1220   28.1710 C.3   231  LEU231      0.0022
     83  CD1        3.5870    5.4930   28.0260 C.3   231  LEU231      0.0001
     84  CD2        1.2610    6.3630   28.3750 C.3   231  LEU231      0.0001
@<TRIPOS>BOND
     1    15    16    1
     2    43    41    1
     3    16    17    1
     4    16    19    1
     5    42    40    1
     6    41    40    1
     7    17    18    2
     8    19    20    1
     9    40    37    1
    10    47    46    2
    11    22    21    1
    12    20    21    1
    13    37    38    1
    14    37    36    1
    15    46    45    1
    16    35    34    2
    17    44    38   am
    18    44    45    1
    19    38    39    2
    20    36    34   am
    21    34    33    1
    22    13    14   ar
    23    13    11   ar
    24    45    48    1
    25     4     3    2
    26    14    12   ar
    27    32    33    1
    28    48    49    1
    29    11     8   ar
    30     3     2    1
    31    23    24    1
    32    12    10   ar
    33    49    50    1
    34     8    10   ar
    35     8     6   ar
    36    67    68    2
    37    67    66    1
    38    50    51    1
    39    10     9   ar
    40    66    65    1
    41     2     5    1
    42     2     1    1
    43    65    59   am
    44    24    25    1
    45    24    27    1
    46    25    26    2
    47    63    61    1
    48    61    58    1
    49    61    62    1
    50     6     5    1
    51     6     7   ar
    52    79    80    2
    53    79    78    1
    54    51    52    1
    55    64    62    1
    56     9     7   ar
    57    58    59    1
    58    58    57    1
    59    59    60    2
    60    27    28    1
    61    78    81    1
    62    78    77    1
    63    81    82    1
    64    57    55   am
    65    56    55    2
    66    28    29    1
    67    83    82    1
    68    77    71   am
    69    55    54    1
    70    82    84    1
    71    72    71    2
    72    71    70    1
    73    29    30    1
    74    75    74   ar
    75    54    53    1
    76    74    76   ar
    77    74    73    1
    78    70    73    1
    79    70    69    1
    80    30    31    1
