@<TRIPOS>MOLECULE
tmp/4xbaB00.pdb
 185 181 0 0 0
SMALL
GASTEIGER

@<TRIPOS>ATOM
      1  N          8.2350   12.0740   18.9320 N.3     2  PHE2       -0.1241
      2  CA         7.8640   12.8620   17.7430 C.3     2  PHE2        0.1605
      3  C          6.8130   12.0860   16.9660 C.2     2  PHE2        0.2264
      4  O          6.0870   12.6850   16.1560 O.2     2  PHE2       -0.2867
      5  CB         9.0670   13.2240   16.8510 C.3     2  PHE2        0.0534
      6  CG         9.5670   12.1000   15.9790 C.ar    2  PHE2       -0.0203
      7  CD1        9.0460   11.9040   14.7080 C.ar    2  PHE2       -0.0042
      8  CD2       10.6170   11.3130   16.3890 C.ar    2  PHE2       -0.0042
      9  CE1        9.5290   10.8900   13.8940 C.ar    2  PHE2       -0.0003
     10  CE2       11.1340   10.3050   15.5490 C.ar    2  PHE2       -0.0003
     11  CZ        10.5660   10.1020   14.2990 C.ar    2  PHE2       -0.0000
     12  N          3.4120   13.5790   16.8180 N.3     5  ASN5       -0.1225
     13  CA         3.2900   14.9900   16.4440 C.3     5  ASN5        0.1785
     14  C          2.0770   15.3770   15.5850 C.2     5  ASN5        0.2597
     15  O          1.7530   16.5780   15.5710 O.2     5  ASN5       -0.2718
     16  CB         4.5920   15.4500   15.7910 C.3     5  ASN5        0.1169
     17  CG         5.6840   15.6720   16.7910 C.2     5  ASN5        0.2627
     18  OD1        5.5110   15.5210   18.0120 O.2     5  ASN5       -0.2716
     19  ND2        6.8350   16.0930   16.2730 N.am    5  ASN5       -0.0877
     20  N          1.4250   14.4160   14.9020 N.am    6  LEU6       -0.1980
     21  CA         0.2970   14.8320   14.0720 C.3     6  LEU6        0.1596
     22  C         -0.8850   15.1010   14.9620 C.2     6  LEU6        0.2287
     23  O         -1.8570   15.6850   14.5050 O.2     6  LEU6       -0.2864
     24  CB        -0.1290   13.7660   13.0610 C.3     6  LEU6        0.0297
     25  CG         0.9860   13.2920   12.1440 C.3     6  LEU6        0.0022
     26  CD1        0.3630   12.2230   11.1780 C.3     6  LEU6        0.0001
     27  CD2        1.6280   14.4560   11.3790 C.3     6  LEU6        0.0001
     28  N         -2.8040   18.5920   14.9670 N.3     9  TYR9       -0.1241
     29  CA        -3.7210   19.0590   13.9220 C.3     9  TYR9        0.1605
     30  C         -5.1320   18.6850   14.2610 C.2     9  TYR9        0.2264
     31  O         -6.0570   19.4190   13.8940 O.2     9  TYR9       -0.2867
     32  CB        -3.3720   18.4620   12.5630 C.3     9  TYR9        0.0534
     33  CG        -1.9560   18.8350   12.1610 C.ar    9  TYR9       -0.0201
     34  CD1       -1.5950   20.1560   12.0290 C.ar    9  TYR9       -0.0009
     35  CD2       -1.0140   17.8500   11.8930 C.ar    9  TYR9       -0.0009
     36  CE1       -0.3140   20.4970   11.6520 C.ar    9  TYR9        0.0417
     37  CE2        0.2700   18.1840   11.5370 C.ar    9  TYR9        0.0417
     38  CZ         0.5970   19.5010   11.4190 C.ar    9  TYR9        0.1957
     39  OH         1.9060   19.8230   11.0490 O.3     9  TYR9       -0.2866
     40  N         -0.9410   24.9800    7.7800 N.3    18  ASN18      -0.1240
     41  CA        -1.0000   23.9490    6.7370 C.3    18  ASN18       0.1653
     42  C         -2.2680   23.1320    6.7860 C.2    18  ASN18       0.2266
     43  O         -2.4450   22.2810    5.9270 O.2    18  ASN18      -0.2867
     44  CB         0.2060   23.0190    6.8240 C.3    18  ASN18       0.1155
     45  CG         0.4410   22.4770    8.2260 C.2    18  ASN18       0.2627
     46  OD1        0.2110   23.1650    9.2250 O.2    18  ASN18      -0.2716
     47  ND2        0.9330   21.2370    8.3060 N.am   18  ASN18      -0.0877
     48  N         -4.7680   18.1980    6.0830 N.3    29  VAL29      -0.1231
     49  CA        -3.5580   18.9780    6.3700 C.3    29  VAL29       0.1692
     50  C         -2.5120   18.6730    5.3130 C.2    29  VAL29       0.2592
     51  O         -2.3950   17.5400    4.8500 O.2    29  VAL29      -0.2718
     52  CB        -3.0960   18.6880    7.8350 C.3    29  VAL29       0.0266
     53  CG1       -2.7590   17.2530    8.0690 C.3    29  VAL29       0.0020
     54  CG2       -1.9210   19.5930    8.2570 C.3    29  VAL29       0.0020
     55  N         -1.7160   19.6740    4.9500 N.am   30  ARG30      -0.1966
     56  CA        -0.5550   19.4040    4.0760 C.3    30  ARG30       0.1729
     57  C          0.4890   18.6050    4.8020 C.2    30  ARG30       0.2616
     58  O          0.7970   18.9050    5.9580 O.2    30  ARG30      -0.2715
     59  CB         0.0770   20.7000    3.6210 C.3    30  ARG30       0.0348
     60  CG        -0.8410   21.5030    2.8440 C.3    30  ARG30       0.0492
     61  CD        -0.0470   22.6890    2.2630 C.3    30  ARG30       0.2205
     62  NE        -0.9260   23.4570    1.4240 N.pl3  30  ARG30      -0.0865
     63  CZ        -1.5550   24.5610    1.7900 C.cat  30  ARG30       0.5346
     64  NH1       -1.3380   25.1190    2.9830 N.pl3  30  ARG30       0.1354
     65  NH2       -2.3700   25.1490    0.9180 N.pl3  30  ARG30       0.1354
     66  N          1.0420   17.6020    4.1300 N.am   31  ASP31      -0.1957
     67  CA         2.2000   16.8970    4.6900 C.3    31  ASP31       0.1840
     68  C          3.3440   17.8730    4.7760 C.2    31  ASP31       0.2622
     69  O          3.6100   18.6310    3.8560 O.2    31  ASP31      -0.2715
     70  CB         2.5430   15.7010    3.8030 C.3    31  ASP31       0.1450
     71  CG         3.4650   14.7140    4.4870 C.2    31  ASP31       0.3671
     72  OD1        4.6040   15.0870    4.7820 O.co2  31  ASP31      -0.2456
     73  OD2        3.0360   13.5630    4.6920 O.co2  31  ASP31      -0.2456
     74  N          4.0320   17.8680    5.9120 N.am   32  MET32      -0.1963
     75  CA         5.1400   18.8040    6.0590 C.3    32  MET32       0.1736
     76  C          6.3800   18.4060    5.2710 C.2    32  MET32       0.2616
     77  O          7.2340   19.2780    5.0010 O.2    32  MET32      -0.2715
     78  CB         5.4780   18.9220    7.5470 C.3    32  MET32       0.0427
     79  CG         6.7210   19.6720    7.8780 C.3    32  MET32       0.0599
     80  SD         6.9810   19.4900    9.6520 S.3    32  MET32      -0.1393
     81  CE         5.4630   20.2200   10.1940 C.3    32  MET32       0.0692
     82  N          6.4610   17.1390    4.8600 N.am   33  PHE33      -0.1974
     83  CA         7.6150   16.6450    4.1260 C.3    33  PHE33       0.1639
     84  C          7.0960   15.9070    2.8780 C.2    33  PHE33       0.2290
     85  O          7.1990   14.7140    2.7910 O.2    33  PHE33      -0.2864
     86  CB         8.4160   15.7090    5.0360 C.3    33  PHE33       0.0560
     87  CG         8.7810   16.3250    6.3500 C.ar   33  PHE33      -0.0200
     88  CD1        9.7950   17.2570    6.4140 C.ar   33  PHE33      -0.0042
     89  CD2        8.1400   15.9320    7.5350 C.ar   33  PHE33      -0.0042
     90  CE1       10.1380   17.8430    7.6260 C.ar   33  PHE33      -0.0003
     91  CE2        8.4960   16.5170    8.7640 C.ar   33  PHE33      -0.0003
     92  CZ         9.4810   17.4840    8.7820 C.ar   33  PHE33      -0.0000
     93  N          5.8910   13.9050   -0.3090 N.3    35  LYS35      -0.1245
     94  CA         6.6290   12.8920   -1.0430 C.3    35  LYS35       0.1561
     95  C          6.1870   12.8360   -2.4790 C.2    35  LYS35       0.2260
     96  O          6.7150   12.0700   -3.2480 O.2    35  LYS35      -0.2867
     97  CB         6.4810   11.5220   -0.3830 C.3    35  LYS35       0.0271
     98  CG         6.9620   11.5490    1.0920 C.3    35  LYS35       0.0035
     99  CD         8.4220   12.0300    1.1300 C.3    35  LYS35       0.0206
    100  CE         9.0340   11.7910    2.5240 C.3    35  LYS35       0.1093
    101  NZ         8.1730   12.2460    3.6740 N.3    35  LYS35      -0.1314
    102  N          0.8280   16.4580   -1.5100 N.3    39  HIS39      -0.1241
    103  CA         0.7270   15.4020   -0.5310 C.3    39  HIS39       0.1621
    104  C         -0.0470   15.9090    0.6910 C.2    39  HIS39       0.2264
    105  O          0.3850   16.8090    1.4230 O.2    39  HIS39      -0.2867
    106  CB         2.1300   14.9570   -0.1790 C.3    39  HIS39       0.0745
    107  CG         2.1860   13.7620    0.6880 C.ar   39  HIS39       0.0817
    108  ND1        3.3710   13.1490    1.0500 N.ar   39  HIS39      -0.2268
    109  CD2        1.1930   12.9960    1.2140 C.ar   39  HIS39       0.1154
    110  CE1        3.1060   12.0930    1.7990 C.ar   39  HIS39       0.1986
    111  NE2        1.7830   11.9770    1.9220 N.ar   39  HIS39      -0.2212
    112  N         -2.7560   14.9110    4.0960 N.3    41  LEU41      -0.1245
    113  CA        -3.1780   13.8690    5.0320 C.3    41  LEU41       0.1561
    114  C         -4.5900   14.1600    5.5300 C.2    41  LEU41       0.2260
    115  O         -4.8730   15.2750    5.9410 O.2    41  LEU41      -0.2867
    116  CB        -2.2320   13.8670    6.2310 C.3    41  LEU41       0.0270
    117  CG        -0.7160   13.7920    5.9440 C.3    41  LEU41       0.0019
    118  CD1        0.0180   13.9450    7.3210 C.3    41  LEU41       0.0001
    119  CD2       -0.4040   12.4540    5.2910 C.3    41  LEU41       0.0001
    120  N         -0.4370    3.6930    4.8640 N.3   106  HIS106     -0.1241
    121  CA         0.7160    2.7770    4.9660 C.3   106  HIS106      0.1621
    122  C          0.3270    1.5800    5.8060 C.2   106  HIS106      0.2264
    123  O         -0.2930    1.7450    6.8630 O.2   106  HIS106     -0.2867
    124  CB         1.8750    3.4810    5.6430 C.3   106  HIS106      0.0745
    125  CG         2.6160    4.4140    4.7550 C.ar  106  HIS106      0.0817
    126  ND1        3.1590    5.5870    5.2430 N.ar  106  HIS106     -0.2268
    127  CD2        3.0230    4.3050    3.4710 C.ar  106  HIS106      0.1154
    128  CE1        3.8330    6.1890    4.2730 C.ar  106  HIS106      0.1986
    129  NE2        3.7840    5.4240    3.2000 N.ar  106  HIS106     -0.2212
    130  N          2.2600   -0.0960    7.6080 N.3   108  GLY108     -0.1210
    131  CA         2.9690    0.1510    8.8530 C.3   108  GLY108      0.1940
    132  C          3.1140    1.6490    8.9630 C.2   108  GLY108      0.2454
    133  O          4.0000    2.2480    8.3620 O.2   108  GLY108     -0.2732
    134  N          2.2610    2.2600    9.7640 N.am  109  PRO109     -0.2717
    135  CA         2.3020    3.7250    9.7760 C.3   109  PRO109      0.1536
    136  C          3.5380    4.2970   10.4860 C.2   109  PRO109      0.2599
    137  O          4.0390    3.6910   11.4410 O.2   109  PRO109     -0.2715
    138  CB         1.0280    4.1100   10.5360 C.3   109  PRO109      0.0310
    139  CG         0.7680    2.9320   11.4530 C.3   109  PRO109      0.0237
    140  CD         1.3430    1.6920   10.7670 C.3   109  PRO109      0.0939
    141  N          4.0220    5.4230    9.9860 N.am  110  SER110     -0.1936
    142  CA         5.2080    6.0250   10.5900 C.3   110  SER110      0.2055
    143  C          4.8480    7.0140   11.6730 C.2   110  SER110      0.2642
    144  O          5.7460    7.6350   12.2230 O.2   110  SER110     -0.2714
    145  CB         6.0790    6.7000    9.5430 C.3   110  SER110      0.2130
    146  OG         5.3660    7.7290    8.9370 O.3   110  SER110     -0.2179
    147  N          3.5740    7.3590   11.8200 N.am  111  MET111     -0.1976
    148  CA         3.1300    8.2550   12.8780 C.3   111  MET111      0.1605
    149  C          1.9580    7.6310   13.6040 C.2   111  MET111      0.2287
    150  O          1.2170    6.8420   13.0010 O.2   111  MET111     -0.2864
    151  CB         2.7610    9.6240   12.3210 C.3   111  MET111      0.0413
    152  CG         3.9260   10.3170   11.6030 C.3   111  MET111      0.0598
    153  SD         5.2940   10.8270   12.6870 S.3   111  MET111     -0.1393
    154  CE         4.5620   12.3140   13.2540 C.3   111  MET111      0.0692
    155  N         -3.7630    8.5510    9.6940 N.3   115  HIS115     -0.1241
    156  CA        -3.6800    9.5660    8.6330 C.3   115  HIS115      0.1621
    157  C         -3.7750    8.8750    7.2900 C.2   115  HIS115      0.2264
    158  O         -3.0100    7.9500    6.9950 O.2   115  HIS115     -0.2867
    159  CB        -2.3540   10.4150    8.7340 C.3   115  HIS115      0.0745
    160  CG        -1.0950    9.6090    8.8430 C.ar  115  HIS115      0.0817
    161  ND1       -0.7470    8.9450    9.9980 N.ar  115  HIS115     -0.2268
    162  CD2       -0.1460    9.3140    7.9260 C.ar  115  HIS115      0.1154
    163  CE1        0.3810    8.2890    9.8020 C.ar  115  HIS115      0.1986
    164  NE2        0.7370    8.4500    8.5400 N.ar  115  HIS115     -0.2212
    165  N         -3.2420    9.1560    3.3820 N.3   117  HIS117     -0.1241
    166  CA        -2.5410    9.9270    2.3830 C.3   117  HIS117      0.1621
    167  C         -3.3470   10.2030    1.1560 C.2   117  HIS117      0.2264
    168  O         -4.0400    9.3030    0.6550 O.2   117  HIS117     -0.2867
    169  CB        -1.2760    9.1830    1.8910 C.3   117  HIS117      0.0745
    170  CG        -0.3250    8.8560    2.9870 C.ar  117  HIS117      0.0817
    171  ND1        0.6340    9.7620    3.3870 N.ar  117  HIS117     -0.2268
    172  CD2       -0.1770    7.7520    3.7610 C.ar  117  HIS117      0.1154
    173  CE1        1.3190    9.2210    4.3900 C.ar  117  HIS117      0.1986
    174  NE2        0.8530    8.0080    4.6320 N.ar  117  HIS117     -0.2212
    175  N          5.2210    4.1080   -0.8770 N.3   137  PHE137     -0.1241
    176  CA         4.0400    4.6150   -1.5880 C.3   137  PHE137      0.1605
    177  C          3.7400    3.9360   -2.8760 C.2   137  PHE137      0.2264
    178  O          2.6950    4.2010   -3.4690 O.2   137  PHE137     -0.2867
    179  CB         4.1960    6.1060   -1.8580 C.3   137  PHE137      0.0534
    180  CG         4.1390    6.9460   -0.6100 C.ar  137  PHE137     -0.0203
    181  CD1        2.9410    7.1940    0.0410 C.ar  137  PHE137     -0.0042
    182  CD2        5.3020    7.4670   -0.0820 C.ar  137  PHE137     -0.0042
    183  CE1        2.9370    7.9680    1.1800 C.ar  137  PHE137     -0.0003
    184  CE2        5.2850    8.2060    1.0410 C.ar  137  PHE137     -0.0003
    185  CZ         4.1040    8.4920    1.6590 C.ar  137  PHE137     -0.0000
@<TRIPOS>BOND
     1   178   177    2
     2    96    95    2
     3   177   176    1
     4    95    94    1
     5   179   176    1
     6   179   180    1
     7   176   175    1
     8   102   103    1
     9    94    97    1
    10    94    93    1
    11   180   182   ar
    12   180   181   ar
    13   103   106    1
    14   103   104    1
    15    97    98    1
    16   106   107    1
    17   182   184   ar
    18   181   183   ar
    19   168   167    2
    20   107   108   ar
    21   107   109   ar
    22   104   105    2
    23    65    63    1
    24   184   185   ar
    25   108   110   ar
    26    98    99    1
    27    99   100    1
    28   167   166    1
    29   183   185   ar
    30   109   111   ar
    31    62    63    2
    32    62    61    1
    33    63    64    1
    34   110   111   ar
    35   169   166    1
    36   169   170    1
    37    61    60    1
    38   166   165    1
    39   100   101    1
    40    85    84    2
    41    60    59    1
    42    84    83    1
    43   170   171   ar
    44   170   172   ar
    45   129   127   ar
    46   129   128   ar
    47   171   173   ar
    48   127   125   ar
    49    59    56    1
    50   172   174   ar
    51    70    71    1
    52    70    67    1
    53    69    68    2
    54    56    57    1
    55    56    55    1
    56   112   113    1
    57    83    82    1
    58    83    86    1
    59    66    67    1
    60    66    57   am
    61   128   126   ar
    62   173   174   ar
    63    71    73   ar
    64    71    72   ar
    65    67    68    1
    66   125   126   ar
    67   125   124    1
    68    68    74   am
    69    57    58    2
    70    51    50    2
    71    82    76   am
    72   120   121    1
    73    55    50   am
    74   121   124    1
    75   121   122    1
    76    77    76    2
    77   113   114    1
    78   113   116    1
    79    86    87    1
    80    76    75    1
    81   119   117    1
    82    50    49    1
    83   114   115    2
    84   122   123    2
    85    74    75    1
    86    43    42    2
    87   117   116    1
    88   117   118    1
    89    75    78    1
    90    48    49    1
    91    87    88   ar
    92    87    89   ar
    93    49    52    1
    94    88    90   ar
    95    41    42    1
    96    41    44    1
    97    41    40    1
    98    44    45    1
    99   158   157    2
   100   157   156    1
   101    89    91   ar
   102    78    79    1
   103   130   131    1
   104    90    92   ar
   105    52    53    1
   106    52    54    1
   107    79    80    1
   108   162   164   ar
   109   162   160   ar
   110    45    47   am
   111    45    46    2
   112   133   132    2
   113   164   163   ar
   114   156   159    1
   115   156   155    1
   116   159   160    1
   117    91    92   ar
   118   160   161   ar
   119   131   132    1
   120   146   145    1
   121   132   134   am
   122   145   142    1
   123    80    81    1
   124   134   135    1
   125   134   140    1
   126   135   136    1
   127   135   138    1
   128   163   161   ar
   129   141   136   am
   130   141   142    1
   131   136   137    2
   132   138   139    1
   133   142   143    1
   134   140   139    1
   135    39    38    1
   136    26    25    1
   137    27    25    1
   138    38    37   ar
   139    38    36   ar
   140    37    35   ar
   141   152   151    1
   142   152   153    1
   143    36    34   ar
   144   143   147   am
   145   143   144    2
   146   147   148    1
   147    35    33   ar
   148    34    33   ar
   149    25    24    1
   150    33    32    1
   151   151   148    1
   152    32    29    1
   153   153   154    1
   154   148   149    1
   155   150   149    2
   156    24    21    1
   157     9    11   ar
   158     9     7   ar
   159    31    30    2
   160    29    30    1
   161    29    28    1
   162    21    20    1
   163    21    22    1
   164    11    10   ar
   165    23    22    2
   166     7     6   ar
   167    20    14   am
   168    10     8   ar
   169    15    14    2
   170    14    13    1
   171    16    13    1
   172    16    17    1
   173     6     8   ar
   174     6     5    1
   175     4     3    2
   176    19    17   am
   177    13    12    1
   178    17    18    2
   179     5     2    1
   180     3     2    1
   181     2     1    1
