@<TRIPOS>MOLECULE
tmp/4xbcA01.pdb
 66 62 0 0 0
SMALL
GASTEIGER

@<TRIPOS>ATOM
      1  N         15.3830   35.2480   10.2240 N.3    81  GLU81      -0.1231
      2  CA        15.6940   34.6990   11.5260 C.3    81  GLU81       0.1699
      3  C         15.1910   33.2700   11.6040 C.2    81  GLU81       0.2592
      4  O         14.0470   32.9820   11.2420 O.2    81  GLU81      -0.2718
      5  CB        14.9880   35.5310   12.5940 C.3    81  GLU81       0.0402
      6  CG        15.5520   36.9330   12.8140 C.3    81  GLU81       0.1161
      7  CD        16.0060   37.1710   14.2450 C.2    81  GLU81       0.3649
      8  OE1       16.1530   36.2020   14.9790 O.co2  81  GLU81      -0.2457
      9  OE2       16.2410   38.3230   14.6470 O.co2  81  GLU81      -0.2457
     10  N         16.0420   32.3840   12.1010 N.am   82  GLY82      -0.1957
     11  CA        15.6690   31.0010   12.3060 C.3    82  GLY82       0.1869
     12  C         16.0420   30.0900   11.1680 C.2    82  GLY82       0.2309
     13  O         15.9690   28.8640   11.3310 O.2    82  GLY82      -0.2863
     14  N         22.0630   28.0440   12.8650 N.3   102  ARG102     -0.1231
     15  CA        20.7260   28.6170   12.8930 C.3   102  ARG102      0.1694
     16  C         20.8820   30.1240   12.9960 C.2   102  ARG102      0.2592
     17  O         21.4420   30.6330   13.9760 O.2   102  ARG102     -0.2718
     18  CB        19.8890   28.0910   14.0540 C.3   102  ARG102      0.0321
     19  CG        18.4910   28.6870   14.0240 C.3   102  ARG102      0.0489
     20  CD        17.5760   28.0380   15.0670 C.3   102  ARG102      0.2205
     21  NE        17.3270   26.6530   14.6750 N.pl3 102  ARG102     -0.0865
     22  CZ        17.7190   25.5760   15.3510 C.cat 102  ARG102      0.5346
     23  NH1       18.3580   25.6880   16.5100 N.pl3 102  ARG102      0.1354
     24  NH2       17.4500   24.3720   14.8660 N.pl3 102  ARG102      0.1354
     25  N         20.3860   30.8400   12.0040 N.am  103  MET103     -0.1965
     26  CA        20.7170   32.2490   11.8840 C.3   103  MET103      0.1736
     27  C         19.8110   33.1220   12.7350 C.2   103  MET103      0.2617
     28  O         18.6140   32.8360   12.9490 O.2   103  MET103     -0.2715
     29  CB        20.6610   32.6860   10.4240 C.3   103  MET103      0.0427
     30  CG        21.7060   31.9950    9.5620 C.3   103  MET103      0.0599
     31  SD        23.3860   32.0380   10.1410 S.3   103  MET103     -0.1393
     32  CE        23.7670   33.7880    9.9960 C.3   103  MET103      0.0692
     33  N         20.4190   34.1990   13.2300 N.am  104  GLY104     -0.1940
     34  CA        19.7550   35.1710   14.0560 C.3   104  GLY104      0.2014
     35  C         19.5610   36.5240   13.4320 C.2   104  GLY104      0.2638
     36  O         19.1460   36.6340   12.2820 O.2   104  GLY104     -0.2714
     37  N         19.8290   37.5640   14.2140 N.am  105  ALA105     -0.1977
     38  CA        19.5070   38.9230   13.8390 C.3   105  ALA105      0.1597
     39  C         20.5590   39.4970   12.9050 C.2   105  ALA105      0.2287
     40  O         21.7480   39.2140   13.0250 O.2   105  ALA105     -0.2864
     41  CB        19.4750   39.8160   15.0770 C.3   105  ALA105      0.0319
     42  N         24.4000   37.2500   12.9630 N.3   120  SER120     -0.1202
     43  CA        24.9420   36.2500   13.8610 C.3   120  SER120      0.2020
     44  C         24.1210   34.9770   13.7480 C.2   120  SER120      0.2619
     45  O         23.0240   34.9620   13.1890 O.2   120  SER120     -0.2717
     46  CB        24.9550   36.7290   15.3160 C.3   120  SER120      0.2103
     47  OG        23.7080   37.2420   15.6740 O.3   120  SER120     -0.2182
     48  N         24.7100   33.8820   14.2160 N.am  121  GLY121     -0.1942
     49  CA        24.0250   32.6010   14.2060 C.3   121  GLY121      0.2014
     50  C         24.6440   31.6600   15.2110 C.2   121  GLY121      0.2638
     51  O         25.7530   31.8910   15.7020 O.2   121  GLY121     -0.2714
     52  N         23.8990   30.5990   15.5370 N.am  122  MET122     -0.1976
     53  CA        24.3230   29.5960   16.5060 C.3   122  MET122      0.1605
     54  C         24.7350   28.3370   15.7700 C.2   122  MET122      0.2287
     55  O         23.9320   27.7700   15.0220 O.2   122  MET122     -0.2864
     56  CB        23.1740   29.2670   17.4440 C.3   122  MET122      0.0413
     57  CG        23.1890   27.9020   18.0730 C.3   122  MET122      0.0598
     58  SD        21.8090   27.7150   19.2120 S.3   122  MET122     -0.1393
     59  CE        20.3660   27.8810   18.1710 C.3   122  MET122      0.0692
     60  N         28.8020   30.9690   18.7290 N.3   159  THR159     -0.1218
     61  CA        28.1820   32.0070   17.9190 C.3   159  THR159      0.1862
     62  C         29.1410   32.3520   16.7950 C.2   159  THR159      0.2287
     63  O         30.3430   32.4940   17.0240 O.2   159  THR159     -0.2866
     64  CB        27.9190   33.2780   18.7420 C.3   159  THR159      0.1770
     65  OG1       27.0700   32.9800   19.8460 O.3   159  THR159     -0.2211
     66  CG2       27.2510   34.3750   17.8940 C.3   159  THR159      0.0375
@<TRIPOS>BOND
     1    30    31    1
     2    30    29    1
     3    32    31    1
     4     1     2    1
     5    29    26    1
     6    12    13    2
     7    12    11    1
     8     4     3    2
     9     2     3    1
    10     2     5    1
    11     3    10   am
    12    26    25    1
    13    26    27    1
    14    25    16   am
    15    10    11    1
    16    36    35    2
    17     5     6    1
    18    27    28    2
    19    27    33   am
    20     6     7    1
    21    14    15    1
    22    15    16    1
    23    15    18    1
    24    39    40    2
    25    39    38    1
    26    42    43    1
    27    16    17    2
    28    45    44    2
    29    33    34    1
    30    35    34    1
    31    35    37   am
    32    44    43    1
    33    44    48   am
    34    38    37    1
    35    38    41    1
    36    43    46    1
    37    19    18    1
    38    19    20    1
    39    49    48    1
    40    49    50    1
    41     7     9   ar
    42     7     8   ar
    43    21    20    1
    44    21    22    2
    45    24    22    1
    46    55    54    2
    47    50    52   am
    48    50    51    2
    49    46    47    1
    50    22    23    1
    51    52    53    1
    52    54    53    1
    53    53    56    1
    54    62    63    2
    55    62    61    1
    56    56    57    1
    57    66    64    1
    58    61    60    1
    59    61    64    1
    60    57    58    1
    61    59    58    1
    62    64    65    1
