@<TRIPOS>MOLECULE
tmp/4xbcA00.pdb
 144 137 0 0 0
SMALL
GASTEIGER

@<TRIPOS>ATOM
      1  N         44.0510   35.5890    2.8880 N.3    16  SER16      -0.1217
      2  CA        44.1870   34.8410    4.1280 C.3    16  SER16       0.1889
      3  C         42.9460   34.0060    4.4340 C.2    16  SER16       0.2288
      4  O         42.7930   33.5180    5.5640 O.2    16  SER16      -0.2866
      5  CB        44.5280   35.7860    5.2730 C.3    16  SER16       0.2089
      6  OG        43.5440   36.7710    5.3780 O.3    16  SER16      -0.2183
      7  N         38.5460   41.7030    5.3560 N.3    32  HIS32      -0.1226
      8  CA        39.8510   41.6250    6.0000 C.3    32  HIS32       0.1752
      9  C         40.7440   40.5200    5.4480 C.2    32  HIS32       0.2595
     10  O         41.9340   40.5250    5.7750 O.2    32  HIS32      -0.2718
     11  CB        39.7260   41.5080    7.5290 C.3    32  HIS32       0.0759
     12  CG        39.2630   40.1670    8.0150 C.ar   32  HIS32       0.0818
     13  ND1       37.9360   39.8830    8.2440 N.ar   32  HIS32      -0.2268
     14  CD2       39.9480   39.0320    8.3070 C.ar   32  HIS32       0.1154
     15  CE1       37.8220   38.6360    8.6740 C.ar   32  HIS32       0.1986
     16  NE2       39.0330   38.1020    8.7290 N.ar   32  HIS32      -0.2212
     17  N         40.2200   39.5770    4.6430 N.am   33  VAL33      -0.1980
     18  CA        41.0910   38.5630    4.0480 C.3    33  VAL33       0.1595
     19  C         41.6610   39.0050    2.7040 C.2    33  VAL33       0.2287
     20  O         42.5780   38.3470    2.1880 O.2    33  VAL33      -0.2864
     21  CB        40.4440   37.1650    3.9030 C.3    33  VAL33       0.0276
     22  CG1       39.7180   36.7540    5.1840 C.3    33  VAL33       0.0022
     23  CG2       39.5110   37.0970    2.7040 C.3    33  VAL33       0.0022
     24  N         32.6760   44.6410    6.1980 N.3    56  GLU56      -0.1245
     25  CA        33.3920   43.3870    6.0040 C.3    56  GLU56       0.1567
     26  C         32.8940   42.6010    4.8020 C.2    56  GLU56       0.2260
     27  O         33.3420   41.4750    4.5980 O.2    56  GLU56      -0.2867
     28  CB        33.3810   42.5420    7.2810 C.3    56  GLU56       0.0388
     29  CG        34.4170   43.0320    8.3000 C.3    56  GLU56       0.1160
     30  CD        35.8520   43.0330    7.7300 C.2    56  GLU56       0.3649
     31  OE1       36.5230   44.1010    7.7310 O.co2  56  GLU56      -0.2457
     32  OE2       36.3070   41.9640    7.3080 O.co2  56  GLU56      -0.2457
     33  N         32.9140   44.3550   16.6940 N.3   111  ILE111     -0.1231
     34  CA        33.7470   43.1610   16.7450 C.3   111  ILE111      0.1692
     35  C         35.1860   43.6130   16.5600 C.2   111  ILE111      0.2591
     36  O         35.5060   44.2560   15.5570 O.2   111  ILE111     -0.2718
     37  CB        33.3500   42.1670   15.6440 C.3   111  ILE111      0.0266
     38  CG1       31.9200   41.6870   15.9120 C.3   111  ILE111      0.0019
     39  CG2       34.3160   40.9820   15.6090 C.3   111  ILE111      0.0020
     40  CD1       31.3050   40.9520   14.7800 C.3   111  ILE111      0.0001
     41  N         36.0400   43.3070   17.5330 N.am  112  GLN112     -0.1979
     42  CA        37.4690   43.6310   17.4550 C.3   112  GLN112      0.1601
     43  C         37.6880   45.0920   17.0930 C.2   112  GLN112      0.2287
     44  O         38.5240   45.4260   16.2440 O.2   112  GLN112     -0.2864
     45  CB        38.1760   42.7160   16.4570 C.3   112  GLN112      0.0394
     46  CG        37.9930   41.2720   16.7740 C.3   112  GLN112      0.0908
     47  CD        38.6700   40.9080   18.0610 C.2   112  GLN112      0.2608
     48  OE1       38.0170   40.6650   19.0730 O.2   112  GLN112     -0.2717
     49  NE2       39.9900   40.8940   18.0430 N.am  112  GLN112     -0.0878
     50  N         35.7230   47.3400   15.5880 N.3   114  ARG114     -0.1245
     51  CA        35.0230   47.9790   14.4910 C.3   114  ARG114      0.1563
     52  C         33.5800   47.5200   14.4050 C.2   114  ARG114      0.2260
     53  O         33.2020   46.4380   14.8570 O.2   114  ARG114     -0.2867
     54  CB        35.7290   47.7730   13.1620 C.3   114  ARG114      0.0307
     55  CG        35.9150   46.3340   12.7420 C.3   114  ARG114      0.0489
     56  CD        37.2140   46.2320   11.9520 C.3   114  ARG114      0.2205
     57  NE        38.3240   45.8450   12.8050 N.pl3 114  ARG114     -0.0865
     58  CZ        39.6060   45.9750   12.4850 C.cat 114  ARG114      0.5346
     59  NH1       39.9630   46.5060   11.3130 N.pl3 114  ARG114      0.1354
     60  NH2       40.5350   45.5760   13.3460 N.pl3 114  ARG114      0.1354
     61  N         30.5810   46.1130   12.4200 N.3   116  VAL116     -0.1245
     62  CA        30.4630   45.1600   11.3140 C.3   116  VAL116      0.1561
     63  C         28.9830   44.8860   11.0600 C.2   116  VAL116      0.2260
     64  O         28.2720   44.4320   11.9580 O.2   116  VAL116     -0.2867
     65  CB        31.1920   43.8480   11.6220 C.3   116  VAL116      0.0252
     66  CG1       30.9390   42.7990   10.5190 C.3   116  VAL116      0.0019
     67  CG2       32.6700   44.1100   11.8400 C.3   116  VAL116      0.0019
     68  N         34.5300   26.9410   13.6560 N.3   127  THR127     -0.1203
     69  CA        35.3380   27.7320   12.7440 C.3   127  THR127      0.1994
     70  C         36.6570   28.1170   13.3990 C.2   127  THR127      0.2618
     71  O         36.7650   28.1770   14.6260 O.2   127  THR127     -0.2717
     72  CB        34.5680   28.9800   12.3240 C.3   127  THR127      0.1784
     73  OG1       34.1700   29.7180   13.4830 O.3   127  THR127     -0.2211
     74  CG2       33.3150   28.5720   11.5730 C.3   127  THR127      0.0376
     75  N         37.6610   28.3590   12.5660 N.am  128  ILE128     -0.1966
     76  CA        39.0300   28.6100   13.0100 C.3   128  ILE128      0.1712
     77  C         39.6400   29.7280   12.1830 C.2   128  ILE128      0.2458
     78  O         39.1230   30.1050   11.1210 O.2   128  ILE128     -0.2730
     79  CB        39.8990   27.3410   12.8980 C.3   128  ILE128      0.0289
     80  CG1       40.0090   26.8880   11.4470 C.3   128  ILE128      0.0022
     81  CG2       39.3090   26.2230   13.7730 C.3   128  ILE128      0.0023
     82  CD1       41.0360   25.7760   11.2330 C.3   128  ILE128      0.0001
     83  N         40.7560   30.2900   12.6480 N.am  129  PRO129     -0.2716
     84  CA        41.5200   31.1960   11.7930 C.3   129  PRO129      0.1536
     85  C         41.8310   30.5350   10.4630 C.2   129  PRO129      0.2599
     86  O         42.2270   29.3640   10.3950 O.2   129  PRO129     -0.2715
     87  CB        42.7860   31.4690   12.6120 C.3   129  PRO129      0.0310
     88  CG        42.3520   31.3080   13.9610 C.3   129  PRO129      0.0237
     89  CD        41.3770   30.1750   13.9700 C.3   129  PRO129      0.0939
     90  N         41.6200   31.2890    9.4120 N.am  130  GLY130     -0.1955
     91  CA        41.7760   30.8240    8.0510 C.3   130  GLY130      0.1869
     92  C         40.4750   30.5630    7.3240 C.2   130  GLY130      0.2309
     93  O         40.4880   30.4670    6.0950 O.2   130  GLY130     -0.2863
     94  N         37.7620   32.5670    7.1400 N.3   132  CYS132     -0.1235
     95  CA        36.9350   33.6900    6.7550 C.3   132  CYS132      0.1677
     96  C         36.7960   33.7710    5.2410 C.2   132  CYS132      0.2270
     97  O         37.7040   33.4200    4.4800 O.2   132  CYS132     -0.2867
     98  CB        37.4670   34.9880    7.3250 C.3   132  CYS132      0.0956
     99  SG        37.0580   35.1490    9.0810 S.3   132  CYS132     -0.0801
    100  N         31.7900   34.2880    5.8850 N.3   150  HIS150     -0.1226
    101  CA        32.2140   34.1340    7.2760 C.3   150  HIS150      0.1752
    102  C         33.1880   35.2210    7.6980 C.2   150  HIS150      0.2596
    103  O         34.1800   35.4700    7.0120 O.2   150  HIS150     -0.2718
    104  CB        32.8810   32.7860    7.4990 C.3   150  HIS150      0.0759
    105  CG        33.1620   32.5510    8.9450 C.ar  150  HIS150      0.0818
    106  ND1       32.1530   32.4720    9.8820 N.ar  150  HIS150     -0.2268
    107  CD2       34.3230   32.4710    9.6290 C.ar  150  HIS150      0.1154
    108  CE1       32.6900   32.3320   11.0850 C.ar  150  HIS150      0.1986
    109  NE2       34.0030   32.3390   10.9570 N.ar  150  HIS150     -0.2212
    110  N         32.9320   35.8340    8.8860 N.am  151  ALA151     -0.1966
    111  CA        33.7340   36.9500    9.3570 C.3   151  ALA151      0.1728
    112  C         34.2850   36.7960   10.7710 C.2   151  ALA151      0.2616
    113  O         35.3750   37.3060   11.0510 O.2   151  ALA151     -0.2715
    114  CB        32.9140   38.2440    9.2610 C.3   151  ALA151      0.0334
    115  N         33.5460   36.1770   11.6850 N.am  152  ALA152     -0.1963
    116  CA        33.9500   36.2120   13.0870 C.3   152  ALA152      0.1728
    117  C         33.2270   35.1280   13.8780 C.2   152  ALA152      0.2616
    118  O         32.2570   34.5180   13.4180 O.2   152  ALA152     -0.2715
    119  CB        33.6670   37.5960   13.6750 C.3   152  ALA152      0.0334
    120  N         33.7150   34.9070   15.0930 N.am  153  ALA153     -0.1963
    121  CA        33.0460   34.0140   16.0170 C.3   153  ALA153      0.1728
    122  C         33.3510   34.4690   17.4350 C.2   153  ALA153      0.2617
    123  O         34.1880   35.3440   17.6690 O.2   153  ALA153     -0.2715
    124  CB        33.4840   32.5650   15.8050 C.3   153  ALA153      0.0334
    125  N         32.6340   33.8860   18.3800 N.am  154  THR154     -0.1937
    126  CA        33.0030   34.0570   19.7720 C.3   154  THR154      0.2028
    127  C         34.1830   33.1470   20.1010 C.2   154  THR154      0.2642
    128  O         34.4730   32.1810   19.3850 O.2   154  THR154     -0.2714
    129  CB        31.8440   33.7170   20.7010 C.3   154  THR154      0.1808
    130  OG1       31.3550   32.4110   20.3940 O.3   154  THR154     -0.2208
    131  CG2       30.7200   34.7280   20.5580 C.3   154  THR154      0.0379
    132  N         34.8860   33.4920   21.1810 N.am  155  LYS155     -0.1977
    133  CA        36.0220   32.6820   21.6120 C.3   155  LYS155      0.1596
    134  C         35.5960   31.2550   21.9460 C.2   155  LYS155      0.2287
    135  O         36.3640   30.3180   21.7350 O.2   155  LYS155     -0.2864
    136  CB        36.7370   33.3390   22.7870 C.3   155  LYS155      0.0298
    137  CG        37.3390   34.6900   22.4570 C.3   155  LYS155      0.0038
    138  CD        38.1660   34.6840   21.1790 C.3   155  LYS155      0.0206
    139  CE        39.0600   35.9120   21.1070 C.3   155  LYS155      0.1093
    140  NZ        39.6090   36.1300   19.7430 N.3   155  LYS155     -0.1314
    141  N         33.2940   29.7800   20.2390 N.3   157  GLY157     -0.1225
    142  CA        32.9690   29.2060   18.9530 C.3   157  GLY157      0.1811
    143  C         31.4960   28.9670   18.6890 C.2   157  GLY157      0.2280
    144  O         31.1380   28.7060   17.5370 O.2   157  GLY157     -0.2866
@<TRIPOS>BOND
     1    20    19    2
     2    23    21    1
     3    19    18    1
     4     1     2    1
     5    21    18    1
     6    21    22    1
     7    18    17    1
     8     2     3    1
     9     2     5    1
    10     3     4    2
    11    97    96    2
    12    27    26    2
    13    17     9   am
    14    26    25    1
    15    96    95    1
    16     5     6    1
    17     7     8    1
    18     9    10    2
    19     9     8    1
    20   100   101    1
    21     8    11    1
    22    25    24    1
    23    25    28    1
    24    93    92    2
    25    95    94    1
    26    95    98    1
    27   103   102    2
    28   101   104    1
    29   101   102    1
    30    28    29    1
    31    32    30   ar
    32    92    91    1
    33    98    99    1
    34   104   105    1
    35    11    12    1
    36   102   110   am
    37    30    31   ar
    38    30    29    1
    39    12    13   ar
    40    12    14   ar
    41    91    90    1
    42    13    15   ar
    43    14    16   ar
    44    15    16   ar
    45   110   111    1
    46   105   107   ar
    47   105   106   ar
    48   114   111    1
    49   111   112    1
    50    90    85   am
    51   107   109   ar
    52   106   108   ar
    53    86    85    2
    54    85    84    1
    55    66    65    1
    56   112   113    2
    57   112   115   am
    58   109   108   ar
    59    63    62    1
    60    63    64    2
    61    78    77    2
    62    82    80    1
    63    59    58    1
    64    62    65    1
    65    62    61    1
    66    80    79    1
    67    74    72    1
    68    65    67    1
    69   115   116    1
    70    84    87    1
    71    84    83    1
    72    56    55    1
    73    56    57    1
    74    77    83   am
    75    77    76    1
    76    72    69    1
    77    72    73    1
    78    58    57    2
    79    58    60    1
    80    75    76    1
    81    75    70   am
    82    87    88    1
    83    83    89    1
    84    55    54    1
    85    69    70    1
    86    69    68    1
    87    79    76    1
    88    79    81    1
    89   116   119    1
    90   116   117    1
    91    54    51    1
    92    70    71    2
    93   118   117    2
    94   117   120   am
    95    88    89    1
    96    52    51    1
    97    52    53    2
    98    51    50    1
    99    40    38    1
   100   120   121    1
   101    36    35    2
   102    39    37    1
   103    37    38    1
   104    37    34    1
   105   124   121    1
   106   121   122    1
   107    44    43    2
   108    45    46    1
   109    45    42    1
   110    35    34    1
   111    35    41   am
   112    33    34    1
   113    46    47    1
   114    43    42    1
   115   122   123    2
   116   122   125   am
   117    42    41    1
   118   144   143    2
   119    49    47   am
   120    47    48    2
   121   125   126    1
   122   143   142    1
   123   142   141    1
   124   128   127    2
   125   140   139    1
   126   126   127    1
   127   126   129    1
   128   127   132   am
   129   130   129    1
   130   131   129    1
   131   139   138    1
   132   138   137    1
   133   132   133    1
   134   133   134    1
   135   133   136    1
   136   135   134    2
   137   137   136    1
