@<TRIPOS>MOLECULE
tmp/4xbdA00.pdb
 131 125 0 0 0
SMALL
GASTEIGER

@<TRIPOS>ATOM
      1  N        -13.7710   20.7880  -22.1010 N.3    16  SER16      -0.1217
      2  CA       -15.1810   20.5230  -22.3390 C.3    16  SER16       0.1889
      3  C        -15.4200   19.2010  -23.0440 C.2    16  SER16       0.2288
      4  O        -16.5320   18.9560  -23.5470 O.2    16  SER16      -0.2866
      5  CB       -15.8280   21.6800  -23.1050 C.3    16  SER16       0.2089
      6  OG       -15.1830   21.8820  -24.3490 O.3    16  SER16      -0.2183
      7  N        -11.3230   22.5980  -30.0860 N.3    32  HIS32      -0.1226
      8  CA       -12.3440   23.4360  -29.4590 C.3    32  HIS32       0.1752
      9  C        -12.6800   23.0460  -28.0170 C.2    32  HIS32       0.2595
     10  O        -13.3540   23.8380  -27.3280 O.2    32  HIS32      -0.2718
     11  CB       -13.6210   23.5440  -30.3190 C.3    32  HIS32       0.0759
     12  CG       -14.4860   22.3160  -30.3070 C.ar   32  HIS32       0.0818
     13  ND1      -14.4160   21.3450  -31.2840 N.ar   32  HIS32      -0.2268
     14  CD2      -15.4750   21.9310  -29.4660 C.ar   32  HIS32       0.1154
     15  CE1      -15.2990   20.3930  -31.0200 C.ar   32  HIS32       0.1986
     16  NE2      -15.9490   20.7230  -29.9180 N.ar   32  HIS32      -0.2212
     17  N        -12.2550   21.8660  -27.5460 N.am   33  VAL33      -0.1980
     18  CA       -12.4790   21.5190  -26.1410 C.3    33  VAL33       0.1595
     19  C        -11.3280   21.9490  -25.2440 C.2    33  VAL33       0.2287
     20  O        -11.4720   21.9000  -24.0150 O.2    33  VAL33      -0.2864
     21  CB       -12.8110   20.0270  -25.9240 C.3    33  VAL33       0.0276
     22  CG1      -13.8710   19.5420  -26.9220 C.3    33  VAL33       0.0022
     23  CG2      -11.5610   19.1570  -25.9660 C.3    33  VAL33       0.0022
     24  N         -8.6560   21.6480  -36.1220 N.3    56  GLU56      -0.1245
     25  CA        -9.3550   21.0290  -34.9930 C.3    56  GLU56       0.1567
     26  C         -8.6130   19.8570  -34.3650 C.2    56  GLU56       0.2260
     27  O         -9.1480   19.2270  -33.4430 O.2    56  GLU56      -0.2867
     28  CB       -10.8300   20.7030  -35.2590 C.3    56  GLU56       0.0388
     29  CG       -11.7130   21.9340  -35.1960 C.3    56  GLU56       0.1160
     30  CD       -11.7360   22.5640  -33.7950 C.2    56  GLU56       0.3649
     31  OE1      -11.4170   23.7790  -33.7020 O.co2  56  GLU56      -0.2457
     32  OE2      -12.0660   21.8210  -32.8290 O.co2  56  GLU56      -0.2457
     33  N        -17.7140   22.9970  -40.7500 N.3   111  ILE111     -0.1231
     34  CA       -18.7200   22.5560  -39.8010 C.3   111  ILE111      0.1692
     35  C        -18.9960   23.7240  -38.8710 C.2   111  ILE111      0.2591
     36  O        -18.0790   24.2260  -38.2110 O.2   111  ILE111     -0.2718
     37  CB       -18.2430   21.3250  -39.0190 C.3   111  ILE111      0.0266
     38  CG1      -17.9150   20.1940  -40.0000 C.3   111  ILE111      0.0019
     39  CG2      -19.3100   20.8900  -38.0320 C.3   111  ILE111      0.0020
     40  CD1      -17.2010   19.0050  -39.4000 C.3   111  ILE111      0.0001
     41  N        -20.2390   24.1920  -38.8670 N.am  112  GLN112     -0.1979
     42  CA       -20.6180   25.3780  -38.1080 C.3   112  GLN112      0.1601
     43  C        -19.6450   26.5330  -38.3470 C.2   112  GLN112      0.2287
     44  O        -19.2860   27.2750  -37.4310 O.2   112  GLN112     -0.2864
     45  CB       -20.7910   25.0650  -36.6280 C.3   112  GLN112      0.0394
     46  CG       -21.8980   24.0700  -36.3650 C.3   112  GLN112      0.0908
     47  CD       -22.1750   23.8660  -34.8870 C.2   112  GLN112      0.2608
     48  OE1      -21.2540   23.7350  -34.0720 O.2   112  GLN112     -0.2717
     49  NE2      -23.4510   23.8490  -34.5340 N.am  112  GLN112     -0.0878
     50  N        -16.4560   26.6530  -39.2010 N.3   114  ARG114     -0.1245
     51  CA       -15.0310   26.4710  -38.9390 C.3   114  ARG114      0.1563
     52  C        -14.4630   25.3420  -39.7900 C.2   114  ARG114      0.2260
     53  O        -15.1150   24.3140  -39.9960 O.2   114  ARG114     -0.2867
     54  CB       -14.7870   26.1830  -37.4510 C.3   114  ARG114      0.0307
     55  CG       -15.1140   27.3660  -36.5310 C.3   114  ARG114      0.0489
     56  CD       -13.8540   28.0680  -35.9990 C.3   114  ARG114      0.2205
     57  NE       -13.1300   27.2330  -35.0370 N.pl3 114  ARG114     -0.0865
     58  CZ       -13.3740   27.1990  -33.7270 C.cat 114  ARG114      0.5346
     59  NH1      -14.3260   27.9570  -33.1950 N.pl3 114  ARG114      0.1354
     60  NH2      -12.6620   26.3960  -32.9400 N.pl3 114  ARG114      0.1354
     61  N        -12.3870   22.1790  -40.6660 N.3   116  VAL116     -0.1245
     62  CA       -11.9820   20.9680  -39.9690 C.3   116  VAL116      0.1561
     63  C        -11.2870   20.0930  -40.9900 C.2   116  VAL116      0.2260
     64  O        -11.8600   19.7830  -42.0340 O.2   116  VAL116     -0.2867
     65  CB       -13.1940   20.2310  -39.3760 C.3   116  VAL116      0.0252
     66  CG1      -12.7640   18.8850  -38.7550 C.3   116  VAL116      0.0019
     67  CG2      -13.8950   21.1130  -38.3580 C.3   116  VAL116      0.0019
     68  N        -23.4860   10.1540  -30.8630 N.3   127  THR127     -0.1203
     69  CA       -22.6230   11.0450  -30.1000 C.3   127  THR127      0.1994
     70  C        -23.3850   12.2970  -29.6770 C.2   127  THR127      0.2618
     71  O        -24.3690   12.6940  -30.3120 O.2   127  THR127     -0.2717
     72  CB       -21.4020   11.4270  -30.9450 C.3   127  THR127      0.1784
     73  OG1      -21.8260   11.9630  -32.2080 O.3   127  THR127     -0.2211
     74  CG2      -20.5290   10.2020  -31.2020 C.3   127  THR127      0.0376
     75  N        -22.9320   12.9090  -28.5840 N.am  128  ILE128     -0.1966
     76  CA       -23.6390   14.0370  -27.9770 C.3   128  ILE128      0.1712
     77  C        -22.6600   15.1340  -27.5750 C.2   128  ILE128      0.2458
     78  O        -21.4420   14.9020  -27.5700 O.2   128  ILE128     -0.2730
     79  CB       -24.4860   13.5800  -26.7770 C.3   128  ILE128      0.0289
     80  CG1      -23.5880   12.9530  -25.7130 C.3   128  ILE128      0.0022
     81  CG2      -25.6010   12.6230  -27.2440 C.3   128  ILE128      0.0023
     82  CD1      -24.3390   12.5410  -24.4430 C.3   128  ILE128      0.0001
     83  N        -23.1390   16.3320  -27.2360 N.am  129  PRO129     -0.2716
     84  CA       -22.2340   17.3490  -26.7030 C.3   129  PRO129      0.1536
     85  C        -21.5440   16.8040  -25.4670 C.2   129  PRO129      0.2599
     86  O        -22.1340   16.0680  -24.6750 O.2   129  PRO129     -0.2715
     87  CB       -23.1580   18.5270  -26.3710 C.3   129  PRO129      0.0310
     88  CG       -24.3640   18.3180  -27.2470 C.3   129  PRO129      0.0237
     89  CD       -24.5220   16.8310  -27.3740 C.3   129  PRO129      0.0939
     90  N        -20.2490   17.0950  -25.3670 N.am  130  GLY130     -0.1955
     91  CA       -19.3980   16.5350  -24.3480 C.3   130  GLY130      0.1869
     92  C        -18.5000   15.4070  -24.8280 C.2   130  GLY130      0.2309
     93  O        -17.5190   15.0870  -24.1330 O.2   130  GLY130     -0.2863
     94  N        -16.6280   15.3000  -27.5730 N.3   132  CYS132     -0.1235
     95  CA       -15.5210   15.6420  -28.4570 C.3   132  CYS132      0.1677
     96  C        -14.1860   15.3560  -27.8080 C.2   132  CYS132      0.2270
     97  O        -14.0160   15.5060  -26.5960 O.2   132  CYS132     -0.2867
     98  CB       -15.5990   17.0820  -28.9290 C.3   132  CYS132      0.0956
     99  SG       -16.8260   17.2390  -30.2080 S.3   132  CYS132     -0.0801
    100  N        -12.7820   12.7980  -31.9140 N.3   150  HIS150     -0.1226
    101  CA       -14.1470   13.1460  -32.2870 C.3   150  HIS150      0.1752
    102  C        -14.3450   14.6580  -32.3220 C.2   150  HIS150      0.2596
    103  O        -14.0050   15.3640  -31.3690 O.2   150  HIS150     -0.2718
    104  CB       -15.1390   12.5220  -31.3250 C.3   150  HIS150      0.0759
    105  CG       -16.5410   12.7590  -31.7440 C.ar  150  HIS150      0.0818
    106  ND1      -17.0560   12.2180  -32.8970 N.ar  150  HIS150     -0.2268
    107  CD2      -17.5110   13.5470  -31.2290 C.ar  150  HIS150      0.1154
    108  CE1      -18.3040   12.6220  -33.0530 C.ar  150  HIS150      0.1986
    109  NE2      -18.6010   13.4400  -32.0620 N.ar  150  HIS150     -0.2212
    110  N        -14.9470   15.1510  -33.4020 N.am  151  ALA151     -0.1966
    111  CA       -15.1680   16.5880  -33.5690 C.3   151  ALA151      0.1728
    112  C        -16.6050   17.0370  -33.8340 C.2   151  ALA151      0.2616
    113  O        -16.9510   18.1640  -33.4630 O.2   151  ALA151     -0.2715
    114  CB       -14.2800   17.1030  -34.7010 C.3   151  ALA151      0.0334
    115  N        -17.4400   16.2220  -34.4890 N.am  152  ALA152     -0.1963
    116  CA       -18.7400   16.7090  -34.9620 C.3   152  ALA152      0.1728
    117  C        -19.6310   15.5350  -35.3460 C.2   152  ALA152      0.2616
    118  O        -19.1560   14.4140  -35.5530 O.2   152  ALA152     -0.2715
    119  CB       -18.5530   17.6230  -36.1780 C.3   152  ALA152      0.0334
    120  N        -20.9390   15.7960  -35.4310 N.am  153  ALA153     -0.1963
    121  CA       -21.8530   14.8190  -35.9970 C.3   153  ALA153      0.1728
    122  C        -23.0430   15.5520  -36.5800 C.2   153  ALA153      0.2616
    123  O        -23.3730   16.6600  -36.1590 O.2   153  ALA153     -0.2715
    124  CB       -22.3740   13.8280  -34.9510 C.3   153  ALA153      0.0334
    125  N        -23.7000   14.9060  -37.5330 N.am  154  THR154     -0.1951
    126  CA       -24.9330   15.4410  -38.0950 C.3   154  THR154      0.1897
    127  C        -26.0760   15.3630  -37.0860 C.2   154  THR154      0.2313
    128  O        -26.0700   14.5380  -36.1680 O.2   154  THR154     -0.2863
    129  CB       -25.3160   14.6830  -39.3740 C.3   154  THR154      0.1794
    130  OG1      -25.4300   13.2810  -39.0950 O.3   154  THR154     -0.2208
    131  CG2      -24.2610   14.8870  -40.4320 C.3   154  THR154      0.0378
@<TRIPOS>BOND
     1    64    63    2
     2    63    62    1
     3    33    34    1
     4    61    62    1
     5   131   129    1
     6    38    40    1
     7    38    37    1
     8    53    52    2
     9    62    65    1
    10    34    37    1
    11    34    35    1
    12    52    51    1
    13    65    66    1
    14    65    67    1
    15   129   130    1
    16   129   126    1
    17    50    51    1
    18    37    39    1
    19    51    54    1
    20    35    41   am
    21    35    36    2
    22    41    42    1
    23    43    42    1
    24    43    44    2
    25    42    45    1
    26   126   125    1
    27   126   127    1
    28   125   122   am
    29    54    55    1
    30   127   128    2
    31    45    46    1
    32   122   123    2
    33   122   121    1
    34    55    56    1
    35    46    47    1
    36   119   116    1
    37    24    25    1
    38    56    57    1
    39   121   120    1
    40   121   124    1
    41   118   117    2
    42   120   117   am
    43   117   116    1
    44    28    29    1
    45    28    25    1
    46    29    30    1
    47    57    58    2
    48    25    26    1
    49   116   115    1
    50    47    49   am
    51    47    48    2
    52   114   111    1
    53   115   112   am
    54    26    27    2
    55   112   111    1
    56   112   113    2
    57    30    31   ar
    58    30    32   ar
    59    58    59    1
    60    58    60    1
    61   111   110    1
    62   110   102   am
    63   108   106   ar
    64   108   109   ar
    65   106   105   ar
    66   102   101    1
    67   102   103    2
    68   101   100    1
    69   101   104    1
    70    73    72    1
    71   109   107   ar
    72   105   104    1
    73   105   107   ar
    74    13    15   ar
    75    13    12   ar
    76    74    72    1
    77    15    16   ar
    78    72    69    1
    79    68    69    1
    80    11    12    1
    81    11     8    1
    82    71    70    2
    83    12    14   ar
    84    99    98    1
    85    69    70    1
    86     7     8    1
    87    16    14   ar
    88    70    75   am
    89     8     9    1
    90    98    95    1
    91    75    76    1
    92    95    96    1
    93    95    94    1
    94     9    17   am
    95     9    10    2
    96    76    77    1
    97    76    79    1
    98    96    97    2
    99    77    78    2
   100    77    83   am
   101    17    18    1
   102    89    88    1
   103    89    83    1
   104    88    87    1
   105    81    79    1
   106    83    84    1
   107    22    21    1
   108    79    80    1
   109    84    87    1
   110    84    85    1
   111    18    21    1
   112    18    19    1
   113    23    21    1
   114    80    82    1
   115    85    90   am
   116    85    86    2
   117    90    91    1
   118    19    20    2
   119    92    91    1
   120    92    93    2
   121     6     5    1
   122     4     3    2
   123     5     2    1
   124     3     2    1
   125     2     1    1
