@<TRIPOS>MOLECULE
tmp/4xbeA00.pdb
 119 114 0 0 0
SMALL
GASTEIGER

@<TRIPOS>ATOM
      1  N         44.0530  -16.9470   40.2610 N.3     9  GLY9       -0.1210
      2  CA        43.8670  -15.5200   40.4450 C.3     9  GLY9        0.1956
      3  C         42.6460  -14.9650   39.7310 C.2     9  GLY9        0.2612
      4  O         42.2070  -13.8510   40.0140 O.2     9  GLY9       -0.2717
      5  N         42.1120  -15.7370   38.7900 N.am   10  THR10      -0.1952
      6  CA        40.9090  -15.3520   38.0580 C.3    10  THR10       0.1897
      7  C         40.0160  -16.5740   37.9050 C.2    10  THR10       0.2313
      8  O         40.5060  -17.6740   37.6580 O.2    10  THR10      -0.2863
      9  CB        41.2320  -14.7700   36.6520 C.3    10  THR10       0.1794
     10  OG1       42.1010  -13.6360   36.7720 O.3    10  THR10      -0.2208
     11  CG2       39.9540  -14.3420   35.9280 C.3    10  THR10       0.0378
     12  N         36.0260   -6.2900   46.5620 N.3    39  GLN39      -0.1231
     13  CA        36.3550   -4.9500   46.0970 C.3    39  GLN39       0.1698
     14  C         35.9510   -4.7510   44.6450 C.2    39  GLN39       0.2592
     15  O         36.2670   -5.5660   43.7720 O.2    39  GLN39      -0.2718
     16  CB        37.8470   -4.6520   46.2570 C.3    39  GLN39       0.0381
     17  CG        38.1620   -3.1680   46.0760 C.3    39  GLN39       0.0905
     18  CD        39.6370   -2.8510   46.1910 C.2    39  GLN39       0.2608
     19  OE1       40.4880   -3.6750   45.8570 O.2    39  GLN39      -0.2717
     20  NE2       39.9480   -1.6460   46.6570 N.am   39  GLN39      -0.0878
     21  N         35.2440   -3.6570   44.4050 N.am   40  ARG40      -0.1966
     22  CA        34.9020   -3.2240   43.0600 C.3    40  ARG40       0.1714
     23  C         35.8080   -2.0690   42.6720 C.2    40  ARG40       0.2458
     24  O         36.3130   -1.3700   43.5480 O.2    40  ARG40      -0.2730
     25  CB        33.4430   -2.7840   42.9900 C.3    40  ARG40       0.0347
     26  CG        32.5250   -3.5190   43.9270 C.3    40  ARG40       0.0492
     27  CD        31.1180   -2.9580   43.8400 C.3    40  ARG40       0.2205
     28  NE        30.1780   -3.8250   44.5360 N.pl3  40  ARG40      -0.0865
     29  CZ        29.7330   -4.9700   44.0370 C.cat  40  ARG40       0.5346
     30  NH1       30.1410   -5.3650   42.8360 N.pl3  40  ARG40       0.1354
     31  NH2       28.8860   -5.7140   44.7370 N.pl3  40  ARG40       0.1354
     32  N         36.0110   -1.8580   41.3610 N.am   41  PRO41      -0.2716
     33  CA        36.8000   -0.7160   40.8830 C.3    41  PRO41       0.1536
     34  C         36.2800    0.6200   41.4030 C.2    41  PRO41       0.2599
     35  O         35.0780    0.8690   41.3530 O.2    41  PRO41      -0.2715
     36  CB        36.6450   -0.8010   39.3620 C.3    41  PRO41       0.0310
     37  CG        36.4360   -2.2460   39.0970 C.3    41  PRO41       0.0237
     38  CD        35.6150   -2.7510   40.2560 C.3    41  PRO41       0.0939
     39  N         37.1780    1.4590   41.9070 N.am   42  GLY42      -0.1941
     40  CA        36.8050    2.7740   42.3990 C.3    42  GLY42       0.2014
     41  C         36.2620    2.7830   43.8150 C.2    42  GLY42       0.2638
     42  O         35.8380    3.8260   44.3120 O.2    42  GLY42      -0.2714
     43  N         36.2730    1.6240   44.4700 N.am   43  GLN43      -0.1977
     44  CA        35.7140    1.5050   45.8130 C.3    43  GLN43       0.1601
     45  C         36.6980    0.9060   46.8130 C.2    43  GLN43       0.2287
     46  O         37.5740    0.1300   46.4450 O.2    43  GLN43      -0.2864
     47  CB        34.4490    0.6420   45.7940 C.3    43  GLN43       0.0394
     48  CG        33.2910    1.2080   45.0000 C.3    43  GLN43       0.0908
     49  CD        32.0250    0.3920   45.1820 C.2    43  GLN43       0.2608
     50  OE1       31.9820   -0.5410   45.9910 O.2    43  GLN43      -0.2717
     51  NE2       30.9860    0.7360   44.4300 N.am   43  GLN43      -0.0878
     52  N         36.5400   -8.4770   42.7300 N.3    86  VAL86      -0.1245
     53  CA        37.7650   -9.0790   43.2470 C.3    86  VAL86       0.1561
     54  C         37.5760   -9.4300   44.7100 C.2    86  VAL86       0.2260
     55  O         37.0060   -8.6470   45.4690 O.2    86  VAL86      -0.2867
     56  CB        38.9750   -8.1330   43.0900 C.3    86  VAL86       0.0252
     57  CG1       40.2210   -8.7310   43.7440 C.3    86  VAL86       0.0019
     58  CG2       39.2280   -7.8420   41.6250 C.3    86  VAL86       0.0019
     59  N         39.4830  -10.7550   48.2880 N.3    88  TYR88      -0.1241
     60  CA        40.7350  -10.9170   49.0190 C.3    88  TYR88       0.1605
     61  C         40.5170  -11.6650   50.2980 C.2    88  TYR88       0.2264
     62  O         39.5380  -11.4340   51.0120 O.2    88  TYR88      -0.2867
     63  CB        41.3630   -9.5760   49.3810 C.3    88  TYR88       0.0534
     64  CG        41.8290   -8.7670   48.2080 C.ar   88  TYR88      -0.0201
     65  CD1       43.1020   -8.9430   47.6890 C.ar   88  TYR88      -0.0009
     66  CD2       40.9980   -7.8170   47.6190 C.ar   88  TYR88      -0.0009
     67  CE1       43.5370   -8.2010   46.6170 C.ar   88  TYR88       0.0417
     68  CE2       41.4300   -7.0650   46.5460 C.ar   88  TYR88       0.0417
     69  CZ        42.6970   -7.2690   46.0450 C.ar   88  TYR88       0.1957
     70  OH        43.1370   -6.5320   44.9750 O.3    88  TYR88      -0.2866
     71  N         46.7210  -12.4870   47.3460 N.3   101  GLN101     -0.1231
     72  CA        46.8960  -11.6110   46.1920 C.3   101  GLN101      0.1698
     73  C         45.5880  -11.2670   45.4870 C.2   101  GLN101      0.2593
     74  O         45.5690  -10.4230   44.5930 O.2   101  GLN101     -0.2718
     75  CB        47.8660  -12.2410   45.1910 C.3   101  GLN101      0.0381
     76  CG        49.2860  -12.3490   45.7240 C.3   101  GLN101      0.0905
     77  CD        50.2960  -12.6710   44.6380 C.2   101  GLN101      0.2608
     78  OE1       51.1960  -11.8770   44.3600 O.2   101  GLN101     -0.2717
     79  NE2       50.1520  -13.8380   44.0170 N.am  101  GLN101     -0.0878
     80  N         44.5030  -11.9180   45.8960 N.am  102  GLY102     -0.1942
     81  CA        43.1950  -11.6510   45.3260 C.3   102  GLY102      0.2014
     82  C         42.7730  -12.5790   44.2040 C.2   102  GLY102      0.2640
     83  O         43.6040  -13.1000   43.4610 O.2   102  GLY102     -0.2714
     84  N         41.4650  -12.7860   44.0800 N.am  103  THR103     -0.1936
     85  CA        40.9080  -13.5560   42.9740 C.3   103  THR103      0.2028
     86  C         39.8100  -12.7390   42.3190 C.2   103  THR103      0.2642
     87  O         38.8630  -12.3060   42.9820 O.2   103  THR103     -0.2714
     88  CB        40.3290  -14.9200   43.4280 C.3   103  THR103      0.1808
     89  OG1       41.3950  -15.7890   43.8290 O.3   103  THR103     -0.2208
     90  CG2       39.5440  -15.5810   42.2930 C.3   103  THR103      0.0379
     91  N         39.9490  -12.5160   41.0220 N.am  104  LYS104     -0.1977
     92  CA        38.9310  -11.8150   40.2650 C.3   104  LYS104      0.1596
     93  C         37.9060  -12.8060   39.7440 C.2   104  LYS104      0.2287
     94  O         38.2510  -13.7560   39.0390 O.2   104  LYS104     -0.2864
     95  CB        39.5540  -11.0380   39.1070 C.3   104  LYS104      0.0298
     96  CG        38.5380  -10.3400   38.2130 C.3   104  LYS104      0.0038
     97  CD        39.2200   -9.6830   37.0250 C.3   104  LYS104      0.0206
     98  CE        38.2230   -8.9660   36.1280 C.3   104  LYS104      0.1093
     99  NZ        38.9060   -8.3020   34.9770 N.3   104  LYS104     -0.1314
    100  N         40.2370  -12.1480   27.9460 N.3   143  ARG143     -0.1245
    101  CA        41.0420  -10.9480   28.1410 C.3   143  ARG143      0.1563
    102  C         42.4330  -11.0270   27.5030 C.2   143  ARG143      0.2260
    103  O         42.9780  -10.0040   27.0860 O.2   143  ARG143     -0.2867
    104  CB        41.1790  -10.6500   29.6360 C.3   143  ARG143      0.0307
    105  CG        41.7670   -9.2730   29.9620 C.3   143  ARG143      0.0489
    106  CD        41.9850   -9.1270   31.4630 C.3   143  ARG143      0.2205
    107  NE        42.3850   -7.7760   31.8560 N.pl3 143  ARG143     -0.0865
    108  CZ        43.6170   -7.2940   31.7300 C.cat 143  ARG143      0.5346
    109  NH1       43.8930   -6.0560   32.1180 N.pl3 143  ARG143      0.1354
    110  NH2       44.5760   -8.0450   31.2060 N.pl3 143  ARG143      0.1354
    111  N         38.0710   -2.3930   32.0650 N.3   166  GLU166     -0.1245
    112  CA        37.3900   -3.3800   32.8900 C.3   166  GLU166      0.1567
    113  C         36.4030   -4.1250   32.0050 C.2   166  GLU166      0.2260
    114  O         36.0000   -3.6200   30.9580 O.2   166  GLU166     -0.2867
    115  CB        36.6630   -2.7190   34.0630 C.3   166  GLU166      0.0388
    116  CG        37.5670   -1.9320   35.0040 C.3   166  GLU166      0.1160
    117  CD        38.3290   -2.8130   35.9820 C.2   166  GLU166      0.3649
    118  OE1       37.9050   -3.9670   36.2180 O.co2 166  GLU166     -0.2457
    119  OE2       39.3540   -2.3440   36.5240 O.co2 166  GLU166     -0.2457
@<TRIPOS>BOND
     1   103   102    2
     2   102   101    1
     3   100   101    1
     4   101   104    1
     5   104   105    1
     6   105   106    1
     7   114   113    2
     8   110   108    1
     9   106   107    1
    10   108   107    2
    11   108   109    1
    12   113   112    1
    13   111   112    1
    14   112   115    1
    15   115   116    1
    16    99    98    1
    17   116   117    1
    18    11     9    1
    19   117   118   ar
    20   117   119   ar
    21    98    97    1
    22     9    10    1
    23     9     6    1
    24    97    96    1
    25     8     7    2
    26     7     6    1
    27     6     5    1
    28    96    95    1
    29     5     3   am
    30    94    93    2
    31    37    36    1
    32    37    38    1
    33    95    92    1
    34    36    33    1
    35     3     4    2
    36     3     2    1
    37    93    92    1
    38    38    32    1
    39     1     2    1
    40    92    91    1
    41    33    32    1
    42    33    34    1
    43    91    86   am
    44    35    34    2
    45    32    23   am
    46    34    39   am
    47    58    56    1
    48    39    40    1
    49    90    88    1
    50    86    85    1
    51    86    87    2
    52    40    41    1
    53    23    22    1
    54    23    24    2
    55    52    53    1
    56    30    29    1
    57    85    88    1
    58    85    84    1
    59    25    22    1
    60    25    26    1
    61    22    21    1
    62    56    53    1
    63    56    57    1
    64    53    54    1
    65    88    89    1
    66    83    82    2
    67    15    14    2
    68    41    42    2
    69    41    43   am
    70    27    26    1
    71    27    28    1
    72    79    77   am
    73    29    28    2
    74    29    31    1
    75    84    82   am
    76    82    81    1
    77    78    77    2
    78    21    14   am
    79    51    49   am
    80    43    44    1
    81    74    73    2
    82    77    76    1
    83    14    13    1
    84    54    55    2
    85    70    69    1
    86    48    49    1
    87    48    47    1
    88    49    50    2
    89    75    76    1
    90    75    72    1
    91    81    80    1
    92    73    80   am
    93    73    72    1
    94    47    44    1
    95    44    45    1
    96    19    18    2
    97    69    68   ar
    98    69    67   ar
    99    17    18    1
   100    17    16    1
   101    13    16    1
   102    13    12    1
   103    18    20   am
   104    72    71    1
   105    46    45    2
   106    68    66   ar
   107    67    65   ar
   108    66    64   ar
   109    65    64   ar
   110    64    63    1
   111    59    60    1
   112    60    63    1
   113    60    61    1
   114    61    62    2
