@<TRIPOS>MOLECULE
tmp/4xbfA00.pdb
 74 71 0 0 0
SMALL
GASTEIGER

@<TRIPOS>ATOM
      1  N        193.0280   76.6570    5.4180 N.3   109  GLY109     -0.1210
      2  CA       191.9290   76.5360    6.3570 C.3   109  GLY109      0.1956
      3  C        192.3130   76.9850    7.7520 C.2   109  GLY109      0.2611
      4  O        193.4440   76.7760    8.1910 O.2   109  GLY109     -0.2717
      5  N        191.3660   77.6170    8.4400 N.am  110  LYS110     -0.1979
      6  CA       191.5400   78.0160    9.8300 C.3   110  LYS110      0.1596
      7  C        190.4940   77.3340   10.7010 C.2   110  LYS110      0.2287
      8  O        189.2970   77.4240   10.4270 O.2   110  LYS110     -0.2864
      9  CB       191.4320   79.5320    9.9740 C.3   110  LYS110      0.0298
     10  CG       191.5740   80.0450   11.4000 C.3   110  LYS110      0.0038
     11  CD       193.0190   80.0040   11.8620 C.3   110  LYS110      0.0206
     12  CE       193.1300   80.1720   13.3660 C.3   110  LYS110      0.1093
     13  NZ       194.5520   80.1880   13.8120 N.3   110  LYS110     -0.1314
     14  N        189.1970   76.6480   14.8060 N.3   112  ILE112     -0.1245
     15  CA       189.2340   76.9300   16.2360 C.3   112  ILE112      0.1561
     16  C        188.7390   75.7100   16.9960 C.2   112  ILE112      0.2260
     17  O        187.6350   75.2200   16.7550 O.2   112  ILE112     -0.2867
     18  CB       188.3700   78.1570   16.6110 C.3   112  ILE112      0.0252
     19  CG1      189.0040   79.4450   16.0840 C.3   112  ILE112      0.0019
     20  CG2      188.1750   78.2670   18.1170 C.3   112  ILE112      0.0019
     21  CD1      190.3340   79.8020   16.7290 C.3   112  ILE112      0.0001
     22  N        179.0120   81.3600    5.7850 N.3   428  SER428     -0.1202
     23  CA       180.2230   81.9970    5.2770 C.3   428  SER428      0.2020
     24  C        181.4310   81.7650    6.1820 C.2   428  SER428      0.2619
     25  O        182.5630   82.0650    5.8040 O.2   428  SER428     -0.2717
     26  CB       179.9810   83.4960    5.1030 C.3   428  SER428      0.2103
     27  OG       179.5490   84.0890    6.3120 O.3   428  SER428     -0.2182
     28  N        181.1910   81.2220    7.3700 N.am  429  GLY429     -0.1956
     29  CA       182.2590   80.9660    8.3180 C.3   429  GLY429      0.1869
     30  C        181.7730   81.0720    9.7480 C.2   429  GLY429      0.2309
     31  O        180.5730   81.1590    9.9990 O.2   429  GLY429     -0.2863
     32  N        187.4240   88.0120   19.6150 N.3   445  ILE445     -0.1231
     33  CA       186.6290   87.4230   18.5430 C.3   445  ILE445      0.1692
     34  C        187.5370   86.6200   17.6260 C.2   445  ILE445      0.2592
     35  O        188.3680   87.1880   16.9210 O.2   445  ILE445     -0.2718
     36  CB       185.8870   88.4860   17.7020 C.3   445  ILE445      0.0266
     37  CG1      185.0410   89.4050   18.5940 C.3   445  ILE445      0.0019
     38  CG2      185.0390   87.8190   16.6240 C.3   445  ILE445      0.0020
     39  CD1      183.6610   88.8860   18.9080 C.3   445  ILE445      0.0001
     40  N        187.3740   85.3020   17.6350 N.am  446  TYR446     -0.1962
     41  CA       188.1740   84.4210   16.7940 C.3   446  TYR446      0.1771
     42  C        187.3570   84.0080   15.5760 C.2   446  TYR446      0.2619
     43  O        186.3110   83.3800   15.7170 O.2   446  TYR446     -0.2715
     44  CB       188.6350   83.1900   17.5820 C.3   446  TYR446      0.0574
     45  CG       189.6040   83.5100   18.7030 C.ar  446  TYR446     -0.0198
     46  CD1      190.9700   83.5620   18.4710 C.ar  446  TYR446     -0.0009
     47  CD2      189.1510   83.7730   19.9880 C.ar  446  TYR446     -0.0009
     48  CE1      191.8580   83.8590   19.4850 C.ar  446  TYR446      0.0417
     49  CE2      190.0340   84.0730   21.0080 C.ar  446  TYR446      0.0417
     50  CZ       191.3860   84.1160   20.7500 C.ar  446  TYR446      0.1957
     51  OH       192.2720   84.4130   21.7610 O.3   446  TYR446     -0.2866
     52  N        187.8290   84.3740   14.3870 N.am  447  LYS447     -0.1963
     53  CA       187.1300   84.0560   13.1420 C.3   447  LYS447      0.1728
     54  C        187.8120   82.8940   12.4330 C.2   447  LYS447      0.2616
     55  O        189.0380   82.8440   12.3540 O.2   447  LYS447     -0.2715
     56  CB       187.0730   85.2720   12.2170 C.3   447  LYS447      0.0311
     57  CG       186.7870   86.5900   12.9180 C.3   447  LYS447      0.0038
     58  CD       185.5610   87.2740   12.3480 C.3   447  LYS447      0.0206
     59  CE       185.4980   88.7260   12.7860 C.3   447  LYS447      0.1093
     60  NZ       184.2230   89.3830   12.3980 N.3   447  LYS447     -0.1314
     61  N        187.0110   81.9770   11.8990 N.am  448  CYS448     -0.1954
     62  CA       187.5380   80.7470   11.3190 C.3   448  CYS448      0.1843
     63  C        186.5870   80.1060   10.3110 C.2   448  CYS448      0.2625
     64  O        185.4410   80.5290   10.1590 O.2   448  CYS448     -0.2714
     65  CB       187.8370   79.7480   12.4310 C.3   448  CYS448      0.0997
     66  SG       186.4070   79.4310   13.4910 S.3   448  CYS448     -0.0797
     67  N        187.0720   79.0650    9.6420 N.am  449  ASP449     -0.1971
     68  CA       186.2720   78.3270    8.6730 C.3   449  ASP449      0.1709
     69  C        185.3980   77.2900    9.3600 C.2   449  ASP449      0.2293
     70  O        184.2930   77.0020    8.9050 O.2   449  ASP449     -0.2864
     71  CB       187.1720   77.6440    7.6480 C.3   449  ASP449      0.1436
     72  CG       187.9270   78.6300    6.7930 C.2   449  ASP449      0.3671
     73  OD1      187.2770   79.4810    6.1530 O.co2 449  ASP449     -0.2456
     74  OD2      189.1720   78.5570    6.7670 O.co2 449  ASP449     -0.2456
@<TRIPOS>BOND
     1    26    23    1
     2    26    27    1
     3    23    22    1
     4    23    24    1
     5     1     2    1
     6    25    24    2
     7    73    72   ar
     8    24    28   am
     9     2     3    1
    10    74    72   ar
    11    72    71    1
    12    28    29    1
    13    71    68    1
    14     3     4    2
    15     3     5   am
    16    29    30    1
    17     5     6    1
    18    68    69    1
    19    68    67    1
    20    70    69    2
    21    67    63   am
    22    30    31    2
    23     6     9    1
    24     6     7    1
    25     9    10    1
    26    64    63    2
    27    63    62    1
    28     8     7    2
    29    62    61    1
    30    62    65    1
    31    10    11    1
    32    11    12    1
    33    61    54   am
    34    56    57    1
    35    56    53    1
    36    58    59    1
    37    58    57    1
    38    55    54    2
    39    60    59    1
    40    65    66    1
    41    54    53    1
    42    53    52    1
    43    12    13    1
    44    52    42   am
    45    14    15    1
    46    42    43    2
    47    42    41    1
    48    19    18    1
    49    19    21    1
    50    15    18    1
    51    15    16    1
    52    18    20    1
    53    38    36    1
    54    17    16    2
    55    41    44    1
    56    41    40    1
    57    35    34    2
    58    44    45    1
    59    34    40   am
    60    34    33    1
    61    36    33    1
    62    36    37    1
    63    46    45   ar
    64    46    48   ar
    65    33    32    1
    66    37    39    1
    67    45    47   ar
    68    48    50   ar
    69    47    49   ar
    70    50    49   ar
    71    50    51    1
