@<TRIPOS>MOLECULE
tmp/4xbgD02.pdb
 84 85 0 0 0
SMALL
GASTEIGER

@<TRIPOS>ATOM
      1  N         57.5880  -52.6710   32.1170 N.3    27  GLY27      -0.1210
      2  CA        57.0930  -53.4660   31.0120 C.3    27  GLY27       0.1956
      3  C         57.6050  -54.8870   31.0710 C.2    27  GLY27       0.2613
      4  O         57.8130  -55.4470   32.1460 O.2    27  GLY27      -0.2717
      5  N         57.8290  -55.4660   29.8990 N.am   28  SER28      -0.1938
      6  CA        58.3360  -56.8240   29.8070 C.3    28  SER28       0.2055
      7  C         59.7580  -56.8140   29.2690 C.2    28  SER28       0.2643
      8  O         60.0270  -56.2400   28.2210 O.2    28  SER28      -0.2714
      9  CB        57.4220  -57.6770   28.9240 C.3    28  SER28       0.2130
     10  OG        57.9850  -58.9520   28.6920 O.3    28  SER28      -0.2179
     11  N         60.6550  -57.4450   30.0170 N.am   29  PHE29      -0.1959
     12  CA        62.0750  -57.4740   29.6990 C.3    29  PHE29       0.1771
     13  C         62.5000  -58.6220   28.7800 C.2    29  PHE29       0.2620
     14  O         63.2090  -58.4130   27.7940 O.2    29  PHE29      -0.2715
     15  CB        62.8980  -57.5140   30.9890 C.3    29  PHE29       0.0574
     16  CG        64.3790  -57.5550   30.7600 C.ar   29  PHE29      -0.0200
     17  CD1       65.0610  -56.4110   30.3830 C.ar   29  PHE29      -0.0042
     18  CD2       65.0950  -58.7230   30.9510 C.ar   29  PHE29      -0.0042
     19  CE1       66.4260  -56.4340   30.1800 C.ar   29  PHE29      -0.0003
     20  CE2       66.4640  -58.7510   30.7530 C.ar   29  PHE29      -0.0003
     21  CZ        67.1290  -57.6090   30.3670 C.ar   29  PHE29      -0.0000
     22  N         62.0660  -59.8300   29.1180 N.am   30  SER30      -0.1950
     23  CA        62.6160  -61.0510   28.5380 C.3    30  SER30       0.1924
     24  C         62.3540  -61.3060   27.0530 C.2    30  SER30       0.2314
     25  O         63.1880  -61.9050   26.3780 O.2    30  SER30      -0.2863
     26  CB        62.0740  -62.2530   29.3230 C.3    30  SER30       0.2116
     27  OG        62.4780  -62.2170   30.6800 O.3    30  SER30      -0.2180
     28  N         68.0260  -61.5350   33.2350 N.3    74  ARG74      -0.1245
     29  CA        66.5850  -61.5410   33.4720 C.3    74  ARG74       0.1563
     30  C         66.2390  -61.4530   34.9600 C.2    74  ARG74       0.2260
     31  O         65.1160  -61.1000   35.3180 O.2    74  ARG74      -0.2867
     32  CB        65.9470  -62.7910   32.8650 C.3    74  ARG74       0.0307
     33  CG        66.1090  -62.8990   31.3570 C.3    74  ARG74       0.0489
     34  CD        65.5190  -64.1940   30.8270 C.3    74  ARG74       0.2205
     35  NE        64.1150  -64.3360   31.2010 N.pl3  74  ARG74      -0.0865
     36  CZ        63.5160  -65.4980   31.4340 C.cat  74  ARG74       0.5346
     37  NH1       62.2330  -65.5300   31.7710 N.pl3  74  ARG74       0.1354
     38  NH2       64.2000  -66.6290   31.3330 N.pl3  74  ARG74       0.1354
     39  N         66.4590  -57.7080   35.3060 N.3    77  SER77      -0.1217
     40  CA        65.9440  -56.9880   34.1410 C.3    77  SER77       0.1889
     41  C         66.9260  -55.9150   33.6830 C.2    77  SER77       0.2288
     42  O         66.5360  -54.7880   33.3770 O.2    77  SER77      -0.2866
     43  CB        64.5780  -56.3580   34.4370 C.3    77  SER77       0.2089
     44  OG        63.6000  -57.3500   34.6980 O.3    77  SER77      -0.2183
     45  N         50.9970  -55.8510   25.2140 N.3   104  TRP104     -0.1227
     46  CA        51.7230  -55.9180   26.4720 C.3   104  TRP104      0.1737
     47  C         52.2110  -57.3360   26.7880 C.2   104  TRP104      0.2596
     48  O         51.6390  -58.3130   26.3090 O.2   104  TRP104     -0.2718
     49  CB        50.8220  -55.3950   27.5910 C.3   104  TRP104      0.0564
     50  CG        51.5330  -55.0070   28.8320 C.ar  104  TRP104      0.0003
     51  CD1       52.0750  -53.7860   29.1200 C.ar  104  TRP104      0.0946
     52  CD2       51.7640  -55.8300   29.9770 C.ar  104  TRP104      0.0152
     53  NE1       52.6400  -53.8050   30.3720 N.ar  104  TRP104     -0.2442
     54  CE2       52.4620  -55.0480   30.9190 C.ar  104  TRP104      0.0810
     55  CE3       51.4520  -57.1560   30.2960 C.ar  104  TRP104      0.0012
     56  CZ2       52.8540  -55.5500   32.1590 C.ar  104  TRP104      0.0191
     57  CZ3       51.8420  -57.6500   31.5250 C.ar  104  TRP104      0.0001
     58  CH2       52.5350  -56.8500   32.4420 C.ar  104  TRP104      0.0015
     59  N         53.2890  -57.4510   27.5600 N.am  105  GLY105     -0.1942
     60  CA        53.7160  -58.7530   28.0480 C.3   105  GLY105      0.2014
     61  C         54.4460  -59.6300   27.0480 C.2   105  GLY105      0.2639
     62  O         54.7600  -59.1950   25.9410 O.2   105  GLY105     -0.2714
     63  N         54.7350  -60.8650   27.4550 N.am  106  TRP106     -0.1959
     64  CA        55.3950  -61.8420   26.5880 C.3   106  TRP106      0.1771
     65  C         54.6050  -62.0670   25.3020 C.2   106  TRP106      0.2619
     66  O         55.1830  -62.2970   24.2380 O.2   106  TRP106     -0.2715
     67  CB        55.5830  -63.1850   27.3050 C.3   106  TRP106      0.0590
     68  CG        56.6810  -63.2180   28.3310 C.ar  106  TRP106      0.0006
     69  CD1       57.2590  -62.1510   28.9570 C.ar  106  TRP106      0.0946
     70  CD2       57.3390  -64.3860   28.8420 C.ar  106  TRP106      0.0152
     71  NE1       58.2290  -62.5830   29.8310 N.ar  106  TRP106     -0.2442
     72  CE2       58.2990  -63.9510   29.7780 C.ar  106  TRP106      0.0810
     73  CE3       57.2070  -65.7570   28.5990 C.ar  106  TRP106      0.0012
     74  CZ2       59.1220  -64.8390   30.4720 C.ar  106  TRP106      0.0191
     75  CZ3       58.0250  -66.6360   29.2890 C.ar  106  TRP106      0.0001
     76  CH2       58.9700  -66.1730   30.2130 C.ar  106  TRP106      0.0015
     77  N         53.2800  -61.9970   25.4060 N.am  107  LEU107     -0.1977
     78  CA        52.4050  -62.2100   24.2580 C.3   107  LEU107      0.1596
     79  C         52.2300  -60.9120   23.4680 C.2   107  LEU107      0.2287
     80  O         51.3020  -60.7650   22.6780 O.2   107  LEU107     -0.2864
     81  CB        51.0460  -62.7370   24.7230 C.3   107  LEU107      0.0297
     82  CG        51.0500  -64.1570   25.2960 C.3   107  LEU107      0.0022
     83  CD1       49.6960  -64.5100   25.8960 C.3   107  LEU107      0.0001
     84  CD2       51.4520  -65.1720   24.2400 C.3   107  LEU107      0.0001
@<TRIPOS>BOND
     1    80    79    2
     2    79    78    1
     3    66    65    2
     4    84    82    1
     5    78    81    1
     6    78    77    1
     7    81    82    1
     8    45    46    1
     9    82    83    1
    10    65    77   am
    11    65    64    1
    12    62    61    2
    13    48    47    2
    14    25    24    2
    15    46    47    1
    16    46    49    1
    17    64    67    1
    18    64    63    1
    19    47    59   am
    20    61    63   am
    21    61    60    1
    22    24    23    1
    23    67    68    1
    24    59    60    1
    25    49    50    1
    26    14    13    2
    27     8     7    2
    28    68    70   ar
    29    68    69   ar
    30    23    22    1
    31    23    26    1
    32    73    70   ar
    33    73    75   ar
    34    10     9    1
    35    13    22   am
    36    13    12    1
    37    50    51   ar
    38    50    52   ar
    39    70    72   ar
    40     9     6    1
    41    69    71   ar
    42    51    53   ar
    43     7     6    1
    44     7    11   am
    45    75    76   ar
    46    26    27    1
    47    12    11    1
    48    12    15    1
    49    72    71   ar
    50    72    74   ar
    51     6     5    1
    52     5     3   am
    53    52    55   ar
    54    52    54   ar
    55    19    21   ar
    56    19    17   ar
    57    76    74   ar
    58    55    57   ar
    59    21    20   ar
    60    53    54   ar
    61    17    16   ar
    62    20    18   ar
    63    16    18   ar
    64    16    15    1
    65    34    35    1
    66    34    33    1
    67    54    56   ar
    68     2     3    1
    69     2     1    1
    70     3     4    2
    71    35    36    2
    72    38    36    1
    73    33    32    1
    74    36    37    1
    75    57    58   ar
    76    56    58   ar
    77    32    29    1
    78    28    29    1
    79    42    41    2
    80    29    30    1
    81    41    40    1
    82    40    43    1
    83    40    39    1
    84    43    44    1
    85    30    31    2
