@<TRIPOS>MOLECULE
tmp/4xbgE00.pdb
 112 106 0 0 0
SMALL
GASTEIGER

@<TRIPOS>ATOM
      1  N         99.0200  -14.6890  -32.1890 N.3     9  GLY9       -0.1210
      2  CA       100.4570  -14.7840  -32.3710 C.3     9  GLY9        0.1956
      3  C        101.1480  -15.0960  -31.0580 C.2     9  GLY9        0.2612
      4  O        101.9570  -16.0200  -30.9670 O.2     9  GLY9       -0.2717
      5  N        100.8060  -14.3240  -30.0320 N.am   10  THR10      -0.1952
      6  CA       101.3550  -14.5150  -28.6970 C.3    10  THR10       0.1897
      7  C        100.2230  -14.6760  -27.6890 C.2    10  THR10       0.2313
      8  O         99.2230  -13.9600  -27.7390 O.2    10  THR10      -0.2863
      9  CB       102.2620  -13.3340  -28.2690 C.3    10  THR10       0.1794
     10  OG1      103.3060  -13.1490  -29.2310 O.3    10  THR10      -0.2208
     11  CG2      102.8820  -13.5930  -26.9050 C.3    10  THR10       0.0378
     12  N        107.4230  -26.8220  -29.0020 N.3    39  GLN39      -0.1231
     13  CA       108.8510  -26.5810  -29.1050 C.3    39  GLN39       0.1698
     14  C        109.3420  -25.6200  -28.0300 C.2    39  GLN39       0.2592
     15  O        108.8550  -24.4980  -27.9070 O.2    39  GLN39      -0.2718
     16  CB       109.1990  -26.0510  -30.4940 C.3    39  GLN39       0.0381
     17  CG       110.6910  -25.9580  -30.7530 C.3    39  GLN39       0.0905
     18  CD       111.0120  -25.4420  -32.1400 C.2    39  GLN39       0.2608
     19  OE1      110.2960  -24.6040  -32.6870 O.2    39  GLN39      -0.2717
     20  NE2      112.0930  -25.9490  -32.7210 N.am   39  GLN39      -0.0878
     21  N        110.3090  -26.0820  -27.2470 N.am   40  ARG40      -0.1966
     22  CA       110.9500  -25.2520  -26.2390 C.3    40  ARG40       0.1714
     23  C        112.2570  -24.7090  -26.8000 C.2    40  ARG40       0.2458
     24  O        112.8370  -25.3130  -27.7050 O.2    40  ARG40      -0.2730
     25  CB       111.1870  -26.0450  -24.9500 C.3    40  ARG40       0.0347
     26  CG       109.9160  -26.5760  -24.3020 C.3    40  ARG40       0.0492
     27  CD       110.2290  -27.2840  -22.9950 C.3    40  ARG40       0.2205
     28  NE       109.0340  -27.7930  -22.3260 N.pl3  40  ARG40      -0.0865
     29  CZ       108.6210  -29.0550  -22.3770 C.cat  40  ARG40       0.5346
     30  NH1      109.3020  -29.9510  -23.0770 N.pl3  40  ARG40       0.1354
     31  NH2      107.5220  -29.4190  -21.7280 N.pl3  40  ARG40       0.1354
     32  N        112.7210  -23.5630  -26.2750 N.am   41  PRO41      -0.2716
     33  CA       113.9580  -22.9410  -26.7590 C.3    41  PRO41       0.1536
     34  C        115.1400  -23.9000  -26.7670 C.2    41  PRO41       0.2599
     35  O        115.4130  -24.5460  -25.7560 O.2    41  PRO41      -0.2715
     36  CB       114.1870  -21.8080  -25.7580 C.3    41  PRO41       0.0310
     37  CG       112.8200  -21.4410  -25.3080 C.3    41  PRO41       0.0237
     38  CD       112.0500  -22.7290  -25.2610 C.3    41  PRO41       0.0939
     39  N        115.8070  -24.0070  -27.9130 N.am   42  GLY42      -0.1941
     40  CA       116.9790  -24.8530  -28.0550 C.3    42  GLY42       0.2014
     41  C        116.6720  -26.3300  -28.2170 C.2    42  GLY42       0.2638
     42  O        117.5790  -27.1650  -28.1880 O.2    42  GLY42      -0.2714
     43  N        115.3960  -26.6590  -28.3970 N.am   43  GLN43      -0.1977
     44  CA       114.9860  -28.0560  -28.5100 C.3    43  GLN43       0.1601
     45  C        114.2140  -28.3360  -29.7950 C.2    43  GLN43       0.2287
     46  O        113.6530  -27.4300  -30.4080 O.2    43  GLN43      -0.2864
     47  CB       114.1410  -28.4620  -27.3000 C.3    43  GLN43       0.0394
     48  CG       114.8880  -28.4130  -25.9760 C.3    43  GLN43       0.0908
     49  CD       114.0780  -28.9780  -24.8250 C.2    43  GLN43       0.2608
     50  OE1      112.8810  -29.2380  -24.9600 O.2    43  GLN43      -0.2717
     51  NE2      114.7300  -29.1720  -23.6820 N.am   43  GLN43      -0.0878
     52  N        106.3480  -22.5960  -27.5200 N.3    86  VAL86      -0.1245
     53  CA       105.7830  -22.3030  -28.8340 C.3    86  VAL86       0.1561
     54  C        105.0600  -23.5280  -29.3830 C.2    86  VAL86       0.2260
     55  O        105.5500  -24.6500  -29.2640 O.2    86  VAL86      -0.2867
     56  CB       106.8670  -21.8500  -29.8350 C.3    86  VAL86       0.0252
     57  CG1      106.2450  -21.4940  -31.1750 C.3    86  VAL86       0.0019
     58  CG2      107.6410  -20.6710  -29.2740 C.3    86  VAL86       0.0019
     59  N        103.0830  -25.2860  -32.7760 N.3    88  TYR88      -0.1241
     60  CA       102.8700  -25.2560  -34.2150 C.3    88  TYR88       0.1605
     61  C        101.7820  -26.2460  -34.6010 C.2    88  TYR88       0.2264
     62  O        101.7000  -27.3340  -34.0340 O.2    88  TYR88      -0.2867
     63  CB       104.1660  -25.5830  -34.9650 C.3    88  TYR88       0.0534
     64  CG       105.2720  -24.5690  -34.7770 C.ar   88  TYR88      -0.0201
     65  CD1      106.2510  -24.7480  -33.8070 C.ar   88  TYR88      -0.0009
     66  CD2      105.3370  -23.4310  -35.5690 C.ar   88  TYR88      -0.0009
     67  CE1      107.2630  -23.8220  -33.6340 C.ar   88  TYR88       0.0417
     68  CE2      106.3430  -22.4990  -35.4020 C.ar   88  TYR88       0.0417
     69  CZ       107.3020  -22.6980  -34.4340 C.ar   88  TYR88       0.1957
     70  OH       108.3010  -21.7680  -34.2680 O.3    88  TYR88      -0.2866
     71  N        102.5200  -20.7200  -38.6600 N.3   101  GLN101     -0.1231
     72  CA       103.6550  -19.8740  -38.2930 C.3   101  GLN101      0.1698
     73  C        103.9720  -19.9650  -36.7980 C.2   101  GLN101      0.2592
     74  O        105.0180  -19.4970  -36.3500 O.2   101  GLN101     -0.2718
     75  CB       103.4090  -18.4200  -38.7080 C.3   101  GLN101      0.0381
     76  CG       101.9540  -18.0620  -38.9300 C.3   101  GLN101      0.0905
     77  CD       101.2210  -17.7900  -37.6360 C.2   101  GLN101      0.2608
     78  OE1      100.0210  -18.0400  -37.5260 O.2   101  GLN101     -0.2717
     79  NE2      101.9410  -17.2660  -36.6470 N.am  101  GLN101     -0.0878
     80  N        103.0760  -20.5830  -36.0350 N.am  102  GLY102     -0.1957
     81  CA       103.3230  -20.8310  -34.6260 C.3   102  GLY102      0.1869
     82  C        102.6780  -19.8480  -33.6700 C.2   102  GLY102      0.2309
     83  O        102.4470  -18.6880  -34.0070 O.2   102  GLY102     -0.2863
     84  N        103.0650  -18.5200  -29.5710 N.3   104  LYS104     -0.1245
     85  CA       103.8150  -18.5390  -28.3210 C.3   104  LYS104      0.1561
     86  C        102.9090  -18.3530  -27.1110 C.2   104  LYS104      0.2260
     87  O        102.1320  -17.4000  -27.0440 O.2   104  LYS104     -0.2867
     88  CB       104.8930  -17.4560  -28.3110 C.3   104  LYS104      0.0271
     89  CG       105.7000  -17.4280  -27.0190 C.3   104  LYS104      0.0035
     90  CD       106.8670  -16.4650  -27.1040 C.3   104  LYS104      0.0206
     91  CE       107.6900  -16.4830  -25.8250 C.3   104  LYS104      0.1093
     92  NZ       108.9310  -15.6670  -25.9550 N.3   104  LYS104     -0.1314
     93  N        107.2220   -7.9840  -22.4030 N.3   143  ARG143     -0.1245
     94  CA       108.3720   -8.0900  -23.2920 C.3   143  ARG143      0.1563
     95  C        108.5850   -6.8110  -24.0880 C.2   143  ARG143      0.2260
     96  O        109.7180   -6.4550  -24.4080 O.2   143  ARG143     -0.2867
     97  CB       108.1860   -9.2810  -24.2390 C.3   143  ARG143      0.0307
     98  CG       109.4310   -9.7100  -24.9990 C.3   143  ARG143      0.0489
     99  CD       109.0790  -10.5850  -26.1950 C.3   143  ARG143      0.2205
    100  NE       110.2730  -11.1080  -26.8520 N.pl3 143  ARG143     -0.0865
    101  CZ       110.9140  -10.4930  -27.8380 C.cat 143  ARG143      0.5346
    102  NH1      111.9910  -11.0450  -28.3790 N.pl3 143  ARG143      0.1354
    103  NH2      110.4870   -9.3180  -28.2720 N.pl3 143  ARG143      0.1354
    104  N        115.0260  -15.2000  -23.6760 N.3   166  GLU166     -0.1245
    105  CA       113.8050  -15.9630  -23.4770 C.3   166  GLU166      0.1567
    106  C        113.2900  -15.6450  -22.0850 C.2   166  GLU166      0.2260
    107  O        114.0700  -15.2990  -21.1940 O.2   166  GLU166     -0.2867
    108  CB       114.0500  -17.4670  -23.6370 C.3   166  GLU166      0.0388
    109  CG       114.4560  -17.9080  -25.0370 C.3   166  GLU166      0.1160
    110  CD       113.3060  -17.8280  -26.0320 C.2   166  GLU166      0.3649
    111  OE1      112.1350  -17.8990  -25.5970 O.co2 166  GLU166     -0.2457
    112  OE2      113.5690  -17.7020  -27.2470 O.co2 166  GLU166     -0.2457
@<TRIPOS>BOND
     1    76    75    1
     2    76    77    1
     3    75    72    1
     4    71    72    1
     5    72    73    1
     6    77    78    2
     7    77    79   am
     8    73    74    2
     9    73    80   am
    10    80    81    1
    11    66    68   ar
    12    66    64   ar
    13    68    69   ar
    14    63    64    1
    15    63    60    1
    16    64    65   ar
    17    81    82    1
    18    61    60    1
    19    61    62    2
    20    69    70    1
    21    69    67   ar
    22    60    59    1
    23    83    82    2
    24    65    67   ar
    25    20    18   am
    26    19    18    2
    27     2     1    1
    28     2     3    1
    29    18    17    1
    30    57    56    1
    31     3     4    2
    32     3     5   am
    33    17    16    1
    34    16    13    1
    35    46    45    2
    36     5     6    1
    37    56    58    1
    38    56    53    1
    39    45    44    1
    40    84    85    1
    41    54    55    2
    42    54    53    1
    43    10     9    1
    44    13    12    1
    45    13    14    1
    46    53    52    1
    47     6     9    1
    48     6     7    1
    49    44    43    1
    50    44    47    1
    51    43    41   am
    52   102   101    1
    53    85    88    1
    54    85    86    1
    55    88    89    1
    56   103   101    1
    57     9    11    1
    58    41    42    2
    59    41    40    1
    60    40    39    1
    61    14    15    2
    62    14    21   am
    63    39    34   am
    64   101   100    2
    65     8     7    2
    66    24    23    2
    67    47    48    1
    68   112   110   ar
    69    21    22    1
    70    86    87    2
    71    90    89    1
    72    90    91    1
    73   100    99    1
    74    23    32   am
    75    23    22    1
    76    34    33    1
    77    34    35    2
    78    33    32    1
    79    33    36    1
    80    32    38    1
    81    22    25    1
    82    99    98    1
    83   110   111   ar
    84   110   109    1
    85    48    49    1
    86    92    91    1
    87    36    37    1
    88    37    38    1
    89   109   108    1
    90    98    97    1
    91    50    49    2
    92    25    26    1
    93    49    51   am
    94    96    95    2
    95    26    27    1
    96    97    94    1
    97    95    94    1
    98   104   105    1
    99   108   105    1
   100   105   106    1
   101    94    93    1
   102    30    29    1
   103    27    28    1
   104    29    28    2
   105    29    31    1
   106   106   107    2
