@<TRIPOS>MOLECULE
tmp/4xbgB01.pdb
 84 85 0 0 0
SMALL
GASTEIGER

@<TRIPOS>ATOM
      1  N         96.3580  -51.0410  -31.7700 N.3    27  GLY27      -0.1210
      2  CA        96.5660  -52.1110  -30.8150 C.3    27  GLY27       0.1956
      3  C         96.0940  -53.4880  -31.2220 C.2    27  GLY27       0.2613
      4  O         96.0780  -53.8430  -32.3960 O.2    27  GLY27      -0.2717
      5  N         95.6760  -54.2540  -30.2240 N.am   28  SER28      -0.1938
      6  CA        95.2240  -55.6210  -30.4260 C.3    28  SER28       0.2055
      7  C         93.7510  -55.8170  -30.0860 C.2    28  SER28       0.2643
      8  O         93.2990  -55.4410  -29.0110 O.2    28  SER28      -0.2714
      9  CB        96.0990  -56.5770  -29.6170 C.3    28  SER28       0.2130
     10  OG        95.5820  -57.8910  -29.6670 O.3    28  SER28      -0.2179
     11  N         93.0180  -56.4210  -31.0100 N.am   29  PHE29      -0.1959
     12  CA        91.5840  -56.6010  -30.8650 C.3    29  PHE29       0.1771
     13  C         91.1760  -57.8450  -30.0680 C.2    29  PHE29       0.2620
     14  O         90.3530  -57.7600  -29.1570 O.2    29  PHE29      -0.2715
     15  CB        90.9230  -56.6410  -32.2380 C.3    29  PHE29       0.0574
     16  CG        89.4500  -56.8550  -32.1810 C.ar   29  PHE29      -0.0200
     17  CD1       88.6070  -55.8170  -31.8290 C.ar   29  PHE29      -0.0042
     18  CD2       88.9020  -58.0860  -32.4900 C.ar   29  PHE29      -0.0042
     19  CE1       87.2420  -55.9980  -31.7770 C.ar   29  PHE29      -0.0003
     20  CE2       87.5380  -58.2750  -32.4440 C.ar   29  PHE29      -0.0003
     21  CZ        86.7040  -57.2310  -32.0890 C.ar   29  PHE29      -0.0000
     22  N         91.7410  -58.9940  -30.4240 N.am   30  SER30      -0.1950
     23  CA        91.2590  -60.2890  -29.9440 C.3    30  SER30       0.1924
     24  C         91.4650  -60.6310  -28.4630 C.2    30  SER30       0.2314
     25  O         90.6760  -61.3840  -27.8990 O.2    30  SER30      -0.2863
     26  CB        91.9080  -61.3970  -30.7770 C.3    30  SER30       0.2116
     27  OG        91.5330  -61.3010  -32.1380 O.3    30  SER30      -0.2180
     28  N         86.3110  -60.8350  -35.1640 N.3    74  ARG74      -0.1245
     29  CA        87.7620  -60.7160  -35.2790 C.3    74  ARG74       0.1563
     30  C         88.2270  -60.4310  -36.7020 C.2    74  ARG74       0.2260
     31  O         89.3460  -59.9640  -36.9100 O.2    74  ARG74      -0.2867
     32  CB        88.4480  -61.9810  -34.7560 C.3    74  ARG74       0.0307
     33  CG        88.2030  -62.2520  -33.2810 C.3    74  ARG74       0.0489
     34  CD        88.8440  -63.5550  -32.8420 C.3    74  ARG74       0.2205
     35  NE        90.2750  -63.5890  -33.1330 N.pl3  74  ARG74      -0.0865
     36  CZ        90.9540  -64.6930  -33.4300 C.cat  74  ARG74       0.5346
     37  NH1       92.2550  -64.6270  -33.6790 N.pl3  74  ARG74       0.1354
     38  NH2       90.3330  -65.8630  -33.4810 N.pl3  74  ARG74       0.1354
     39  N         87.7020  -56.6140  -36.7200 N.3    77  SER77      -0.1217
     40  CA        88.0860  -55.9490  -35.4720 C.3    77  SER77       0.1889
     41  C         86.9530  -55.0440  -35.0050 C.2    77  SER77       0.2288
     42  O         87.1790  -53.9100  -34.5810 O.2    77  SER77      -0.2866
     43  CB        89.3800  -55.1450  -35.6420 C.3    77  SER77       0.2089
     44  OG        90.4730  -55.9920  -35.9490 O.3    77  SER77      -0.2183
     45  N        102.0560  -53.9730  -26.0170 N.3   104  TRP104     -0.1227
     46  CA       101.3060  -54.0970  -27.2650 C.3   104  TRP104      0.1737
     47  C        101.1450  -55.5480  -27.6990 C.2   104  TRP104      0.2596
     48  O        101.9520  -56.4090  -27.3480 O.2   104  TRP104     -0.2718
     49  CB       101.9810  -53.2880  -28.3760 C.3   104  TRP104      0.0564
     50  CG       101.0920  -52.9820  -29.5560 C.ar  104  TRP104      0.0003
     51  CD1      100.2770  -51.8970  -29.7030 C.ar  104  TRP104      0.0946
     52  CD2      100.9470  -53.7580  -30.7580 C.ar  104  TRP104      0.0152
     53  NE1       99.6360  -51.9480  -30.9170 N.ar  104  TRP104     -0.2442
     54  CE2      100.0240  -53.0820  -31.5820 C.ar  104  TRP104      0.0810
     55  CE3      101.5060  -54.9570  -31.2170 C.ar  104  TRP104      0.0012
     56  CZ2       99.6450  -53.5620  -32.8350 C.ar  104  TRP104      0.0191
     57  CZ3      101.1240  -55.4340  -32.4610 C.ar  104  TRP104      0.0001
     58  CH2      100.2040  -54.7360  -33.2550 C.ar  104  TRP104      0.0015
     59  N        100.1030  -55.8000  -28.4820 N.am  105  GLY105     -0.1942
     60  CA        99.8800  -57.1070  -29.0640 C.3   105  GLY105      0.2014
     61  C         99.2350  -58.0930  -28.1150 C.2   105  GLY105      0.2639
     62  O         98.8900  -57.7490  -26.9840 O.2   105  GLY105     -0.2714
     63  N         99.0750  -59.3240  -28.5910 N.am  106  TRP106     -0.1959
     64  CA        98.4410  -60.3920  -27.8270 C.3   106  TRP106      0.1771
     65  C         99.1340  -60.6470  -26.4890 C.2   106  TRP106      0.2619
     66  O         98.4790  -60.9720  -25.4970 O.2   106  TRP106     -0.2715
     67  CB        98.4050  -61.6750  -28.6590 C.3   106  TRP106      0.0590
     68  CG        97.3910  -61.6450  -29.7730 C.ar  106  TRP106      0.0006
     69  CD1       96.8090  -60.5400  -30.3280 C.ar  106  TRP106      0.0946
     70  CD2       96.8440  -62.7740  -30.4660 C.ar  106  TRP106      0.0152
     71  NE1       95.9360  -60.9120  -31.3230 N.ar  106  TRP106     -0.2442
     72  CE2       95.9390  -62.2780  -31.4270 C.ar  106  TRP106      0.0810
     73  CE3       97.0310  -64.1560  -30.3650 C.ar  106  TRP106      0.0012
     74  CZ2       95.2250  -63.1170  -32.2820 C.ar  106  TRP106      0.0191
     75  CZ3       96.3220  -64.9850  -31.2140 C.ar  106  TRP106      0.0001
     76  CH2       95.4300  -64.4640  -32.1600 C.ar  106  TRP106      0.0015
     77  N        100.4560  -60.4940  -26.4550 N.am  107  LEU107     -0.1977
     78  CA       101.2090  -60.7030  -25.2190 C.3   107  LEU107      0.1596
     79  C        101.2140  -59.4290  -24.3780 C.2   107  LEU107      0.2287
     80  O        102.0620  -59.2370  -23.5110 O.2   107  LEU107     -0.2864
     81  CB       102.6400  -61.1480  -25.5200 C.3   107  LEU107      0.0297
     82  CG       102.8090  -62.5610  -26.0760 C.3   107  LEU107      0.0022
     83  CD1      104.2610  -62.7650  -26.4440 C.3   107  LEU107      0.0001
     84  CD2      102.4000  -63.6150  -25.0800 C.3   107  LEU107      0.0001
@<TRIPOS>BOND
     1    31    30    2
     2    39    40    1
     3    30    29    1
     4    44    43    1
     5    43    40    1
     6    40    41    1
     7    29    28    1
     8    29    32    1
     9    41    42    2
    10    32    33    1
    11    37    36    1
    12    38    36    1
    13    36    35    2
    14    33    34    1
    15    58    56   ar
    16    58    57   ar
    17    35    34    1
    18    56    54   ar
    19    18    20   ar
    20    18    16   ar
    21    57    55   ar
    22    20    21   ar
    23     4     3    2
    24    74    76   ar
    25    74    72   ar
    26    15    16    1
    27    15    12    1
    28    16    17   ar
    29    76    75   ar
    30    27    26    1
    31    21    19   ar
    32    17    19   ar
    33     1     2    1
    34    54    53   ar
    35    54    52   ar
    36    72    71   ar
    37    72    70   ar
    38    71    69   ar
    39     3     2    1
    40     3     5   am
    41    55    52   ar
    42    75    73   ar
    43    11    12    1
    44    11     7   am
    45    53    51   ar
    46    12    13    1
    47    26    23    1
    48    52    50   ar
    49    70    73   ar
    50    70    68   ar
    51     6     5    1
    52     6     7    1
    53     6     9    1
    54    22    13   am
    55    22    23    1
    56    69    68   ar
    57     7     8    2
    58    13    14    2
    59    23    24    1
    60    68    67    1
    61    51    50   ar
    62    10     9    1
    63    50    49    1
    64    60    59    1
    65    60    61    1
    66    67    64    1
    67    63    61   am
    68    63    64    1
    69    59    47   am
    70    24    25    2
    71    49    46    1
    72    61    62    2
    73    64    65    1
    74    47    48    2
    75    47    46    1
    76    46    45    1
    77    65    77   am
    78    65    66    2
    79    77    78    1
    80    83    82    1
    81    82    81    1
    82    82    84    1
    83    81    78    1
    84    78    79    1
    85    79    80    2
