@<TRIPOS>MOLECULE
tmp/4xbjB01.pdb
 138 128 0 0 0
SMALL
GASTEIGER

@<TRIPOS>ATOM
      1  N         56.0180   -6.5840  -32.2350 N.3    31  VAL31      -0.1245
      2  CA        55.7490   -5.3900  -31.5200 C.3    31  VAL31       0.1561
      3  C         56.1150   -5.5460  -30.0380 C.2    31  VAL31       0.2260
      4  O         55.5110   -6.3330  -29.3160 O.2    31  VAL31      -0.2867
      5  CB        54.2890   -4.9430  -31.7170 C.3    31  VAL31       0.0252
      6  CG1       54.0290   -3.6830  -30.9040 C.3    31  VAL31       0.0019
      7  CG2       54.0220   -4.6740  -33.1930 C.3    31  VAL31       0.0019
      8  N         56.8270   -2.6900  -27.9250 N.3    33  LYS33      -0.1245
      9  CA        56.6020   -1.4530  -27.2000 C.3    33  LYS33       0.1561
     10  C         56.0930   -1.6360  -25.7570 C.2    33  LYS33       0.2260
     11  O         55.5830   -2.6930  -25.3980 O.2    33  LYS33      -0.2867
     12  CB        55.6670   -0.5500  -28.0110 C.3    33  LYS33       0.0271
     13  CG        54.2790   -1.0860  -28.2620 C.3    33  LYS33       0.0035
     14  CD        53.5730   -0.2310  -29.3160 C.3    33  LYS33       0.0206
     15  CE        52.0900   -0.5170  -29.3950 C.3    33  LYS33       0.1093
     16  NZ        51.4120   -0.4340  -28.0720 N.3    33  LYS33      -0.1314
     17  N         55.0380   -5.2640  -23.8080 N.3    37  TYR37      -0.1241
     18  CA        53.7470   -5.5750  -23.1910 C.3    37  TYR37       0.1605
     19  C         53.9680   -6.2010  -21.8080 C.2    37  TYR37       0.2264
     20  O         53.1740   -7.0430  -21.3530 O.2    37  TYR37      -0.2867
     21  CB        52.9400   -6.5370  -24.0680 C.3    37  TYR37       0.0534
     22  CG        52.3700   -5.9390  -25.3400 C.ar   37  TYR37      -0.0201
     23  CD1       53.1620   -5.2000  -26.2050 C.ar   37  TYR37      -0.0009
     24  CD2       51.0270   -6.1350  -25.6900 C.ar   37  TYR37      -0.0009
     25  CE1       52.6390   -4.6670  -27.3880 C.ar   37  TYR37       0.0417
     26  CE2       50.5120   -5.6220  -26.8690 C.ar   37  TYR37       0.0417
     27  CZ        51.3250   -4.8840  -27.7140 C.ar   37  TYR37       0.1957
     28  OH        50.8050   -4.3000  -28.8540 O.3    37  TYR37      -0.2866
     29  N         56.7410    3.2990  -34.7810 N.3    77  LEU77      -0.1245
     30  CA        55.3390    3.2590  -35.1630 C.3    77  LEU77       0.1561
     31  C         54.6730    4.6300  -35.0870 C.2    77  LEU77       0.2260
     32  O         53.7890    4.9240  -35.8840 O.2    77  LEU77      -0.2867
     33  CB        54.5930    2.2760  -34.2720 C.3    77  LEU77       0.0270
     34  CG        54.9910    0.8130  -34.3930 C.3    77  LEU77       0.0019
     35  CD1       54.2620    0.0310  -33.3100 C.3    77  LEU77       0.0001
     36  CD2       54.6660    0.2460  -35.7830 C.3    77  LEU77       0.0001
     37  N         52.1040    6.8910  -42.8780 N.3   121  LYS121     -0.1245
     38  CA        50.9990    6.4570  -42.0510 C.3   121  LYS121      0.1561
     39  C         49.6960    7.0470  -42.5650 C.2   121  LYS121      0.2260
     40  O         49.5590    8.2710  -42.7060 O.2   121  LYS121     -0.2867
     41  CB        51.2300    6.9230  -40.6130 C.3   121  LYS121      0.0271
     42  CG        50.3160    6.2630  -39.6120 C.3   121  LYS121      0.0035
     43  CD        50.5030    6.8840  -38.2280 C.3   121  LYS121      0.0206
     44  CE        51.5010    6.0960  -37.3900 C.3   121  LYS121      0.1093
     45  NZ        50.9650    4.7660  -37.0270 N.3   121  LYS121     -0.1314
     46  N         40.6640    5.0430  -37.9220 N.3   126  MET126     -0.1245
     47  CA        41.0160    5.0910  -36.5120 C.3   126  MET126      0.1570
     48  C         40.9280    6.5290  -36.0120 C.2   126  MET126      0.2261
     49  O         40.5640    6.7640  -34.8660 O.2   126  MET126     -0.2867
     50  CB        42.4410    4.5530  -36.3510 C.3   126  MET126      0.0387
     51  CG        43.0160    4.6380  -34.9560 C.3   126  MET126      0.0595
     52  SD        42.6650    3.1780  -33.9790 S.3   126  MET126     -0.1393
     53  CE        43.3250    3.6800  -32.3890 C.3   126  MET126      0.0692
     54  N         43.4770    8.5440  -35.2320 N.3   128  ARG128     -0.1245
     55  CA        44.4260    8.8080  -34.1740 C.3   128  ARG128      0.1563
     56  C         45.6770    9.4810  -34.7340 C.2   128  ARG128      0.2260
     57  O         45.8540   10.7010  -34.5950 O.2   128  ARG128     -0.2867
     58  CB        44.7580    7.5240  -33.4250 C.3   128  ARG128      0.0307
     59  CG        45.7960    7.7330  -32.3440 C.3   128  ARG128      0.0489
     60  CD        45.8750    6.5280  -31.4470 C.3   128  ARG128      0.2205
     61  NE        46.5160    5.4300  -32.1410 N.pl3 128  ARG128     -0.0865
     62  CZ        46.7450    4.2520  -31.5930 C.cat 128  ARG128      0.5346
     63  NH1       46.4730    4.0730  -30.3060 N.pl3 128  ARG128      0.1354
     64  NH2       47.3680    3.3140  -32.3010 N.pl3 128  ARG128      0.1354
     65  N         51.6060    2.4000  -44.1980 N.3   156  VAL156     -0.1245
     66  CA        51.1100    1.6730  -43.0480 C.3   156  VAL156      0.1561
     67  C         49.7690    2.2510  -42.6090 C.2   156  VAL156      0.2260
     68  O         49.4950    3.4290  -42.8300 O.2   156  VAL156     -0.2867
     69  CB        52.1420    1.7020  -41.8870 C.3   156  VAL156      0.0252
     70  CG1       52.2120    3.0750  -41.2520 C.3   156  VAL156      0.0019
     71  CG2       51.8040    0.6730  -40.8370 C.3   156  VAL156      0.0019
     72  N         46.3560    1.1380  -39.4360 N.3   158  HIS158     -0.1241
     73  CA        46.0130    0.3080  -38.2660 C.3   158  HIS158      0.1621
     74  C         44.4990    0.2910  -38.0740 C.2   158  HIS158      0.2264
     75  O         43.8610    1.3380  -38.0890 O.2   158  HIS158     -0.2867
     76  CB        46.7210    0.8570  -37.0100 C.3   158  HIS158      0.0745
     77  CG        46.5190    0.0330  -35.7600 C.ar  158  HIS158      0.0817
     78  ND1       47.0950   -1.2070  -35.5790 N.ar  158  HIS158     -0.2268
     79  CD2       45.9460    0.3500  -34.5700 C.ar  158  HIS158      0.1154
     80  CE1       46.8200   -1.6530  -34.3630 C.ar  158  HIS158      0.1986
     81  NE2       46.1200   -0.7280  -33.7280 N.ar  158  HIS158     -0.2212
     82  N         47.6830   -6.1350  -37.4300 N.3   192  ALA192     -0.1231
     83  CA        48.2910   -6.5330  -36.1820 C.3   192  ALA192      0.1694
     84  C         47.5530   -7.8130  -35.7270 C.2   192  ALA192      0.2593
     85  O         47.0060   -8.5380  -36.5630 O.2   192  ALA192     -0.2718
     86  CB        48.1060   -5.4120  -35.1660 C.3   192  ALA192      0.0304
     87  N         47.5220   -8.0900  -34.4200 N.am  193  SER193     -0.1938
     88  CA        46.9690   -9.3550  -33.9220 C.3   193  SER193      0.2055
     89  C         45.5780   -9.6690  -34.5070 C.2   193  SER193      0.2643
     90  O         45.3760  -10.7250  -35.1310 O.2   193  SER193     -0.2714
     91  CB        46.8740   -9.3560  -32.3910 C.3   193  SER193      0.2130
     92  OG        48.1400   -9.2490  -31.7780 O.3   193  SER193     -0.2179
     93  N         44.6110   -8.7920  -34.2500 N.am  194  GLY194     -0.1954
     94  CA        43.2650   -8.9700  -34.8000 C.3   194  GLY194      0.1869
     95  C         43.3140   -9.2800  -36.2870 C.2   194  GLY194      0.2309
     96  O         42.8000  -10.3060  -36.7540 O.2   194  GLY194     -0.2863
     97  N         52.0790   -7.0620  -38.0770 N.3   208  ARG208     -0.1245
     98  CA        52.7070   -6.5020  -36.9010 C.3   208  ARG208      0.1563
     99  C         52.1010   -7.0750  -35.6480 C.2   208  ARG208      0.2260
    100  O         51.3750   -6.3920  -34.9370 O.2   208  ARG208     -0.2867
    101  CB        52.5640   -4.9810  -36.9070 C.3   208  ARG208      0.0307
    102  CG        52.8250   -4.3600  -38.2600 C.3   208  ARG208      0.0489
    103  CD        52.8050   -2.8500  -38.1890 C.3   208  ARG208      0.2205
    104  NE        51.5360   -2.3470  -37.6820 N.pl3 208  ARG208     -0.0865
    105  CZ        50.4560   -2.1180  -38.4210 C.cat 208  ARG208      0.5346
    106  NH1       50.5040   -2.1740  -39.7490 N.pl3 208  ARG208      0.1354
    107  NH2       49.3510   -1.6930  -37.8250 N.pl3 208  ARG208      0.1354
    108  N         51.3590   -7.8880  -31.9970 N.3   210  GLY210     -0.1210
    109  CA        51.6520   -7.5250  -30.6180 C.3   210  GLY210      0.1956
    110  C         51.1130   -8.5860  -29.6610 C.2   210  GLY210      0.2611
    111  O         51.7550   -9.6200  -29.4330 O.2   210  GLY210     -0.2717
    112  N         49.9080   -8.3500  -29.1550 N.am  211  ILE211     -0.1979
    113  CA        49.3900   -9.1150  -28.0400 C.3   211  ILE211      0.1595
    114  C         49.3400  -10.6060  -28.2930 C.2   211  ILE211      0.2287
    115  O         49.6590  -11.3720  -27.4050 O.2   211  ILE211     -0.2864
    116  CB        48.0150   -8.6040  -27.5450 C.3   211  ILE211      0.0276
    117  CG1       47.6850   -9.2590  -26.1960 C.3   211  ILE211      0.0022
    118  CG2       46.9230   -8.8870  -28.5500 C.3   211  ILE211      0.0022
    119  CD1       46.6030   -8.5400  -25.4280 C.3   211  ILE211      0.0001
    120  N         43.5670  -11.0230  -28.7250 N.3   218  PRO218     -0.2116
    121  CA        43.2010   -9.6270  -28.8520 C.3   218  PRO218      0.1372
    122  C         41.6980   -9.4020  -28.7440 C.2   218  PRO218      0.2244
    123  O         41.2580   -8.2730  -28.8470 O.2   218  PRO218     -0.2868
    124  CB        43.6750   -9.2820  -30.2670 C.3   218  PRO218      0.0268
    125  CG        43.5200  -10.5560  -31.0100 C.3   218  PRO218      0.0207
    126  CD        43.9480  -11.6070  -30.0190 C.3   218  PRO218      0.0892
    127  N         45.2740   -6.3940  -22.5590 N.3   342  TYR342     -0.1241
    128  CA        46.3570   -5.4600  -22.8790 C.3   342  TYR342      0.1605
    129  C         46.9020   -4.7540  -21.6570 C.2   342  TYR342      0.2264
    130  O         48.1150   -4.7550  -21.4010 O.2   342  TYR342     -0.2867
    131  CB        45.8690   -4.3890  -23.8760 C.3   342  TYR342      0.0534
    132  CG        45.5930   -4.8790  -25.2830 C.ar  342  TYR342     -0.0201
    133  CD1       44.3290   -5.3180  -25.6660 C.ar  342  TYR342     -0.0009
    134  CD2       46.5590   -4.7550  -26.2730 C.ar  342  TYR342     -0.0009
    135  CE1       44.0690   -5.6880  -26.9840 C.ar  342  TYR342      0.0417
    136  CE2       46.3200   -5.1740  -27.5630 C.ar  342  TYR342      0.0417
    137  CZ        45.0830   -5.6710  -27.9080 C.ar  342  TYR342      0.1957
    138  OH        44.8580   -5.9900  -29.2410 O.3   342  TYR342     -0.2866
@<TRIPOS>BOND
     1    65    66    1
     2    66    67    1
     3    66    69    1
     4    37    38    1
     5    68    67    2
     6    40    39    2
     7    39    38    1
     8    38    41    1
     9    69    70    1
    10    69    71    1
    11    41    42    1
    12   106   105    1
    13    42    43    1
    14    72    73    1
    15   105   107    1
    16   105   104    2
    17    73    74    1
    18    73    76    1
    19   102   103    1
    20   102   101    1
    21    43    44    1
    22   103   104    1
    23    75    74    2
    24    97    98    1
    25    46    47    1
    26    82    83    1
    27    44    45    1
    28    76    77    1
    29   101    98    1
    30    98    99    1
    31    96    95    2
    32    85    84    2
    33    47    50    1
    34    47    48    1
    35    50    51    1
    36    95    94    1
    37    83    84    1
    38    83    86    1
    39    48    49    2
    40    32    31    2
    41    36    34    1
    42    77    78   ar
    43    77    79   ar
    44    84    87   am
    45    99   100    2
    46    78    80   ar
    47    54    55    1
    48    30    31    1
    49    30    29    1
    50    30    33    1
    51    90    89    2
    52    51    52    1
    53    94    93    1
    54    56    57    2
    55    56    55    1
    56    79    81   ar
    57    89    93   am
    58    89    88    1
    59    87    88    1
    60    34    33    1
    61    34    35    1
    62    80    81   ar
    63    55    58    1
    64    52    53    1
    65    88    91    1
    66    58    59    1
    67     7     5    1
    68    91    92    1
    69    59    60    1
    70    64    62    1
    71     1     2    1
    72    61    62    2
    73    61    60    1
    74   108   109    1
    75     5     2    1
    76     5     6    1
    77    62    63    1
    78     2     3    1
    79   125   124    1
    80   125   126    1
    81   109   110    1
    82   124   121    1
    83     3     4    2
    84   126   120    1
    85   110   111    2
    86   110   112   am
    87    15    14    1
    88    15    16    1
    89    14    13    1
    90   138   137    1
    91   112   113    1
    92    28    27    1
    93   121   122    1
    94   121   120    1
    95   123   122    2
    96   118   116    1
    97   114   113    1
    98   114   115    2
    99    13    12    1
   100   113   116    1
   101    12     9    1
   102     8     9    1
   103   137   136   ar
   104   137   135   ar
   105    27    25   ar
   106    27    26   ar
   107   136   134   ar
   108   116   117    1
   109    25    23   ar
   110     9    10    1
   111   135   133   ar
   112    26    24   ar
   113   134   132   ar
   114    23    22   ar
   115   117   119    1
   116    10    11    2
   117    24    22   ar
   118   133   132   ar
   119    22    21    1
   120   132   131    1
   121    21    18    1
   122   131   128    1
   123    17    18    1
   124    18    19    1
   125   128   127    1
   126   128   129    1
   127    19    20    2
   128   129   130    2
