@<TRIPOS>MOLECULE
tmp/4xboA00.pdb
 155 149 0 0 0
SMALL
GASTEIGER

@<TRIPOS>ATOM
      1  N        -31.4120  -33.4750   -4.9270 N.3    79  THR79      -0.1203
      2  CA       -30.7080  -32.3350   -4.3750 C.3    79  THR79       0.1994
      3  C        -31.6440  -31.4800   -3.5290 C.2    79  THR79       0.2619
      4  O        -32.8000  -31.2600   -3.8840 O.2    79  THR79      -0.2717
      5  CB       -30.1110  -31.4520   -5.4880 C.3    79  THR79       0.1784
      6  OG1      -31.1540  -31.0760   -6.3960 O.3    79  THR79      -0.2211
      7  CG2      -29.0280  -32.1970   -6.2610 C.3    79  THR79       0.0376
      8  N        -31.1250  -30.9900   -2.4140 N.am   80  SER80      -0.1937
      9  CA       -31.8650  -30.0880   -1.5660 C.3    80  SER80       0.2055
     10  C        -30.8880  -29.3370   -0.6630 C.2    80  SER80       0.2643
     11  O        -29.9600  -29.9380   -0.1060 O.2    80  SER80      -0.2714
     12  CB       -32.8930  -30.8620   -0.7480 C.3    80  SER80       0.2130
     13  OG       -33.7560  -29.9790   -0.0640 O.3    80  SER80      -0.2179
     14  N        -31.0790  -28.0270   -0.5310 N.am   81  ALA81      -0.1963
     15  CA       -30.2150  -27.2240    0.3360 C.3    81  ALA81       0.1728
     16  C        -30.2210  -27.7500    1.7840 C.2    81  ALA81       0.2616
     17  O        -29.2030  -27.6890    2.4820 O.2    81  ALA81      -0.2715
     18  CB       -30.6300  -25.7470    0.2930 C.3    81  ALA81       0.0334
     19  N        -31.3670  -28.2730    2.2180 N.am   82  ARG82      -0.1977
     20  CA       -31.4820  -28.9370    3.5100 C.3    82  ARG82       0.1597
     21  C        -32.7590  -29.7620    3.5570 C.2    82  ARG82       0.2287
     22  O        -33.7900  -29.3410    3.0330 O.2    82  ARG82      -0.2864
     23  CB       -31.4650  -27.9220    4.6500 C.3    82  ARG82       0.0334
     24  CG       -32.5430  -26.8610    4.5690 C.3    82  ARG82       0.0492
     25  CD       -32.5400  -25.9870    5.8260 C.3    82  ARG82       0.2205
     26  NE       -31.2540  -25.3200    6.0590 N.pl3  82  ARG82      -0.0865
     27  CZ       -31.0040  -24.0420    5.7740 C.cat  82  ARG82       0.5346
     28  NH1      -31.9490  -23.2760    5.2450 N.pl3  82  ARG82       0.1354
     29  NH2      -29.8060  -23.5260    6.0180 N.pl3  82  ARG82       0.1354
     30  N        -33.3870  -32.2400   -9.6020 N.3   113  PHE113     -0.1227
     31  CA       -33.3580  -30.8600   -9.1410 C.3   113  PHE113      0.1736
     32  C        -34.7860  -30.3090   -9.1100 C.2   113  PHE113      0.2596
     33  O        -35.6670  -30.7790   -9.8460 O.2   113  PHE113     -0.2718
     34  CB       -32.4630  -30.0050  -10.0500 C.3   113  PHE113      0.0547
     35  CG       -31.0320  -30.4760  -10.1220 C.ar  113  PHE113     -0.0202
     36  CD1      -30.6870  -31.6040  -10.8680 C.ar  113  PHE113     -0.0042
     37  CD2      -30.0240  -29.7770   -9.4610 C.ar  113  PHE113     -0.0042
     38  CE1      -29.3750  -32.0360  -10.9410 C.ar  113  PHE113     -0.0003
     39  CE2      -28.7040  -30.2050   -9.5190 C.ar  113  PHE113     -0.0003
     40  CZ       -28.3730  -31.3360  -10.2680 C.ar  113  PHE113     -0.0000
     41  N        -35.0220  -29.3140   -8.2630 N.am  114  GLY114     -0.1942
     42  CA       -36.3810  -28.8840   -8.0120 C.3   114  GLY114      0.2014
     43  C        -36.7950  -27.5510   -8.5890 C.2   114  GLY114      0.2639
     44  O        -36.0390  -26.8980   -9.3140 O.2   114  GLY114     -0.2714
     45  N        -38.0300  -27.1670   -8.2800 N.am  115  ARG115     -0.1963
     46  CA       -38.5540  -25.8670   -8.6520 C.3   115  ARG115      0.1729
     47  C        -37.6840  -24.7900   -8.0490 C.2   115  ARG115      0.2616
     48  O        -37.1800  -24.9510   -6.9430 O.2   115  ARG115     -0.2715
     49  CB       -39.9910  -25.7020   -8.1600 C.3   115  ARG115      0.0348
     50  CG       -41.0140  -26.5120   -8.9070 C.3   115  ARG115      0.0492
     51  CD       -42.1280  -26.9330   -7.9780 C.3   115  ARG115      0.2205
     52  NE       -41.7180  -28.1120   -7.2400 N.pl3 115  ARG115     -0.0865
     53  CZ       -42.1840  -29.3300   -7.4750 C.cat 115  ARG115      0.5346
     54  NH1      -41.7290  -30.3520   -6.7650 N.pl3 115  ARG115      0.1354
     55  NH2      -43.1010  -29.5230   -8.4170 N.pl3 115  ARG115      0.1354
     56  N        -37.5070  -23.6910   -8.7660 N.am  116  GLU116     -0.1963
     57  CA       -36.8880  -22.5260   -8.1610 C.3   116  GLU116      0.1733
     58  C        -37.8250  -22.0390   -7.0530 C.2   116  GLU116      0.2616
     59  O        -39.0400  -22.2600   -7.1250 O.2   116  GLU116     -0.2715
     60  CB       -36.6000  -21.4350   -9.2100 C.3   116  GLU116      0.0429
     61  CG       -37.6450  -21.3010  -10.3190 C.3   116  GLU116      0.1163
     62  CD       -37.3800  -22.1800  -11.5420 C.2   116  GLU116      0.3649
     63  OE1      -36.4780  -21.8570  -12.3390 O.co2 116  GLU116     -0.2457
     64  OE2      -38.0900  -23.1880  -11.7180 O.co2 116  GLU116     -0.2457
     65  N        -37.2390  -21.4370   -6.0190 N.am  117  ARG117     -0.1963
     66  CA       -37.9380  -20.9540   -4.8160 C.3   117  ARG117      0.1729
     67  C        -38.3270  -22.0450   -3.8050 C.2   117  ARG117      0.2616
     68  O        -38.0030  -21.9230   -2.6280 O.2   117  ARG117     -0.2715
     69  CB       -39.1850  -20.1390   -5.1910 C.3   117  ARG117      0.0348
     70  CG       -38.8750  -18.7130   -5.6340 C.3   117  ARG117      0.0492
     71  CD       -38.6820  -17.7830   -4.4360 C.3   117  ARG117      0.2205
     72  NE       -39.9480  -17.3860   -3.8140 N.pl3 117  ARG117     -0.0865
     73  CZ       -40.6610  -16.3230   -4.1810 C.cat 117  ARG117      0.5346
     74  NH1      -40.2390  -15.5410   -5.1680 N.pl3 117  ARG117      0.1354
     75  NH2      -41.7960  -16.0380   -3.5580 N.pl3 117  ARG117      0.1354
     76  N        -39.0080  -23.0990   -4.2480 N.am  118  VAL118     -0.1963
     77  CA       -39.5720  -24.0950   -3.3260 C.3   118  VAL118      0.1727
     78  C        -38.9250  -25.4840   -3.4060 C.2   118  VAL118      0.2617
     79  O        -39.1690  -26.3390   -2.5590 O.2   118  VAL118     -0.2715
     80  CB       -41.0820  -24.2640   -3.5600 C.3   118  VAL118      0.0290
     81  CG1      -41.8000  -22.9870   -3.2070 C.3   118  VAL118      0.0023
     82  CG2      -41.3590  -24.6360   -5.0090 C.3   118  VAL118      0.0023
     83  N        -38.1060  -25.7100   -4.4240 N.am  119  GLY119     -0.1940
     84  CA       -37.3920  -26.9660   -4.5470 C.3   119  GLY119      0.2014
     85  C        -38.2640  -28.1740   -4.8300 C.2   119  GLY119      0.2638
     86  O        -39.2600  -28.1000   -5.5450 O.2   119  GLY119     -0.2714
     87  N        -37.8620  -29.3030   -4.2690 N.am  120  LEU120     -0.1977
     88  CA       -38.6080  -30.5440   -4.3800 C.3   120  LEU120      0.1596
     89  C        -39.5270  -30.7460   -3.1730 C.2   120  LEU120      0.2287
     90  O        -39.1870  -30.3780   -2.0420 O.2   120  LEU120     -0.2864
     91  CB       -37.6420  -31.7250   -4.5100 C.3   120  LEU120      0.0297
     92  CG       -36.7460  -31.6200   -5.7410 C.3   120  LEU120      0.0022
     93  CD1      -35.4390  -32.3960   -5.5820 C.3   120  LEU120      0.0001
     94  CD2      -37.5410  -32.0910   -6.9480 C.3   120  LEU120      0.0001
     95  N        -28.3630  -34.8690   -1.7730 N.3   132  VAL132     -0.1245
     96  CA       -27.1360  -34.1010   -1.7850 C.3   132  VAL132      0.1561
     97  C        -27.4350  -32.6650   -1.4010 C.2   132  VAL132      0.2260
     98  O        -28.2680  -31.9850   -2.0160 O.2   132  VAL132     -0.2867
     99  CB       -26.4390  -34.1200   -3.1700 C.3   132  VAL132      0.0252
    100  CG1      -25.2870  -33.1110   -3.2030 C.3   132  VAL132      0.0019
    101  CG2      -25.9400  -35.5120   -3.4940 C.3   132  VAL132      0.0019
    102  N        -25.3790  -29.2510   -1.2260 N.3   134  ILE134     -0.1245
    103  CA       -24.1500  -28.5080   -1.4300 C.3   134  ILE134      0.1561
    104  C        -23.9040  -27.6650   -0.1860 C.2   134  ILE134      0.2260
    105  O        -24.7050  -26.7870    0.1290 O.2   134  ILE134     -0.2867
    106  CB       -24.2240  -27.6060   -2.6610 C.3   134  ILE134      0.0252
    107  CG1      -24.5820  -28.4180   -3.9050 C.3   134  ILE134      0.0019
    108  CG2      -22.9100  -26.8720   -2.8450 C.3   134  ILE134      0.0019
    109  CD1      -25.1300  -27.5660   -5.0420 C.3   134  ILE134      0.0001
    110  N        -23.2690  -24.9080    2.0820 N.3   136  ALA136     -0.1245
    111  CA       -23.3500  -23.4950    1.7920 C.3   136  ALA136      0.1562
    112  C        -23.3700  -22.6520    3.0590 C.2   136  ALA136      0.2260
    113  O        -23.5000  -23.1630    4.1680 O.2   136  ALA136     -0.2867
    114  CB       -24.5810  -23.2080    0.9530 C.3   136  ALA136      0.0290
    115  N        -28.2560  -20.3020    1.8280 N.3   141  SER141     -0.1202
    116  CA       -27.7940  -21.6330    1.4550 C.3   141  SER141      0.2020
    117  C        -28.4400  -22.1890    0.1840 C.2   141  SER141      0.2619
    118  O        -28.0510  -23.2560   -0.2930 O.2   141  SER141     -0.2717
    119  CB       -28.0060  -22.6080    2.6230 C.3   141  SER141      0.2103
    120  OG       -29.3710  -22.7080    2.9660 O.3   141  SER141     -0.2182
    121  N        -29.4030  -21.4680   -0.3780 N.am  142  SER142     -0.1937
    122  CA       -30.0090  -21.8960   -1.6340 C.3   142  SER142      0.2055
    123  C        -29.2820  -21.3320   -2.8450 C.2   142  SER142      0.2643
    124  O        -29.2560  -20.1230   -3.0680 O.2   142  SER142     -0.2714
    125  CB       -31.4880  -21.5040   -1.6980 C.3   142  SER142      0.2130
    126  OG       -32.2430  -22.1950   -0.7120 O.3   142  SER142     -0.2179
    127  N        -28.6850  -22.2240   -3.6240 N.am  143  LEU143     -0.1963
    128  CA       -28.1150  -21.8460   -4.9000 C.3   143  LEU143      0.1728
    129  C        -29.2170  -21.6520   -5.9090 C.2   143  LEU143      0.2616
    130  O        -30.3070  -22.1950   -5.7900 O.2   143  LEU143     -0.2715
    131  CB       -27.1320  -22.8960   -5.4220 C.3   143  LEU143      0.0311
    132  CG       -25.7500  -22.9380   -4.7770 C.3   143  LEU143      0.0022
    133  CD1      -25.7940  -23.6320   -3.4230 C.3   143  LEU143      0.0001
    134  CD2      -24.7420  -23.6110   -5.7100 C.3   143  LEU143      0.0001
    135  N        -28.9140  -20.8430   -6.9030 N.am  144  ASN144     -0.1958
    136  CA       -29.7010  -20.7730   -8.1100 C.3   144  ASN144      0.1819
    137  C        -29.6870  -22.1500   -8.7780 C.2   144  ASN144      0.2621
    138  O        -28.6360  -22.7920   -8.8130 O.2   144  ASN144     -0.2715
    139  CB       -29.1100  -19.7210   -9.0220 C.3   144  ASN144      0.1195
    140  CG       -30.1280  -19.0660   -9.8750 C.2   144  ASN144      0.2630
    141  OD1      -30.4160  -19.5340  -10.9900 O.2   144  ASN144     -0.2716
    142  ND2      -30.6870  -17.9560   -9.3790 N.am  144  ASN144     -0.0877
    143  N        -30.8280  -22.6050   -9.2940 N.am  145  LEU145     -0.1977
    144  CA       -30.9510  -23.9330   -9.9370 C.3   145  LEU145      0.1596
    145  C        -29.7730  -24.3090  -10.8330 C.2   145  LEU145      0.2287
    146  O        -29.1490  -25.3740  -10.6660 O.2   145  LEU145     -0.2864
    147  CB       -32.2360  -23.9910  -10.7690 C.3   145  LEU145      0.0297
    148  CG       -32.5350  -25.1810  -11.6740 C.3   145  LEU145      0.0022
    149  CD1      -32.5640  -26.4570  -10.8790 C.3   145  LEU145      0.0001
    150  CD2      -33.8660  -24.9820  -12.3800 C.3   145  LEU145      0.0001
    151  N        -26.5450  -24.8670   -8.9960 N.3   148  ALA148     -0.1245
    152  CA       -26.5190  -26.1400   -8.3160 C.3   148  ALA148      0.1562
    153  C        -26.2030  -27.2650   -9.3100 C.2   148  ALA148      0.2260
    154  O        -25.4300  -28.1970   -9.0030 O.2   148  ALA148     -0.2867
    155  CB       -27.8530  -26.3970   -7.6070 C.3   148  ALA148      0.0290
@<TRIPOS>BOND
     1   150   148    1
     2    63    62   ar
     3    64    62   ar
     4   148   149    1
     5   148   147    1
     6    62    61    1
     7   141   140    2
     8    38    36   ar
     9    38    40   ar
    10    36    35   ar
    11   145   146    2
    12   145   144    1
    13   147   144    1
    14    61    60    1
    15    40    39   ar
    16    35    34    1
    17    35    37   ar
    18    34    31    1
    19   144   143    1
    20   140   142   am
    21   140   139    1
    22    33    32    2
    23    30    31    1
    24    39    37   ar
    25    44    43    2
    26   153   154    2
    27   153   152    1
    28   143   137   am
    29    60    57    1
    30    31    32    1
    31    32    41   am
    32   139   136    1
    33   151   152    1
    34    50    49    1
    35    50    51    1
    36   138   137    2
    37   137   136    1
    38    56    57    1
    39    56    47   am
    40    46    45    1
    41    46    49    1
    42    46    47    1
    43    43    45   am
    44    43    42    1
    45    55    53    1
    46   152   155    1
    47    41    42    1
    48    57    58    1
    49   136   135    1
    50    47    48    2
    51    51    52    1
    52    53    52    2
    53    53    54    1
    54    59    58    2
    55    58    65   am
    56    94    92    1
    57   135   129   am
    58     6     5    1
    59     7     5    1
    60    65    66    1
    61   129   130    2
    62   129   128    1
    63    92    93    1
    64    92    91    1
    65   134   132    1
    66    70    69    1
    67    70    71    1
    68    86    85    2
    69     5     2    1
    70   131   128    1
    71   131   132    1
    72    69    66    1
    73    74    73    1
    74   109   107    1
    75    82    80    1
    76     1     2    1
    77   128   127    1
    78    85    84    1
    79    85    87   am
    80    66    67    1
    81   132   133    1
    82    84    83    1
    83    91    88    1
    84    71    72    1
    85    83    78   am
    86    88    87    1
    87    88    89    1
    88     2     3    1
    89    76    67   am
    90    76    77    1
    91    73    72    2
    92    73    75    1
    93   107   106    1
    94     4     3    2
    95    67    68    2
    96   127   123   am
    97    80    77    1
    98    80    81    1
    99     3     8   am
   100   101    99    1
   101    78    77    1
   102    78    79    2
   103   100    99    1
   104    89    90    2
   105    99    96    1
   106   124   123    2
   107   123   122    1
   108   108   106    1
   109   106   103    1
   110     8     9    1
   111    98    97    2
   112    96    95    1
   113    96    97    1
   114   125   122    1
   115   125   126    1
   116   122   121    1
   117     9    12    1
   118     9    10    1
   119   103   102    1
   120   103   104    1
   121    12    13    1
   122    10    14   am
   123    10    11    2
   124    14    15    1
   125   121   117   am
   126   118   117    2
   127   104   105    2
   128   117   116    1
   129    18    15    1
   130    15    16    1
   131   114   111    1
   132   116   115    1
   133   116   119    1
   134    16    19   am
   135    16    17    2
   136   111   110    1
   137   111   112    1
   138    19    20    1
   139   119   120    1
   140    22    21    2
   141   112   113    2
   142    20    21    1
   143    20    23    1
   144    24    23    1
   145    24    25    1
   146    28    27    1
   147    27    29    1
   148    27    26    2
   149    25    26    1
