@<TRIPOS>MOLECULE
tmp/4xbrA00.pdb
 184 173 0 0 0
SMALL
GASTEIGER

@<TRIPOS>ATOM
      1  N         19.6730  -52.1370    7.2890 N.3     9  PRO9       -0.2116
      2  CA        19.3120  -52.2820    8.7030 C.3     9  PRO9        0.1372
      3  C         19.5100  -50.9890    9.4480 C.2     9  PRO9        0.2244
      4  O         20.0550  -50.0400    8.8900 O.2     9  PRO9       -0.2868
      5  CB        20.3080  -53.3200    9.2210 C.3     9  PRO9        0.0268
      6  CG        21.4770  -53.1760    8.3220 C.3     9  PRO9        0.0207
      7  CD        20.8880  -52.9090    6.9680 C.3     9  PRO9        0.0892
      8  N         32.6920  -59.1370   -3.8820 N.3    54  ILE54      -0.1231
      9  CA        31.4820  -59.6620   -4.5050 C.3    54  ILE54       0.1696
     10  C         30.2270  -59.1740   -3.8050 C.2    54  ILE54       0.2632
     11  O         29.1300  -59.5780   -4.1750 O.2    54  ILE54      -0.2714
     12  CB        31.4430  -61.2050   -4.5180 C.3    54  ILE54       0.0266
     13  CG1       31.4550  -61.7610   -3.0810 C.3    54  ILE54       0.0019
     14  CG2       32.5770  -61.7640   -5.3690 C.3    54  ILE54       0.0020
     15  CD1       30.9160  -63.1680   -2.9200 C.3    54  ILE54       0.0001
     16  N         30.3750  -58.3210   -2.7930 N.am   55  GLY55      -0.1718
     17  CA        29.2090  -57.8970   -2.0140 C.2    55  GLY55       0.1480
     18  C         29.4540  -56.8750   -0.9260 C.2    55  GLY55       0.2820
     19  O         30.5200  -56.8420   -0.3280 O.2    55  GLY55      -0.2669
     20  N         28.4360  -56.0580   -0.6740 N.am   56  GLU56      -0.1929
     21  CA        28.5170  -54.9140    0.2190 C.3    56  GLU56       0.1736
     22  C         27.5360  -55.1470    1.3580 C.2    56  GLU56       0.2617
     23  O         26.5040  -55.7670    1.1680 O.2    56  GLU56      -0.2715
     24  CB        28.1220  -53.6550   -0.5580 C.3    56  GLU56       0.0429
     25  CG        28.9040  -52.3880   -0.2290 C.3    56  GLU56       0.1163
     26  CD        28.7380  -51.3020   -1.2910 C.2    56  GLU56       0.3649
     27  OE1       29.7040  -50.5490   -1.5280 O.co2  56  GLU56      -0.2457
     28  OE2       27.6490  -51.1940   -1.9000 O.co2  56  GLU56      -0.2457
     29  N         27.8470  -54.6470    2.5420 N.am   57  GLY57      -0.1940
     30  CA        26.9550  -54.8160    3.6740 C.3    57  GLY57       0.2014
     31  C         26.9110  -53.6110    4.5850 C.2    57  GLY57       0.2640
     32  O         27.6510  -52.6440    4.4060 O.2    57  GLY57      -0.2714
     33  N         26.0290  -53.6800    5.5740 N.am   58  SER58      -0.1935
     34  CA        25.9220  -52.6490    6.6060 C.3    58  SER58       0.2055
     35  C         27.1990  -52.5310    7.4230 C.2    58  SER58       0.2644
     36  O         27.5430  -51.4450    7.8590 O.2    58  SER58      -0.2714
     37  CB        24.7340  -52.9390    7.5300 C.3    58  SER58       0.2130
     38  OG        24.3850  -54.3230    7.5140 O.3    58  SER58      -0.2179
     39  N         27.8930  -53.6510    7.6160 N.am   59  THR59      -0.1936
     40  CA        29.0690  -53.6850    8.4670 C.3    59  THR59       0.2028
     41  C         30.3670  -53.9490    7.7210 C.2    59  THR59       0.2642
     42  O         31.4320  -53.9730    8.3350 O.2    59  THR59      -0.2714
     43  CB        28.9520  -54.7250    9.6090 C.3    59  THR59       0.1808
     44  OG1       29.1040  -56.0560    9.0960 O.3    59  THR59      -0.2208
     45  CG2       27.6380  -54.5730   10.3590 C.3    59  THR59       0.0379
     46  N         30.3040  -54.1500    6.4150 N.am   60  GLY60      -0.1954
     47  CA        31.5350  -54.3940    5.6720 C.3    60  GLY60       0.1869
     48  C         31.3340  -55.0140    4.3130 C.2    60  GLY60       0.2309
     49  O         30.2170  -55.1010    3.8140 O.2    60  GLY60      -0.2863
     50  N         32.1760  -58.1840    1.3440 N.3    62  VAL62      -0.1245
     51  CA        32.4460  -59.6130    1.1690 C.3    62  VAL62       0.1561
     52  C         33.1960  -59.8390   -0.1360 C.2    62  VAL62       0.2260
     53  O         32.8030  -59.3130   -1.1700 O.2    62  VAL62      -0.2867
     54  CB        31.1510  -60.4610    1.1640 C.3    62  VAL62       0.0252
     55  CG1       31.4620  -61.9290    0.9060 C.3    62  VAL62       0.0019
     56  CG2       30.4280  -60.3320    2.4870 C.3    62  VAL62       0.0019
     57  N         34.3150  -67.5310    1.1320 N.3    75  ALA75      -0.1245
     58  CA        33.9380  -66.1240    1.1550 C.3    75  ALA75       0.1562
     59  C         34.5980  -65.4440    2.3520 C.2    75  ALA75       0.2260
     60  O         34.7890  -66.0690    3.4040 O.2    75  ALA75      -0.2867
     61  CB        32.4360  -65.9710    1.2030 C.3    75  ALA75       0.0290
     62  N         34.4520  -61.9940    4.7470 N.3    77  LYS77      -0.1245
     63  CA        33.7690  -60.7770    5.1200 C.3    77  LYS77       0.1561
     64  C         34.7790  -59.9400    5.8630 C.2    77  LYS77       0.2260
     65  O         35.4970  -60.4540    6.7260 O.2    77  LYS77      -0.2867
     66  CB        32.5980  -61.1190    6.0210 C.3    77  LYS77       0.0271
     67  CG        31.6620  -59.9700    6.3640 C.3    77  LYS77       0.0035
     68  CD        30.4470  -60.5630    7.0510 C.3    77  LYS77       0.0206
     69  CE        29.3770  -59.5380    7.3500 C.3    77  LYS77       0.1093
     70  NZ        28.1880  -60.2430    7.9200 N.3    77  LYS77      -0.1314
     71  N         29.9340  -61.6500   14.9840 N.3    93  GLU93      -0.1245
     72  CA        30.3960  -62.1900   13.7140 C.3    93  GLU93       0.1567
     73  C         31.3720  -63.3400   13.9470 C.2    93  GLU93       0.2260
     74  O         31.4780  -64.2570   13.1220 O.2    93  GLU93      -0.2867
     75  CB        31.0310  -61.0970   12.8530 C.3    93  GLU93       0.0388
     76  CG        30.1960  -59.8170   12.7070 C.3    93  GLU93       0.1160
     77  CD        29.2560  -59.8020   11.4910 C.2    93  GLU93       0.3649
     78  OE1       29.0220  -60.8980   10.8950 O.co2  93  GLU93      -0.2457
     79  OE2       28.7510  -58.6840   11.1410 O.co2  93  GLU93      -0.2457
     80  N         25.1240  -71.0810    7.9990 N.3   106  VAL106     -0.1245
     81  CA        26.3690  -70.9510    7.2310 C.3   106  VAL106      0.1561
     82  C         27.6090  -71.2730    8.0630 C.2   106  VAL106      0.2260
     83  O         27.7730  -70.7360    9.1560 O.2   106  VAL106     -0.2867
     84  CB        26.5490  -69.5230    6.7220 C.3   106  VAL106      0.0252
     85  CG1       27.9530  -69.3280    6.1720 C.3   106  VAL106      0.0019
     86  CG2       25.4930  -69.2230    5.6760 C.3   106  VAL106      0.0019
     87  N         34.3710  -67.7560    5.7470 N.3   122  MET122     -0.1230
     88  CA        33.1980  -68.6450    5.8420 C.3   122  MET122      0.1702
     89  C         32.8940  -69.3360    4.5180 C.2   122  MET122      0.2592
     90  O         33.3580  -68.8980    3.4740 O.2   122  MET122     -0.2718
     91  CB        31.9790  -67.8380    6.2740 C.3   122  MET122      0.0401
     92  CG        31.6750  -66.6740    5.3640 C.3   122  MET122      0.0596
     93  SD        30.8690  -65.3450    6.2620 S.3   122  MET122     -0.1393
     94  CE        29.1440  -65.5630    5.8090 C.3   122  MET122      0.0692
     95  N         32.0950  -70.3960    4.5500 N.am  123  GLU123     -0.1966
     96  CA        31.7700  -71.1310    3.3150 C.3   123  GLU123      0.1733
     97  C         31.0870  -70.2320    2.3060 C.2   123  GLU123      0.2616
     98  O         30.3950  -69.2880    2.6790 O.2   123  GLU123     -0.2715
     99  CB        30.9050  -72.3560    3.5890 C.3   123  GLU123      0.0429
    100  CG        29.5610  -72.0370    4.2110 C.3   123  GLU123      0.1163
    101  CD        28.6120  -73.2220    4.2090 C.2   123  GLU123      0.3649
    102  OE1       28.0230  -73.5130    5.2760 O.co2 123  GLU123     -0.2457
    103  OE2       28.4520  -73.8510    3.1400 O.co2 123  GLU123     -0.2457
    104  N         31.3110  -70.5070    1.0280 N.am  124  PHE124     -0.1960
    105  CA        30.7460  -69.6590   -0.0180 C.3   124  PHE124      0.1771
    106  C         29.3970  -70.1980   -0.4960 C.2   124  PHE124      0.2619
    107  O         29.3080  -71.2930   -1.0570 O.2   124  PHE124     -0.2715
    108  CB        31.7330  -69.4880   -1.1850 C.3   124  PHE124      0.0574
    109  CG        31.1130  -68.8980   -2.4240 C.ar  124  PHE124     -0.0200
    110  CD1       30.5050  -67.6290   -2.3920 C.ar  124  PHE124     -0.0042
    111  CD2       31.1230  -69.6050   -3.6260 C.ar  124  PHE124     -0.0042
    112  CE1       29.9130  -67.0820   -3.5330 C.ar  124  PHE124     -0.0003
    113  CE2       30.5360  -69.0610   -4.7680 C.ar  124  PHE124     -0.0003
    114  CZ        29.9340  -67.7960   -4.7220 C.ar  124  PHE124     -0.0000
    115  N         28.3350  -69.4430   -0.2750 N.am  125  LEU125     -0.1977
    116  CA        27.0460  -69.9660   -0.6720 C.3   125  LEU125      0.1596
    117  C         26.7320  -69.6020   -2.1020 C.2   125  LEU125      0.2287
    118  O         26.2530  -68.4930   -2.3910 O.2   125  LEU125     -0.2864
    119  CB        25.9460  -69.5650    0.3000 C.3   125  LEU125      0.0297
    120  CG        25.6850  -70.6990    1.2780 C.3   125  LEU125      0.0022
    121  CD1       26.8740  -70.9430    2.1780 C.3   125  LEU125      0.0001
    122  CD2       24.4870  -70.3300    2.1060 C.3   125  LEU125      0.0001
    123  N         23.3100  -67.8080   -3.8160 N.3   128  GLY128     -0.1210
    124  CA        22.8310  -66.4430   -3.7110 C.3   128  GLY128      0.1956
    125  C         21.8290  -66.2600   -2.5970 C.2   128  GLY128      0.2611
    126  O         21.5280  -67.1830   -1.8550 O.2   128  GLY128     -0.2717
    127  N         21.3140  -65.0500   -2.4620 N.am  129  ALA129     -0.1979
    128  CA        20.3510  -64.7700   -1.4240 C.3   129  ALA129      0.1597
    129  C         18.9380  -65.1090   -1.8700 C.2   129  ALA129      0.2287
    130  O         18.6600  -65.3040   -3.0540 O.2   129  ALA129     -0.2864
    131  CB        20.4510  -63.3160   -1.0120 C.3   129  ALA129      0.0319
    132  N         17.8420  -59.7380   12.6360 N.3   167  ASP167     -0.1239
    133  CA        17.7980  -59.3850   11.2280 C.3   167  ASP167      0.1674
    134  C         17.2810  -60.5080   10.3190 C.2   167  ASP167      0.2266
    135  O         17.9620  -60.9330    9.3870 O.2   167  ASP167     -0.2867
    136  CB        19.1510  -58.8720   10.7620 C.3   167  ASP167      0.1410
    137  CG        19.0330  -57.8700    9.6360 C.2   167  ASP167      0.3668
    138  OD1       17.9580  -57.2320    9.5120 O.co2 167  ASP167     -0.2456
    139  OD2       20.0260  -57.7150    8.8790 O.co2 167  ASP167     -0.2456
    140  N         17.2680  -61.2220    2.6720 N.3   171  ASP171     -0.1239
    141  CA        18.6690  -60.8940    2.4170 C.3   171  ASP171      0.1674
    142  C         19.5880  -61.7130    3.3040 C.2   171  ASP171      0.2266
    143  O         20.8000  -61.7720    3.0680 O.2   171  ASP171     -0.2867
    144  CB        18.9360  -59.4130    2.6470 C.3   171  ASP171      0.1410
    145  CG        17.8400  -58.5190    2.0860 C.2   171  ASP171      0.3668
    146  OD1       16.6510  -58.7230    2.4270 O.co2 171  ASP171     -0.2456
    147  OD2       18.1760  -57.5910    1.3130 O.co2 171  ASP171     -0.2456
    148  N         20.5460  -67.6440    2.6210 N.3   174  LEU174     -0.1245
    149  CA        21.3430  -67.9480    1.4620 C.3   174  LEU174      0.1561
    150  C         21.0990  -69.3670    1.0680 C.2   174  LEU174      0.2260
    151  O         20.5150  -70.1290    1.8280 O.2   174  LEU174     -0.2867
    152  CB        22.8180  -67.7370    1.7520 C.3   174  LEU174      0.0270
    153  CG        23.2810  -66.3690    2.2330 C.3   174  LEU174      0.0019
    154  CD1       24.7880  -66.4370    2.3930 C.3   174  LEU174      0.0001
    155  CD2       22.8760  -65.2770    1.2560 C.3   174  LEU174      0.0001
    156  N         22.1470  -66.8610    7.7850 N.3   184  SER184     -0.1202
    157  CA        23.4670  -66.3030    7.4990 C.3   184  SER184      0.2020
    158  C         23.9160  -65.0640    8.2250 C.2   184  SER184      0.2618
    159  O         25.1220  -64.8090    8.2880 O.2   184  SER184     -0.2717
    160  CB        23.6190  -66.0490    5.9940 C.3   184  SER184      0.2103
    161  OG        24.5130  -64.9720    5.7400 O.3   184  SER184     -0.2182
    162  N         23.0170  -64.2570    8.7510 N.am  185  ASP185     -0.1973
    163  CA        23.5300  -62.9480    9.0890 C.3   185  ASP185      0.1709
    164  C         23.6650  -62.5170   10.5300 C.2   185  ASP185      0.2293
    165  O         22.9500  -61.6190   10.9980 O.2   185  ASP185     -0.2864
    166  CB        22.8140  -61.8930    8.3020 C.3   185  ASP185      0.1436
    167  CG        23.7540  -60.9010    7.7620 C.2   185  ASP185      0.3671
    168  OD1       24.9780  -61.1450    7.9140 O.co2 185  ASP185     -0.2456
    169  OD2       23.2760  -59.9010    7.1840 O.co2 185  ASP185     -0.2456
    170  N         25.6230  -60.8020   12.4380 N.3   187  GLY187     -0.1210
    171  CA        26.1430  -59.5380   12.9050 C.3   187  GLY187      0.1956
    172  C         25.4240  -58.8850   14.0680 C.2   187  GLY187      0.2611
    173  O         26.0900  -58.3440   14.9430 O.2   187  GLY187     -0.2717
    174  N         24.0870  -58.9240   14.0870 N.am  188  PHE188     -0.1976
    175  CA        23.3330  -58.0810   15.0400 C.3   188  PHE188      0.1639
    176  C         22.6280  -58.8150   16.1600 C.2   188  PHE188      0.2290
    177  O         21.7400  -58.2550   16.8040 O.2   188  PHE188     -0.2864
    178  CB        22.3020  -57.1880   14.3430 C.3   188  PHE188      0.0560
    179  CG        22.8870  -56.2320   13.3520 C.ar  188  PHE188     -0.0200
    180  CD1       24.1550  -55.6930   13.5330 C.ar  188  PHE188     -0.0042
    181  CD2       22.1560  -55.8530   12.2360 C.ar  188  PHE188     -0.0042
    182  CE1       24.6960  -54.8140   12.6020 C.ar  188  PHE188     -0.0003
    183  CE2       22.6890  -54.9670   11.3070 C.ar  188  PHE188     -0.0003
    184  CZ        23.9650  -54.4440   11.4910 C.ar  188  PHE188     -0.0000
@<TRIPOS>BOND
     1    14    12    1
     2   113   114   ar
     3   113   111   ar
     4   114   112   ar
     5    12     9    1
     6    12    13    1
     7     9     8    1
     8     9    10    1
     9    11    10    2
    10   123   124    1
    11    10    16    1
    12   124   125    1
    13   111   109   ar
    14   112   110   ar
    15    13    15    1
    16   130   129    2
    17    16    17    2
    18   125   127   am
    19   125   126    2
    20   127   128    1
    21   109   110   ar
    22   109   108    1
    23   118   117    2
    24   117   116    1
    25    17    18    1
    26    28    26   ar
    27   129   128    1
    28    27    26   ar
    29   128   131    1
    30    26    25    1
    31   108   105    1
    32    53    52    2
    33   107   106    2
    34    18    20   am
    35    18    19    2
    36    20    21    1
    37   116   115    1
    38   116   119    1
    39    24    25    1
    40    24    21    1
    41   106   115   am
    42   106   105    1
    43    52    51    1
    44   105   104    1
    45    21    22    1
    46   119   120    1
    47    55    54    1
    48   104    97   am
    49   150   149    1
    50   150   151    2
    51    57    58    1
    52    58    61    1
    53    58    59    1
    54    54    51    1
    55    54    56    1
    56    23    22    2
    57    51    50    1
    58   155   153    1
    59   120   122    1
    60   120   121    1
    61   147   145   ar
    62    22    29   am
    63   149   152    1
    64   149   148    1
    65   152   153    1
    66   145   146   ar
    67   145   144    1
    68   153   154    1
    69    97    98    2
    70    97    96    1
    71    59    60    2
    72   141   144    1
    73   141   140    1
    74   141   142    1
    75    29    30    1
    76   143   142    2
    77   103   101   ar
    78    96    99    1
    79    96    95    1
    80    90    89    2
    81    99   100    1
    82    30    31    1
    83    49    48    2
    84   101   100    1
    85   101   102   ar
    86    48    47    1
    87    32    31    2
    88    89    95   am
    89    89    88    1
    90    31    33   am
    91    62    63    1
    92    63    64    1
    93    63    66    1
    94    92    93    1
    95    92    91    1
    96    33    34    1
    97    47    46    1
    98    86    84    1
    99   161   160    1
   100    87    88    1
   101    94    93    1
   102    88    91    1
   103    64    65    2
   104   160   157    1
   105    66    67    1
   106    85    84    1
   107    67    68    1
   108    46    41   am
   109    34    35    1
   110    34    37    1
   111    84    81    1
   112     7     1    1
   113     7     6    1
   114    68    69    1
   115   169   167   ar
   116    81    80    1
   117    81    82    1
   118     1     2    1
   119    69    70    1
   120    35    39   am
   121    35    36    2
   122   157   156    1
   123   157   158    1
   124    38    37    1
   125    39    40    1
   126    41    42    2
   127    41    40    1
   128   167   168   ar
   129   167   166    1
   130    82    83    2
   131   158   159    2
   132   158   162   am
   133   166   163    1
   134     6     5    1
   135    40    43    1
   136     2     5    1
   137     2     3    1
   138   162   163    1
   139   139   137   ar
   140     4     3    2
   141   163   164    1
   142    44    43    1
   143   135   134    2
   144   138   137   ar
   145    43    45    1
   146   137   136    1
   147   134   133    1
   148   164   165    2
   149   136   133    1
   150    78    77   ar
   151    79    77   ar
   152   133   132    1
   153   183   184   ar
   154   183   181   ar
   155   184   182   ar
   156    77    76    1
   157   181   179   ar
   158   170   171    1
   159   182   180   ar
   160    76    75    1
   161    75    72    1
   162   171   172    1
   163    74    73    2
   164   179   180   ar
   165   179   178    1
   166    72    73    1
   167    72    71    1
   168   172   174   am
   169   172   173    2
   170   174   175    1
   171   178   175    1
   172   175   176    1
   173   176   177    2
