@<TRIPOS>MOLECULE
tmp/4xbtA00.pdb
 154 143 0 0 0
SMALL
GASTEIGER

@<TRIPOS>ATOM
      1  N        -27.0950   -4.5480  -16.3840 N.3    36  LEU36      -0.1245
      2  CA       -27.1690   -5.6000  -17.4020 C.3    36  LEU36       0.1561
      3  C        -27.0640   -7.0150  -16.8290 C.2    36  LEU36       0.2260
      4  O        -27.7280   -7.9360  -17.3180 O.2    36  LEU36      -0.2867
      5  CB       -26.1080   -5.3900  -18.4830 C.3    36  LEU36       0.0270
      6  CG       -26.3630   -4.1980  -19.4040 C.3    36  LEU36       0.0019
      7  CD1      -25.3090   -4.1330  -20.5100 C.3    36  LEU36       0.0001
      8  CD2      -27.7670   -4.2800  -20.0000 C.3    36  LEU36       0.0001
      9  N        -33.3920    0.0220  -29.9870 N.3    54  TYR54      -0.1241
     10  CA       -32.2520   -0.7810  -29.5450 C.3    54  TYR54       0.1605
     11  C        -31.8020   -1.6670  -30.6870 C.2    54  TYR54       0.2264
     12  O        -32.6180   -2.3070  -31.3470 O.2    54  TYR54      -0.2867
     13  CB       -32.6600   -1.6520  -28.3490 C.3    54  TYR54       0.0534
     14  CG       -31.6740   -2.7320  -27.9100 C.ar   54  TYR54      -0.0201
     15  CD1      -30.3320   -2.4460  -27.6930 C.ar   54  TYR54      -0.0009
     16  CD2      -32.1130   -4.0270  -27.6470 C.ar   54  TYR54      -0.0009
     17  CE1      -29.4390   -3.4430  -27.2550 C.ar   54  TYR54       0.0417
     18  CE2      -31.2290   -5.0270  -27.2120 C.ar   54  TYR54       0.0417
     19  CZ       -29.8990   -4.7220  -27.0140 C.ar   54  TYR54       0.1957
     20  OH       -29.0260   -5.7020  -26.5720 O.3    54  TYR54      -0.2866
     21  N        -28.4630   -4.4840  -31.5030 N.3    56  ASN56      -0.1240
     22  CA       -27.1600   -5.1160  -31.6610 C.3    56  ASN56       0.1653
     23  C        -26.9200   -5.0690  -33.1510 C.2    56  ASN56       0.2266
     24  O        -27.6610   -5.6880  -33.9100 O.2    56  ASN56      -0.2867
     25  CB       -27.1930   -6.5750  -31.1810 C.3    56  ASN56       0.1155
     26  CG       -27.3380   -6.6890  -29.6740 C.2    56  ASN56       0.2627
     27  OD1      -28.3160   -7.2540  -29.1600 O.2    56  ASN56      -0.2716
     28  ND2      -26.3770   -6.1360  -28.9530 N.am   56  ASN56      -0.0877
     29  N        -27.7120   -7.5470  -35.9440 N.3    59  LEU59      -0.1245
     30  CA       -29.0850   -8.0850  -35.9370 C.3    59  LEU59       0.1561
     31  C        -30.0940   -6.9640  -36.2080 C.2    59  LEU59       0.2260
     32  O        -29.7390   -5.7910  -36.1140 O.2    59  LEU59      -0.2867
     33  CB       -29.3520   -8.7780  -34.5980 C.3    59  LEU59       0.0270
     34  CG       -28.4020   -9.9490  -34.2990 C.3    59  LEU59       0.0019
     35  CD1      -28.4190  -10.2990  -32.8270 C.3    59  LEU59       0.0001
     36  CD2      -28.8110  -11.1550  -35.1190 C.3    59  LEU59       0.0001
     37  N        -33.6730  -12.0750  -25.4890 N.3    75  PHE75      -0.1241
     38  CA       -32.2400  -12.2820  -25.3550 C.3    75  PHE75       0.1605
     39  C        -31.9090  -13.0290  -24.0590 C.2    75  PHE75       0.2264
     40  O        -31.1200  -13.9830  -24.0570 O.2    75  PHE75      -0.2867
     41  CB       -31.5020  -10.9430  -25.4130 C.3    75  PHE75       0.0534
     42  CG       -30.0370  -11.0530  -25.1270 C.ar   75  PHE75      -0.0203
     43  CD1      -29.1640  -11.5020  -26.1010 C.ar   75  PHE75      -0.0042
     44  CD2      -29.5330  -10.6970  -23.8830 C.ar   75  PHE75      -0.0042
     45  CE1      -27.8080  -11.6060  -25.8350 C.ar   75  PHE75      -0.0003
     46  CE2      -28.1820  -10.7990  -23.6110 C.ar   75  PHE75      -0.0003
     47  CZ       -27.3230  -11.2520  -24.5870 C.ar   75  PHE75      -0.0000
     48  N        -29.4320  -16.1030  -23.2030 N.3    79  PHE79      -0.1241
     49  CA       -28.1150  -15.6900  -22.7310 C.3    79  PHE79       0.1605
     50  C        -28.1300  -15.0390  -21.3630 C.2    79  PHE79       0.2264
     51  O        -29.0870  -14.3590  -20.9870 O.2    79  PHE79      -0.2867
     52  CB       -27.4920  -14.6820  -23.7010 C.3    79  PHE79       0.0534
     53  CG       -27.2240  -15.2320  -25.0580 C.ar   79  PHE79      -0.0203
     54  CD1      -26.0580  -15.9390  -25.3120 C.ar   79  PHE79      -0.0042
     55  CD2      -28.1360  -15.0520  -26.0870 C.ar   79  PHE79      -0.0042
     56  CE1      -25.8090  -16.4500  -26.5680 C.ar   79  PHE79      -0.0003
     57  CE2      -27.8880  -15.5630  -27.3510 C.ar   79  PHE79      -0.0003
     58  CZ       -26.7220  -16.2700  -27.5880 C.ar   79  PHE79      -0.0000
     59  N        -25.8020  -12.3010  -19.1860 N.3    81  ILE81      -0.1245
     60  CA       -24.6670  -11.3810  -19.1740 C.3    81  ILE81       0.1561
     61  C        -24.0660  -11.5210  -17.7820 C.2    81  ILE81       0.2260
     62  O        -24.7180  -11.2090  -16.7790 O.2    81  ILE81      -0.2867
     63  CB       -25.0910   -9.9250  -19.4540 C.3    81  ILE81       0.0252
     64  CG1      -25.6470   -9.8080  -20.8750 C.3    81  ILE81       0.0019
     65  CG2      -23.9020   -8.9630  -19.2910 C.3    81  ILE81       0.0019
     66  CD1      -26.2550   -8.4350  -21.1610 C.3    81  ILE81       0.0001
     67  N        -16.3280   -1.3980  -24.0640 N.3   100  ARG100     -0.1245
     68  CA       -16.4990   -2.3870  -23.0080 C.3   100  ARG100      0.1563
     69  C        -16.1510   -3.7950  -23.4410 C.2   100  ARG100      0.2260
     70  O        -15.9330   -4.0780  -24.6230 O.2   100  ARG100     -0.2867
     71  CB       -17.9610   -2.4320  -22.5110 C.3   100  ARG100      0.0307
     72  CG       -18.8520   -1.3060  -22.9780 C.3   100  ARG100      0.0489
     73  CD       -20.2290   -1.4260  -22.3240 C.3   100  ARG100      0.2205
     74  NE       -21.0480   -2.5210  -22.8440 N.pl3 100  ARG100     -0.0865
     75  CZ       -21.9350   -2.3910  -23.8310 C.cat 100  ARG100      0.5346
     76  NH1      -22.6440   -3.4330  -24.2290 N.pl3 100  ARG100      0.1354
     77  NH2      -22.1170   -1.2110  -24.4090 N.pl3 100  ARG100      0.1354
     78  N        -18.2370   -7.3900  -22.5370 N.3   102  ASP102     -0.1239
     79  CA       -19.3600   -8.0290  -21.8690 C.3   102  ASP102      0.1674
     80  C        -19.0870   -9.5180  -21.8790 C.2   102  ASP102      0.2266
     81  O        -18.7840  -10.0730  -22.9320 O.2   102  ASP102     -0.2867
     82  CB       -20.6490   -7.8130  -22.6580 C.3   102  ASP102      0.1410
     83  CG       -21.1310   -6.3780  -22.6490 C.2   102  ASP102      0.3668
     84  OD1      -20.4690   -5.5000  -22.0580 O.co2 102  ASP102     -0.2456
     85  OD2      -22.1920   -6.1390  -23.2630 O.co2 102  ASP102     -0.2456
     86  N        -20.6730  -12.9200  -22.0460 N.3   104  VAL104     -0.1245
     87  CA       -21.9800  -13.4810  -22.3630 C.3   104  VAL104      0.1561
     88  C        -21.9260  -14.9990  -22.3330 C.2   104  VAL104      0.2260
     89  O        -20.9770  -15.6170  -22.7790 O.2   104  VAL104     -0.2867
     90  CB       -22.5380  -12.9650  -23.7140 C.3   104  VAL104      0.0252
     91  CG1      -22.4930  -11.4480  -23.7610 C.3   104  VAL104      0.0019
     92  CG2      -21.7640  -13.5350  -24.8700 C.3   104  VAL104      0.0019
     93  N        -17.0790  -10.6110  -25.1130 N.3   115  VAL115     -0.1245
     94  CA       -17.3440   -9.8460  -26.3270 C.3   115  VAL115      0.1561
     95  C        -16.7790   -8.4320  -26.2380 C.2   115  VAL115      0.2260
     96  O        -17.0680   -7.7190  -25.2810 O.2   115  VAL115     -0.2867
     97  CB       -18.8520   -9.7180  -26.5510 C.3   115  VAL115      0.0252
     98  CG1      -19.1360   -9.1490  -27.9330 C.3   115  VAL115      0.0019
     99  CG2      -19.5220  -11.0840  -26.3890 C.3   115  VAL115      0.0019
    100  N        -17.0620   -4.8230  -27.2910 N.3   117  VAL117     -0.1245
    101  CA       -18.1770   -4.0430  -27.8080 C.3   117  VAL117      0.1561
    102  C        -17.9550   -2.5390  -27.6330 C.2   117  VAL117      0.2260
    103  O        -17.4250   -2.0820  -26.6250 O.2   117  VAL117     -0.2867
    104  CB       -19.5130   -4.4870  -27.1480 C.3   117  VAL117      0.0252
    105  CG1      -19.3770   -4.5270  -25.6410 C.3   117  VAL117      0.0019
    106  CG2      -20.6730   -3.5880  -27.5660 C.3   117  VAL117      0.0019
    107  N        -30.0410    2.9280  -28.3200 N.3   131  TRP131     -0.1241
    108  CA       -28.8870    2.1860  -27.8330 C.3   131  TRP131      0.1605
    109  C        -28.4610    1.2400  -28.9420 C.2   131  TRP131      0.2264
    110  O        -29.2260    0.3560  -29.3380 O.2   131  TRP131     -0.2867
    111  CB       -29.2410    1.4090  -26.5550 C.3   131  TRP131      0.0550
    112  CG       -28.1830    0.4190  -26.0890 C.ar  131  TRP131      0.0003
    113  CD1      -26.8370    0.4540  -26.3560 C.ar  131  TRP131      0.0946
    114  CD2      -28.4000   -0.7430  -25.2880 C.ar  131  TRP131      0.0152
    115  NE1      -26.2060   -0.6110  -25.7570 N.ar  131  TRP131     -0.2442
    116  CE2      -27.1550   -1.3780  -25.0990 C.ar  131  TRP131      0.0810
    117  CE3      -29.5410   -1.3260  -24.7040 C.ar  131  TRP131      0.0012
    118  CZ2      -26.9980   -2.5480  -24.3610 C.ar  131  TRP131      0.0191
    119  CZ3      -29.3950   -2.5020  -23.9700 C.ar  131  TRP131      0.0001
    120  CH2      -28.1290   -3.0970  -23.8040 C.ar  131  TRP131      0.0015
    121  N        -25.2030   -1.2920  -30.0420 N.3   133  ASP133     -0.1239
    122  CA       -23.9420   -1.9500  -29.7060 C.3   133  ASP133      0.1674
    123  C        -23.3040   -2.5310  -30.9650 C.2   133  ASP133      0.2266
    124  O        -23.9640   -3.2410  -31.7340 O.2   133  ASP133     -0.2867
    125  CB       -24.1860   -3.1000  -28.7250 C.3   133  ASP133      0.1410
    126  CG       -24.1550   -2.6700  -27.2720 C.2   133  ASP133      0.3668
    127  OD1      -23.6980   -1.5460  -26.9610 O.co2 133  ASP133     -0.2456
    128  OD2      -24.5810   -3.4930  -26.4250 O.co2 133  ASP133     -0.2456
    129  N        -20.2660   -4.9120  -32.5550 N.3   135  PHE135     -0.1241
    130  CA       -19.3610   -6.0140  -32.2510 C.3   135  PHE135      0.1605
    131  C        -19.4480   -7.0060  -33.3960 C.2   135  PHE135      0.2264
    132  O        -20.2610   -6.8440  -34.3050 O.2   135  PHE135     -0.2867
    133  CB       -19.7760   -6.6950  -30.9440 C.3   135  PHE135      0.0534
    134  CG       -21.1610   -7.2890  -30.9840 C.ar  135  PHE135     -0.0203
    135  CD1      -22.2730   -6.4900  -30.7880 C.ar  135  PHE135     -0.0042
    136  CD2      -21.3430   -8.6460  -31.2270 C.ar  135  PHE135     -0.0042
    137  CE1      -23.5540   -7.0270  -30.8380 C.ar  135  PHE135     -0.0003
    138  CE2      -22.6100   -9.2010  -31.2780 C.ar  135  PHE135     -0.0003
    139  CZ       -23.7280   -8.3890  -31.0820 C.ar  135  PHE135     -0.0000
    140  N        -20.5240  -10.5850  -34.6130 N.3   137  LEU137     -0.1245
    141  CA       -21.4190  -11.6470  -34.1530 C.3   137  LEU137      0.1561
    142  C        -20.8570  -13.0490  -34.3870 C.2   137  LEU137      0.2260
    143  O        -21.0410  -13.9390  -33.5590 O.2   137  LEU137     -0.2867
    144  CB       -22.7850  -11.5120  -34.8130 C.3   137  LEU137      0.0270
    145  CG       -23.8200  -12.5640  -34.4010 C.3   137  LEU137      0.0019
    146  CD1      -24.0580  -12.5380  -32.8800 C.3   137  LEU137      0.0001
    147  CD2      -25.1240  -12.3260  -35.1490 C.3   137  LEU137      0.0001
    148  N        -18.8640  -14.4730  -31.5660 N.3   140  VAL140     -0.1245
    149  CA       -19.6740  -14.8590  -30.4160 C.3   140  VAL140      0.1561
    150  C        -20.3320  -16.2070  -30.6660 C.2   140  VAL140      0.2260
    151  O        -20.2600  -17.1080  -29.8300 O.2   140  VAL140     -0.2867
    152  CB       -20.7630  -13.8200  -30.1280 C.3   140  VAL140      0.0252
    153  CG1      -21.6490  -14.2730  -28.9680 C.3   140  VAL140      0.0019
    154  CG2      -20.1240  -12.4680  -29.8300 C.3   140  VAL140      0.0019
@<TRIPOS>BOND
     1    31    32    2
     2    31    30    1
     3    29    30    1
     4    30    33    1
     5   147   145    1
     6    36    34    1
     7   144   145    1
     8   144   141    1
     9   140   141    1
    10    33    34    1
    11   145   146    1
    12   142   141    1
    13   142   143    2
    14   132   131    2
    15    34    35    1
    16    24    23    2
    17   131   130    1
    18    23    22    1
    19   129   130    1
    20   130   133    1
    21   124   123    2
    22    22    21    1
    23    22    25    1
    24   148   149    1
    25    12    11    2
    26   138   136   ar
    27   138   139   ar
    28   136   134   ar
    29    25    26    1
    30   139   137   ar
    31   134   133    1
    32   134   135   ar
    33   123   122    1
    34   137   135   ar
    35    11    10    1
    36   150   149    1
    37   150   151    2
    38   149   152    1
    39   152   154    1
    40   152   153    1
    41   121   122    1
    42     9    10    1
    43   122   125    1
    44    26    27    2
    45    26    28   am
    46    10    13    1
    47   110   109    2
    48   109   108    1
    49   125   126    1
    50    13    14    1
    51   107   108    1
    52    98    97    1
    53    14    15   ar
    54    14    16   ar
    55   108   111    1
    56   101   102    1
    57   101   100    1
    58   101   104    1
    59    15    17   ar
    60    16    18   ar
    61   102   103    2
    62    58    57   ar
    63    58    56   ar
    64   106   104    1
    65    57    55   ar
    66   126   127   ar
    67   126   128   ar
    68    17    19   ar
    69    18    19   ar
    70   104   105    1
    71    19    20    1
    72    56    54   ar
    73   111   112    1
    74    97    99    1
    75    97    94    1
    76   113   112   ar
    77   113   115   ar
    78    94    95    1
    79    94    93    1
    80    95    96    2
    81    43    45   ar
    82    43    42   ar
    83   112   114   ar
    84    55    53   ar
    85    45    47   ar
    86   115   116   ar
    87    37    38    1
    88    41    38    1
    89    41    42    1
    90    38    39    1
    91    54    53   ar
    92   114   116   ar
    93   114   117   ar
    94    42    44   ar
    95   116   118   ar
    96    53    52    1
    97    92    90    1
    98   117   119   ar
    99    70    69    2
   100    47    46   ar
   101    77    75    1
   102   118   120   ar
   103    76    75    1
   104    67    68    1
   105    39    40    2
   106   119   120   ar
   107    44    46   ar
   108    75    74    2
   109    91    90    1
   110    90    87    1
   111    52    49    1
   112    69    68    1
   113    85    83   ar
   114    48    49    1
   115    68    71    1
   116    72    71    1
   117    72    73    1
   118    81    80    2
   119    74    73    1
   120    89    88    2
   121    49    50    1
   122    82    83    1
   123    82    79    1
   124    83    84   ar
   125    78    79    1
   126    87    88    1
   127    87    86    1
   128    80    79    1
   129    50    51    2
   130    66    64    1
   131    64    63    1
   132     7     6    1
   133     8     6    1
   134    63    65    1
   135    63    60    1
   136     6     5    1
   137    59    60    1
   138    60    61    1
   139     5     2    1
   140    61    62    2
   141     2     3    1
   142     2     1    1
   143     4     3    2
