@<TRIPOS>MOLECULE
tmp/4xbtD00.pdb
 161 149 0 0 0
SMALL
GASTEIGER

@<TRIPOS>ATOM
      1  N        -34.1090  -40.6810   -0.1420 N.3    32  LEU32      -0.1245
      2  CA       -34.1550  -39.2350    0.0730 C.3    32  LEU32       0.1561
      3  C        -34.3870  -38.8660    1.5330 C.2    32  LEU32       0.2260
      4  O        -33.8860  -37.8410    2.0030 O.2    32  LEU32      -0.2867
      5  CB       -35.2100  -38.5700   -0.8150 C.3    32  LEU32       0.0270
      6  CG       -34.8170  -38.4400   -2.2890 C.3    32  LEU32       0.0019
      7  CD1      -35.9720  -37.8320   -3.0840 C.3    32  LEU32       0.0001
      8  CD2      -33.5430  -37.6060   -2.4330 C.3    32  LEU32       0.0001
      9  N        -28.5070  -31.7530  -11.7820 N.3    50  TYR50      -0.1241
     10  CA       -29.6730  -31.7610  -10.8990 C.3    50  TYR50       0.1605
     11  C        -30.3000  -30.3930  -10.9740 C.2    50  TYR50       0.2264
     12  O        -29.6000  -29.3870  -10.9300 O.2    50  TYR50      -0.2867
     13  CB       -29.2380  -32.0500   -9.4560 C.3    50  TYR50       0.0534
     14  CG       -30.3170  -31.9200   -8.3820 C.ar   50  TYR50      -0.0201
     15  CD1      -31.5940  -32.4310   -8.5750 C.ar   50  TYR50      -0.0009
     16  CD2      -30.0260  -31.3530   -7.1490 C.ar   50  TYR50      -0.0009
     17  CE1      -32.5690  -32.3290   -7.5800 C.ar   50  TYR50       0.0417
     18  CE2      -30.9860  -31.2590   -6.1470 C.ar   50  TYR50       0.0417
     19  CZ       -32.2490  -31.7470   -6.3720 C.ar   50  TYR50       0.1957
     20  OH       -33.2040  -31.6590   -5.3930 O.3    50  TYR50      -0.2866
     21  N        -33.9150  -28.4730   -9.2480 N.3    52  ASN52      -0.1240
     22  CA       -35.2840  -28.1280   -8.8800 C.3    52  ASN52       0.1653
     23  C        -35.6270  -26.9870   -9.8110 C.2    52  ASN52       0.2266
     24  O        -35.0100  -25.9240   -9.7530 O.2    52  ASN52      -0.2867
     25  CB       -35.3850  -27.6850   -7.4190 C.3    52  ASN52       0.1155
     26  CG       -35.1560  -28.8250   -6.4490 C.2    52  ASN52       0.2627
     27  OD1      -34.1890  -28.8230   -5.6730 O.2    52  ASN52      -0.2716
     28  ND2      -36.0360  -29.8160   -6.4940 N.am   52  ASN52      -0.0877
     29  N        -35.3210  -23.2190   -9.4010 N.3    55  LEU55      -0.1245
     30  CA       -34.0490  -22.7580   -8.8530 C.3    55  LEU55       0.1561
     31  C        -32.8920  -23.1010   -9.8050 C.2    55  LEU55       0.2260
     32  O        -33.0720  -23.8840  -10.7360 O.2    55  LEU55      -0.2867
     33  CB       -33.8360  -23.3710   -7.4670 C.3    55  LEU55       0.0270
     34  CG       -34.8840  -22.9640   -6.4230 C.3    55  LEU55       0.0019
     35  CD1      -34.7440  -23.8170   -5.1740 C.3    55  LEU55       0.0001
     36  CD2      -34.7470  -21.4710   -6.0810 C.3    55  LEU55       0.0001
     37  N        -29.3530  -27.9510    0.2240 N.3    71  PHE71      -0.1241
     38  CA       -30.7830  -28.1860    0.4030 C.3    71  PHE71       0.1605
     39  C        -31.0690  -28.8100    1.7700 C.2    71  PHE71       0.2264
     40  O        -32.0090  -28.4130    2.4650 O.2    71  PHE71      -0.2867
     41  CB       -31.3120  -29.0780   -0.7290 C.3    71  PHE71       0.0534
     42  CG       -32.7210  -29.5530   -0.5250 C.ar   71  PHE71      -0.0203
     43  CD1      -33.7990  -28.7740   -0.9300 C.ar   71  PHE71      -0.0042
     44  CD2      -32.9730  -30.7860    0.0600 C.ar   71  PHE71      -0.0042
     45  CE1      -35.0970  -29.2180   -0.7410 C.ar   71  PHE71      -0.0003
     46  CE2      -34.2710  -31.2300    0.2540 C.ar   71  PHE71      -0.0003
     47  CZ       -35.3300  -30.4490   -0.1470 C.ar   71  PHE71      -0.0000
     48  N        -33.8160  -28.0060    4.6060 N.3    75  PHE75      -0.1241
     49  CA       -35.0140  -28.8390    4.5540 C.3    75  PHE75       0.1605
     50  C        -34.7410  -30.2810    4.9430 C.2    75  PHE75       0.2264
     51  O        -33.6640  -30.8210    4.6680 O.2    75  PHE75      -0.2867
     52  CB       -35.5940  -28.8580    3.1360 C.3    75  PHE75       0.0534
     53  CG       -36.2460  -27.5710    2.7200 C.ar   75  PHE75      -0.0203
     54  CD1      -37.5300  -27.2680    3.1330 C.ar   75  PHE75      -0.0042
     55  CD2      -35.5820  -26.6790    1.8940 C.ar   75  PHE75      -0.0042
     56  CE1      -38.1470  -26.0890    2.7320 C.ar   75  PHE75      -0.0003
     57  CE2      -36.1900  -25.4910    1.4960 C.ar   75  PHE75      -0.0003
     58  CZ       -37.4740  -25.2000    1.9160 C.ar   75  PHE75      -0.0000
     59  N        -36.5560  -33.9600    4.0890 N.3    77  ILE77      -0.1245
     60  CA       -37.5960  -34.6930    3.3810 C.3    77  ILE77       0.1561
     61  C        -38.0840  -35.7860    4.3220 C.2    77  ILE77       0.2260
     62  O        -37.3190  -36.6870    4.6860 O.2    77  ILE77      -0.2867
     63  CB       -37.0690  -35.2920    2.0660 C.3    77  ILE77       0.0252
     64  CG1      -36.5890  -34.1640    1.1430 C.3    77  ILE77       0.0019
     65  CG2      -38.1630  -36.1020    1.3800 C.3    77  ILE77       0.0019
     66  CD1      -35.8270  -34.6500   -0.0980 C.3    77  ILE77       0.0001
     67  N        -45.2860  -37.5920   -7.8670 N.3    96  ARG96      -0.1245
     68  CA       -45.1100  -37.8220   -6.4330 C.3    96  ARG96       0.1563
     69  C        -45.7210  -36.7410   -5.5710 C.2    96  ARG96       0.2260
     70  O        -46.0860  -35.6720   -6.0520 O.2    96  ARG96      -0.2867
     71  CB       -43.6080  -37.8470   -6.0800 C.3    96  ARG96       0.0307
     72  CG       -42.6900  -38.3950   -7.1570 C.3    96  ARG96       0.0489
     73  CD       -41.2870  -38.6360   -6.6090 C.3    96  ARG96       0.2205
     74  NE       -40.6650  -37.4410   -6.0350 N.pl3  96  ARG96      -0.0865
     75  CZ       -39.8070  -36.6540   -6.6790 C.cat  96  ARG96       0.5346
     76  NH1      -39.2740  -35.5970   -6.0590 N.pl3  96  ARG96       0.1354
     77  NH2      -39.4680  -36.9240   -7.9360 N.pl3  96  ARG96       0.1354
     78  N        -43.9040  -35.1310   -2.1200 N.3    98  ASP98      -0.1239
     79  CA       -42.7960  -35.1700   -1.1700 C.3    98  ASP98       0.1674
     80  C        -43.1900  -34.3320    0.0370 C.2    98  ASP98       0.2266
     81  O        -43.5900  -33.1750   -0.1150 O.2    98  ASP98      -0.2867
     82  CB       -41.5180  -34.5440   -1.7480 C.3    98  ASP98       0.1410
     83  CG       -40.9350  -35.3220   -2.9140 C.2    98  ASP98       0.3668
     84  OD1      -41.5540  -36.2930   -3.3700 O.co2  98  ASP98      -0.2456
     85  OD2      -39.8320  -34.9470   -3.3860 O.co2  98  ASP98      -0.2456
     86  N        -42.0120  -32.1250    2.8070 N.3   100  VAL100     -0.1245
     87  CA       -40.8080  -31.3830    3.1690 C.3   100  VAL100      0.1561
     88  C        -41.0380  -30.5490    4.4180 C.2   100  VAL100      0.2260
     89  O        -42.1360  -30.0520    4.6570 O.2   100  VAL100     -0.2867
     90  CB       -40.3010  -30.4820    2.0260 C.3   100  VAL100      0.0252
     91  CG1      -40.0850  -31.3050    0.7860 C.3   100  VAL100      0.0019
     92  CG2      -41.2760  -29.3430    1.7480 C.3   100  VAL100      0.0019
     93  N        -45.6180  -31.3910   -1.0230 N.3   111  VAL111     -0.1245
     94  CA       -45.3430  -30.7920   -2.3260 C.3   111  VAL111      0.1561
     95  C        -45.7290  -31.7290   -3.4700 C.2   111  VAL111      0.2260
     96  O        -45.2710  -32.8630   -3.5130 O.2   111  VAL111     -0.2867
     97  CB       -43.8430  -30.4860   -2.4790 C.3   111  VAL111      0.0252
     98  CG1      -43.6080  -29.6460   -3.7200 C.3   111  VAL111      0.0019
     99  CG2      -43.3250  -29.7530   -1.2460 C.3   111  VAL111      0.0019
    100  N        -45.1250  -32.9550   -6.9570 N.3   113  VAL113     -0.1245
    101  CA       -43.9590  -32.8680   -7.8260 C.3   113  VAL113      0.1561
    102  C        -44.0020  -33.9080   -8.9440 C.2   113  VAL113      0.2260
    103  O        -44.4100  -35.0570   -8.7390 O.2   113  VAL113     -0.2867
    104  CB       -42.6510  -32.9880   -7.0060 C.3   113  VAL113      0.0252
    105  CG1      -42.6890  -34.2170   -6.1220 C.3   113  VAL113      0.0019
    106  CG2      -41.4250  -33.0170   -7.9180 C.3   113  VAL113      0.0019
    107  N        -31.4410  -35.2410  -13.1470 N.3   127  TRP127     -0.1241
    108  CA       -32.6440  -35.3050  -12.3130 C.3   127  TRP127      0.1605
    109  C        -33.2290  -33.9070  -12.2550 C.2   127  TRP127      0.2264
    110  O        -32.5680  -32.9740  -11.7980 O.2   127  TRP127     -0.2867
    111  CB       -32.2860  -35.7900  -10.8990 C.3   127  TRP127      0.0550
    112  CG       -33.4170  -35.7070   -9.8830 C.ar  127  TRP127      0.0003
    113  CD1      -34.7640  -35.6980  -10.1380 C.ar  127  TRP127      0.0946
    114  CD2      -33.2750  -35.6240   -8.4620 C.ar  127  TRP127      0.0152
    115  NE1      -35.4670  -35.6120   -8.9530 N.ar  127  TRP127     -0.2442
    116  CE2      -34.5770  -35.5620   -7.9110 C.ar  127  TRP127      0.0810
    117  CE3      -32.1790  -35.5890   -7.5930 C.ar  127  TRP127      0.0012
    118  CZ2      -34.8040  -35.4790   -6.5330 C.ar  127  TRP127      0.0191
    119  CZ3      -32.4060  -35.4900   -6.2280 C.ar  127  TRP127      0.0001
    120  CH2      -33.7050  -35.4330   -5.7140 C.ar  127  TRP127      0.0015
    121  N        -36.7880  -31.8400  -11.0650 N.3   129  ASP129     -0.1239
    122  CA       -38.0960  -31.8760  -10.4030 C.3   129  ASP129      0.1674
    123  C        -38.8800  -30.6040  -10.6980 C.2   129  ASP129      0.2266
    124  O        -38.3620  -29.4990  -10.5300 O.2   129  ASP129     -0.2867
    125  CB       -37.9260  -32.0280   -8.8870 C.3   129  ASP129      0.1410
    126  CG       -37.8530  -33.4780   -8.4350 C.2   129  ASP129      0.3668
    127  OD1      -38.1590  -34.4030   -9.2300 O.co2 129  ASP129     -0.2456
    128  OD2      -37.4900  -33.6910   -7.2570 O.co2 129  ASP129     -0.2456
    129  N        -42.2220  -28.3040   -9.8880 N.3   131  PHE131     -0.1241
    130  CA       -43.2360  -28.0090   -8.8730 C.3   131  PHE131      0.1605
    131  C        -43.3570  -26.4930   -8.7490 C.2   131  PHE131      0.2264
    132  O        -42.5690  -25.7460   -9.3450 O.2   131  PHE131     -0.2867
    133  CB       -42.8310  -28.5980   -7.5090 C.3   131  PHE131      0.0534
    134  CG       -41.5220  -28.0790   -6.9970 C.ar  131  PHE131     -0.0203
    135  CD1      -40.3280  -28.6520   -7.4140 C.ar  131  PHE131     -0.0042
    136  CD2      -41.4770  -27.0190   -6.0980 C.ar  131  PHE131     -0.0042
    137  CE1      -39.1060  -28.1640   -6.9630 C.ar  131  PHE131     -0.0003
    138  CE2      -40.2600  -26.5290   -5.6430 C.ar  131  PHE131     -0.0003
    139  CZ       -39.0750  -27.1040   -6.0750 C.ar  131  PHE131     -0.0000
    140  N        -42.7530  -23.3310   -6.5240 N.3   133  LEU133     -0.1245
    141  CA       -41.9320  -22.9680   -5.3710 C.3   133  LEU133      0.1561
    142  C        -42.6500  -22.0180   -4.4260 C.2   133  LEU133      0.2260
    143  O        -42.4890  -22.1260   -3.2100 O.2   133  LEU133     -0.2867
    144  CB       -40.5980  -22.3490   -5.8210 C.3   133  LEU133      0.0270
    145  CG       -39.6550  -21.8840   -4.7060 C.3   133  LEU133      0.0019
    146  CD1      -39.3390  -23.0440   -3.7600 C.3   133  LEU133      0.0001
    147  CD2      -38.3690  -21.3100   -5.2960 C.3   133  LEU133      0.0001
    148  N        -44.6260  -23.6950   -1.7340 N.3   136  VAL136     -0.1245
    149  CA       -43.7750  -24.2530   -0.6920 C.3   136  VAL136      0.1561
    150  C        -43.3650  -23.1410    0.2590 C.2   136  VAL136      0.2260
    151  O        -43.5280  -23.2690    1.4810 O.2   136  VAL136     -0.2867
    152  CB       -42.5060  -24.9120   -1.2880 C.3   136  VAL136      0.0252
    153  CG1      -41.6190  -25.4860   -0.1800 C.3   136  VAL136      0.0019
    154  CG2      -42.9000  -26.0050   -2.2630 C.3   136  VAL136      0.0019
    155  N        -37.3090  -19.0630    0.0850 N.3   144  VAL144     -0.1245
    156  CA       -36.2270  -19.8570   -0.4880 C.3   144  VAL144      0.1561
    157  C        -35.4760  -19.2010   -1.6520 C.2   144  VAL144      0.2260
    158  O        -34.2440  -19.1760   -1.6720 O.2   144  VAL144     -0.2867
    159  CB       -36.7690  -21.2220   -0.9490 C.3   144  VAL144      0.0252
    160  CG1      -35.6950  -22.0090   -1.6770 C.3   144  VAL144      0.0019
    161  CG2      -37.3130  -22.0110    0.2470 C.3   144  VAL144      0.0019
@<TRIPOS>BOND
     1   107   108    1
     2   108   109    1
     3   108   111    1
     4   109   110    2
     5     9    10    1
     6   121   122    1
     7    11    12    2
     8    11    10    1
     9   111   112    1
    10    10    13    1
    11    32    31    2
    12   123   124    2
    13   123   122    1
    14   122   125    1
    15   113   112   ar
    16   113   115   ar
    17   129   130    1
    18   112   114   ar
    19    23    24    2
    20    23    22    1
    21    31    30    1
    22    13    14    1
    23    29    30    1
    24   132   131    2
    25    21    22    1
    26   127   126   ar
    27   115   116   ar
    28   102   103    2
    29   102   101    1
    30   125   126    1
    31    22    25    1
    32   130   131    1
    33   130   133    1
    34    30    33    1
    35    15    14   ar
    36    15    17   ar
    37   114   116   ar
    38   114   117   ar
    39   126   128   ar
    40    14    16   ar
    41    77    75    1
    42   106   104    1
    43   116   118   ar
    44    67    68    1
    45   101   104    1
    46   101   100    1
    47   117   119   ar
    48    17    19   ar
    49   133   134    1
    50    33    34    1
    51    25    26    1
    52   135   134   ar
    53   135   137   ar
    54    72    73    1
    55    72    71    1
    56    16    18   ar
    57   104   105    1
    58   134   136   ar
    59   137   139   ar
    60    75    76    1
    61    75    74    2
    62    73    74    1
    63   118   120   ar
    64   140   141    1
    65    28    26   am
    66    26    27    2
    67    68    71    1
    68    68    69    1
    69    34    36    1
    70    34    35    1
    71    19    18   ar
    72    19    20    1
    73   119   120   ar
    74   136   138   ar
    75   139   138   ar
    76    70    69    2
    77   144   141    1
    78   144   145    1
    79   141   142    1
    80   147   145    1
    81   145   146    1
    82   142   143    2
    83    98    97    1
    84    96    95    2
    85    95    94    1
    86    85    83   ar
    87    84    83   ar
    88     7     6    1
    89    83    82    1
    90    97    94    1
    91    97    99    1
    92     8     6    1
    93    94    93    1
    94     6     5    1
    95   154   152    1
    96    78    79    1
    97    82    79    1
    98   148   149    1
    99   160   159    1
   100   158   157    2
   101   157   156    1
   102   152   149    1
   103   152   153    1
   104    79    80    1
   105   159   156    1
   106   159   161    1
   107    43    45   ar
   108    43    42   ar
   109     5     2    1
   110    45    47   ar
   111    41    42    1
   112    41    38    1
   113   149   150    1
   114    42    44   ar
   115   156   155    1
   116    47    46   ar
   117     1     2    1
   118    81    80    2
   119    66    64    1
   120    44    46   ar
   121     2     3    1
   122    37    38    1
   123   150   151    2
   124    38    39    1
   125    91    90    1
   126    64    63    1
   127    65    63    1
   128    57    55   ar
   129    57    58   ar
   130     3     4    2
   131    92    90    1
   132    39    40    2
   133    55    53   ar
   134    58    56   ar
   135    90    87    1
   136    63    60    1
   137    53    54   ar
   138    53    52    1
   139    56    54   ar
   140    86    87    1
   141    52    49    1
   142    87    88    1
   143    60    59    1
   144    60    61    1
   145    61    62    2
   146    88    89    2
   147    49    48    1
   148    49    50    1
   149    51    50    2
