@<TRIPOS>MOLECULE
tmp/4xc0A00.pdb
 151 142 0 0 0
SMALL
GASTEIGER

@<TRIPOS>ATOM
      1  N         26.9930    8.9890   77.4000 N.3    35  GLU35      -0.1245
      2  CA        25.6130    9.4570   77.2310 C.3    35  GLU35       0.1567
      3  C         24.9410    8.9220   75.9730 C.2    35  GLU35       0.2260
      4  O         23.7650    8.5430   76.0120 O.2    35  GLU35      -0.2867
      5  CB        25.5350   10.9850   77.2940 C.3    35  GLU35       0.0388
      6  CG        25.9220   11.5810   78.6560 C.3    35  GLU35       0.1160
      7  CD        25.2080   10.9230   79.8340 C.2    35  GLU35       0.3649
      8  OE1       24.0150   10.5550   79.7130 O.co2  35  GLU35      -0.2457
      9  OE2       25.8490   10.7720   80.8940 O.co2  35  GLU35      -0.2457
     10  N         24.2920    5.2520   76.5380 N.3    38  SER38      -0.1202
     11  CA        23.1860    5.1650   77.5000 C.3    38  SER38       0.2020
     12  C         21.8230    5.3330   76.8190 C.2    38  SER38       0.2619
     13  O         20.8860    4.5830   77.0810 O.2    38  SER38      -0.2717
     14  CB        23.3490    6.2430   78.5810 C.3    38  SER38       0.2103
     15  OG        22.2030    6.3160   79.4220 O.3    38  SER38      -0.2182
     16  N         21.7150    6.3460   75.9690 N.am   39  ASN39      -0.1960
     17  CA        20.4820    6.5680   75.2170 C.3    39  ASN39       0.1819
     18  C         20.1230    5.4030   74.3100 C.2    39  ASN39       0.2621
     19  O         18.9430    5.0260   74.2140 O.2    39  ASN39      -0.2715
     20  CB        20.5840    7.8600   74.4170 C.3    39  ASN39       0.1195
     21  CG        20.4840    9.0810   75.3000 C.2    39  ASN39       0.2630
     22  OD1       20.0280    8.9900   76.4400 O.2    39  ASN39      -0.2716
     23  ND2       20.9290   10.2250   74.7990 N.am   39  ASN39      -0.0877
     24  N         21.1300    4.8370   73.6490 N.am   40  ALA40      -0.1977
     25  CA        20.9140    3.6740   72.7870 C.3    40  ALA40       0.1597
     26  C         20.3950    2.5030   73.6230 C.2    40  ALA40       0.2287
     27  O         19.3990    1.8670   73.2600 O.2    40  ALA40      -0.2864
     28  CB        22.1920    3.2900   72.0590 C.3    40  ALA40       0.0319
     29  N         18.8680    2.6300   76.6150 N.3    42  ASP42      -0.1225
     30  CA        17.5050    2.9530   77.0640 C.3    42  ASP42       0.1805
     31  C         16.4670    2.6690   75.9690 C.2    42  ASP42       0.2597
     32  O         15.3910    2.1270   76.2500 O.2    42  ASP42      -0.2718
     33  CB        17.3930    4.4200   77.5150 C.3    42  ASP42       0.1424
     34  CG        18.1510    4.7210   78.8180 C.2    42  ASP42       0.3668
     35  OD1       18.6400    3.7950   79.4990 O.co2  42  ASP42      -0.2456
     36  OD2       18.2610    5.9180   79.1570 O.co2  42  ASP42      -0.2456
     37  N         16.7930    3.0350   74.7250 N.am   43  ALA43      -0.1979
     38  CA        15.8830    2.8250   73.5890 C.3    43  ALA43       0.1597
     39  C         15.6580    1.3430   73.2980 C.2    43  ALA43       0.2287
     40  O         14.5450    0.9230   72.9610 O.2    43  ALA43      -0.2864
     41  CB        16.4020    3.5280   72.3560 C.3    43  ALA43       0.0319
     42  N         13.3960   -0.0650   75.9950 N.3    46  LYS46      -0.1245
     43  CA        12.0040    0.3360   75.7660 C.3    46  LYS46       0.1561
     44  C         11.2940   -0.5890   74.7720 C.2    46  LYS46       0.2260
     45  O         10.2150   -1.1050   75.0620 O.2    46  LYS46      -0.2867
     46  CB        11.9300    1.8030   75.3210 C.3    46  LYS46       0.0271
     47  CG        10.5830    2.4870   75.5780 C.3    46  LYS46       0.0035
     48  CD        10.6330    3.9870   75.2320 C.3    46  LYS46       0.0206
     49  CE        11.5490    4.7720   76.1750 C.3    46  LYS46       0.1093
     50  NZ        11.7690    6.1990   75.7340 N.3    46  LYS46      -0.1314
     51  N         21.3160    2.4850   66.9340 N.3    81  ASP81      -0.1239
     52  CA        20.6340    1.4800   67.7380 C.3    81  ASP81       0.1674
     53  C         19.3840    0.9950   67.0070 C.2    81  ASP81       0.2266
     54  O         18.8140    1.7150   66.1860 O.2    81  ASP81      -0.2867
     55  CB        20.3050    2.0150   69.1420 C.3    81  ASP81       0.1410
     56  CG        19.2260    3.0930   69.1370 C.2    81  ASP81       0.3668
     57  OD1       18.0410    2.7730   68.8960 O.co2  81  ASP81      -0.2456
     58  OD2       19.5650    4.2630   69.4080 O.co2  81  ASP81      -0.2456
     59  N         13.6420    1.7610   70.2470 N.3    84  ILE84      -0.1231
     60  CA        12.2760    2.2350   70.0210 C.3    84  ILE84       0.1692
     61  C         12.1390    3.2220   68.8510 C.2    84  ILE84       0.2593
     62  O         11.1300    3.2090   68.1340 O.2    84  ILE84      -0.2718
     63  CB        11.6740    2.8560   71.3400 C.3    84  ILE84       0.0266
     64  CG1       10.1910    3.2330   71.1630 C.3    84  ILE84       0.0019
     65  CG2       12.5100    4.0260   71.8590 C.3    84  ILE84       0.0020
     66  CD1        9.2810    2.0480   71.1510 C.3    84  ILE84       0.0001
     67  N         13.1380    4.0850   68.6750 N.am   85  GLY85      -0.1942
     68  CA        13.0400    5.1680   67.7030 C.3    85  GLY85       0.2014
     69  C         12.1770    6.3220   68.2070 C.2    85  GLY85       0.2638
     70  O         11.4800    6.2160   69.2240 O.2    85  GLY85      -0.2714
     71  N         12.2200    7.4250   67.4810 N.am   86  MET86      -0.1976
     72  CA        11.4210    8.5990   67.8190 C.3    86  MET86       0.1605
     73  C         10.5670    9.0140   66.6180 C.2    86  MET86       0.2287
     74  O         11.0690    9.0550   65.4890 O.2    86  MET86      -0.2864
     75  CB        12.3360    9.7630   68.2110 C.3    86  MET86       0.0413
     76  CG        13.0050    9.6410   69.5870 C.3    86  MET86       0.0598
     77  SD        14.2790   10.8960   69.8690 S.3    86  MET86      -0.1393
     78  CE        15.5960   10.1860   68.8670 C.3    86  MET86       0.0692
     79  N         11.4390   16.1050   72.6870 N.3    94  ASN94      -0.1225
     80  CA        12.5400   15.5580   73.4810 C.3    94  ASN94       0.1785
     81  C         13.9100   16.1750   73.2170 C.2    94  ASN94       0.2597
     82  O         14.8030   16.0480   74.0530 O.2    94  ASN94      -0.2718
     83  CB        12.6390   14.0440   73.2890 C.3    94  ASN94       0.1169
     84  CG        11.6680   13.2710   74.1650 C.2    94  ASN94       0.2627
     85  OD1       11.7190   13.3460   75.3990 O.2    94  ASN94      -0.2716
     86  ND2       10.7960   12.4970   73.5310 N.am   94  ASN94      -0.0877
     87  N         14.0720   16.8230   72.0600 N.am   95  LEU95      -0.1980
     88  CA        15.3840   17.3260   71.6240 C.3    95  LEU95       0.1596
     89  C         15.4140   18.8320   71.3520 C.2    95  LEU95       0.2287
     90  O         16.0460   19.2840   70.3940 O.2    95  LEU95      -0.2864
     91  CB        15.9010   16.5510   70.3930 C.3    95  LEU95       0.0297
     92  CG        15.9750   15.0140   70.4560 C.3    95  LEU95       0.0022
     93  CD1       16.3730   14.3900   69.1060 C.3    95  LEU95       0.0001
     94  CD2       16.9170   14.5500   71.5750 C.3    95  LEU95       0.0001
     95  N         24.4340   13.8250   82.8540 N.3   121  GLY121     -0.1225
     96  CA        23.3470   12.8400   82.8430 C.3   121  GLY121      0.1811
     97  C         22.4660   12.8410   84.0830 C.2   121  GLY121      0.2280
     98  O         21.3210   12.4070   84.0370 O.2   121  GLY121     -0.2866
     99  N         19.3330   15.3410   83.5300 N.3   124  GLY124     -0.1210
    100  CA        18.3150   15.0660   82.5050 C.3   124  GLY124      0.1956
    101  C         18.5840   15.6830   81.1410 C.2   124  GLY124      0.2612
    102  O         17.6700   15.7870   80.3120 O.2   124  GLY124     -0.2717
    103  N         19.8280   16.1000   80.9100 N.am  125  VAL125     -0.1965
    104  CA        20.2270   16.7390   79.6510 C.3   125  VAL125      0.1727
    105  C         21.4400   16.0510   78.9960 C.2   125  VAL125      0.2617
    106  O         22.1860   16.6800   78.2470 O.2   125  VAL125     -0.2715
    107  CB        20.4810   18.2720   79.8120 C.3   125  VAL125      0.0290
    108  CG1       19.1560   19.0450   79.8500 C.3   125  VAL125      0.0023
    109  CG2       21.3380   18.5810   81.0510 C.3   125  VAL125      0.0023
    110  N         21.5970   14.7580   79.2670 N.am  126  GLY126     -0.1940
    111  CA        22.7080   13.9520   78.7460 C.3   126  GLY126      0.2014
    112  C         22.9730   14.0740   77.2510 C.2   126  GLY126      0.2639
    113  O         24.1260   14.0630   76.8170 O.2   126  GLY126     -0.2714
    114  N         21.9060   14.2020   76.4610 N.am  127  PHE127     -0.1959
    115  CA        22.0210   14.2850   75.0010 C.3   127  PHE127      0.1771
    116  C         22.9500   15.4020   74.5250 C.2   127  PHE127      0.2619
    117  O         23.7310   15.2150   73.5910 O.2   127  PHE127     -0.2715
    118  CB        20.6350   14.4660   74.3670 C.3   127  PHE127      0.0574
    119  CG        20.6790   14.8130   72.9040 C.ar  127  PHE127     -0.0200
    120  CD1       20.9080   13.8260   71.9500 C.ar  127  PHE127     -0.0042
    121  CD2       20.4860   16.1220   72.4770 C.ar  127  PHE127     -0.0042
    122  CE1       20.9380   14.1390   70.5820 C.ar  127  PHE127     -0.0003
    123  CE2       20.5280   16.4480   71.1160 C.ar  127  PHE127     -0.0003
    124  CZ        20.7590   15.4470   70.1660 C.ar  127  PHE127     -0.0000
    125  N         22.8480   16.5630   75.1670 N.am  128  TYR128     -0.1974
    126  CA        23.5790   17.7590   74.7430 C.3   128  TYR128      0.1639
    127  C         25.0850   17.6780   74.9360 C.2   128  TYR128      0.2290
    128  O         25.8200   18.5260   74.4260 O.2   128  TYR128     -0.2864
    129  CB        22.9870   19.0130   75.3980 C.3   128  TYR128      0.0560
    130  CG        21.5240   19.1340   75.0690 C.ar  128  TYR128     -0.0198
    131  CD1       20.5600   18.5910   75.9180 C.ar  128  TYR128     -0.0009
    132  CD2       21.1050   19.7510   73.8860 C.ar  128  TYR128     -0.0009
    133  CE1       19.2040   18.6630   75.6060 C.ar  128  TYR128      0.0417
    134  CE2       19.7490   19.8230   73.5570 C.ar  128  TYR128      0.0417
    135  CZ        18.8080   19.2790   74.4290 C.ar  128  TYR128      0.1957
    136  OH        17.4680   19.3430   74.1420 O.3   128  TYR128     -0.2866
    137  N         17.4900    4.5120   65.8840 N.3   173  THR173     -0.1218
    138  CA        18.0520    5.8480   65.8050 C.3   173  THR173      0.1862
    139  C         19.5000    5.7810   65.3480 C.2   173  THR173      0.2287
    140  O         20.2640    4.9310   65.8030 O.2   173  THR173     -0.2866
    141  CB        17.9450    6.5530   67.1710 C.3   173  THR173      0.1770
    142  OG1       16.5620    6.6280   67.5440 O.3   173  THR173     -0.2211
    143  CG2       18.5500    7.9610   67.1320 C.3   173  THR173      0.0375
    144  N         22.5550    8.3830   65.1610 N.3   175  ILE175     -0.1245
    145  CA        23.0650    9.7060   65.5020 C.3   175  ILE175      0.1561
    146  C         24.4570    9.8950   64.9080 C.2   175  ILE175      0.2260
    147  O         25.3420    9.0420   65.0670 O.2   175  ILE175     -0.2867
    148  CB        22.9940    9.9840   67.0400 C.3   175  ILE175      0.0252
    149  CG1       23.3240   11.4460   67.3550 C.3   175  ILE175      0.0019
    150  CG2       23.8500    8.9880   67.8510 C.3   175  ILE175      0.0019
    151  CD1       22.9340   11.8610   68.7520 C.3   175  ILE175      0.0001
@<TRIPOS>BOND
     1   146   147    2
     2   146   145    1
     3   144   145    1
     4   139   140    2
     5   139   138    1
     6    74    73    2
     7   145   148    1
     8   138   137    1
     9   138   141    1
    10    54    53    2
    11    73    72    1
    12    51    52    1
    13    53    52    1
    14   148   149    1
    15   148   150    1
    16   143   141    1
    17   141   142    1
    18   149   151    1
    19    71    72    1
    20    71    69   am
    21    68    69    1
    22    68    67    1
    23    52    55    1
    24    72    75    1
    25    62    61    2
    26    69    70    2
    27    75    76    1
    28    67    61   am
    29    61    60    1
    30    78    77    1
    31    57    56   ar
    32    93    92    1
    33    56    55    1
    34    56    58   ar
    35    76    77    1
    36    60    59    1
    37    60    63    1
    38   124   122   ar
    39   124   123   ar
    40    91    92    1
    41    91    88    1
    42    90    89    2
    43    92    94    1
    44   122   120   ar
    45   123   121   ar
    46    66    64    1
    47    64    63    1
    48    63    65    1
    49    89    88    1
    50    88    87    1
    51   120   119   ar
    52    28    25    1
    53    87    81   am
    54    41    38    1
    55   121   119   ar
    56    79    80    1
    57    25    26    1
    58    25    24    1
    59   119   118    1
    60    40    39    2
    61    81    80    1
    62    81    82    2
    63    27    26    2
    64    83    80    1
    65    83    84    1
    66    39    38    1
    67    86    84   am
    68   134   132   ar
    69   134   135   ar
    70    38    37    1
    71   117   116    2
    72    24    18   am
    73   132   130   ar
    74   136   135    1
    75    84    85    2
    76    19    18    2
    77    18    17    1
    78   118   115    1
    79    20    17    1
    80    20    21    1
    81   128   127    2
    82   135   133   ar
    83   116   115    1
    84   116   125   am
    85    37    31   am
    86   126   127    1
    87   126   125    1
    88   126   129    1
    89    44    45    2
    90    44    43    1
    91    23    21   am
    92   115   114    1
    93   130   129    1
    94   130   131   ar
    95    17    16    1
    96    48    47    1
    97    48    49    1
    98    21    22    2
    99    46    47    1
   100    46    43    1
   101   133   131   ar
   102    50    49    1
   103    43    42    1
   104    31    32    2
   105    31    30    1
   106    16    12   am
   107     3     4    2
   108     3     2    1
   109   114   112   am
   110    10    11    1
   111    29    30    1
   112   113   112    2
   113    12    13    2
   114    12    11    1
   115    30    33    1
   116     2     5    1
   117     2     1    1
   118   112   111    1
   119     5     6    1
   120    11    14    1
   121    33    34    1
   122   106   105    2
   123    14    15    1
   124     6     7    1
   125   111   110    1
   126    34    36   ar
   127    34    35   ar
   128   105   110   am
   129   105   104    1
   130   104   107    1
   131   104   103    1
   132     8     7   ar
   133   107   108    1
   134   107   109    1
   135     7     9   ar
   136   102   101    2
   137   103   101   am
   138   101   100    1
   139   100    99    1
   140    96    95    1
   141    96    97    1
   142    98    97    2
