@<TRIPOS>MOLECULE
tmp/4xc1B00.pdb
 66 64 0 0 0
SMALL
GASTEIGER

@<TRIPOS>ATOM
      1  N         38.0850   10.5180   63.2150 N.3    24  ALA24      -0.1231
      2  CA        37.0100    9.5880   63.5040 C.3    24  ALA24       0.1694
      3  C         35.8640   10.2600   64.2450 C.2    24  ALA24       0.2593
      4  O         36.0630   11.1560   65.0780 O.2    24  ALA24      -0.2718
      5  CB        37.5310    8.4130   64.3220 C.3    24  ALA24       0.0304
      6  N         34.6580    9.8240   63.9190 N.am   25  SER25      -0.1938
      7  CA        33.4830   10.1950   64.7010 C.3    25  SER25       0.2055
      8  C         32.6300    8.9570   64.9560 C.2    25  SER25       0.2644
      9  O         32.5690    8.0550   64.1210 O.2    25  SER25      -0.2714
     10  CB        32.6760   11.2710   63.9820 C.3    25  SER25       0.2130
     11  OG        32.2150   10.7920   62.7340 O.3    25  SER25      -0.2179
     12  N         31.9650    8.9200   66.1070 N.am   26  GLY26      -0.1939
     13  CA        31.1800    7.7630   66.5070 C.3    26  GLY26       0.2014
     14  C         32.0180    6.7050   67.2030 C.2    26  GLY26       0.2639
     15  O         33.2460    6.6870   67.0740 O.2    26  GLY26      -0.2714
     16  N         31.3620    5.8100   67.9330 N.am   27  GLY27      -0.1939
     17  CA        32.0560    4.7550   68.6490 C.3    27  GLY27       0.2014
     18  C         33.0640    5.2880   69.6520 C.2    27  GLY27       0.2640
     19  O         32.9700    6.4350   70.0890 O.2    27  GLY27      -0.2714
     20  N         34.0330    4.4540   70.0170 N.am   28  SER28      -0.1935
     21  CA        35.0910    4.8730   70.9240 C.3    28  SER28       0.2055
     22  C         36.4110    5.0040   70.1730 C.2    28  SER28       0.2643
     23  O         36.8520    4.0650   69.5080 O.2    28  SER28      -0.2714
     24  CB        35.2460    3.8870   72.0800 C.3    28  SER28       0.2130
     25  OG        36.4080    4.1810   72.8390 O.3    28  SER28      -0.2179
     26  N         37.0380    6.1670   70.2850 N.am   29  PHE29      -0.1959
     27  CA        38.3030    6.4000   69.5990 C.3    29  PHE29       0.1771
     28  C         39.4580    5.7420   70.3250 C.2    29  PHE29       0.2620
     29  O         40.3310    5.1590   69.6850 O.2    29  PHE29      -0.2715
     30  CB        38.5850    7.9020   69.4530 C.3    29  PHE29       0.0574
     31  CG        39.9430    8.2210   68.8610 C.ar   29  PHE29      -0.0200
     32  CD1       40.1730    8.0780   67.5010 C.ar   29  PHE29      -0.0042
     33  CD2       40.9700    8.7030   69.6630 C.ar   29  PHE29      -0.0042
     34  CE1       41.4230    8.3860   66.9520 C.ar   29  PHE29      -0.0003
     35  CE2       42.2180    9.0200   69.1230 C.ar   29  PHE29      -0.0003
     36  CZ        42.4410    8.8590   67.7650 C.ar   29  PHE29      -0.0000
     37  N         39.4730    5.8280   71.6540 N.am   30  SER30      -0.1936
     38  CA        40.6590    5.4480   72.4190 C.3    30  SER30       0.2055
     39  C         40.8120    3.9460   72.6510 C.2    30  SER30       0.2643
     40  O         41.9260    3.4600   72.8350 O.2    30  SER30      -0.2714
     41  CB        40.6620    6.1620   73.7730 C.3    30  SER30       0.2130
     42  OG        40.6230    7.5670   73.6040 O.3    30  SER30      -0.2179
     43  N         39.7040    3.2050   72.6550 N.am   31  THR31      -0.1950
     44  CA        39.7900    1.7920   73.0280 C.3    31  THR31       0.1897
     45  C         39.6430    0.8110   71.8640 C.2    31  THR31       0.2313
     46  O         39.4770   -0.3930   72.0760 O.2    31  THR31      -0.2863
     47  CB        38.7440    1.4400   74.1200 C.3    31  THR31       0.1794
     48  OG1       37.4160    1.6480   73.6220 O.3    31  THR31      -0.2208
     49  CG2       38.9620    2.3070   75.3390 C.3    31  THR31       0.0378
     50  N         43.7260   12.1170   71.0480 N.3    74  ARG74      -0.1245
     51  CA        42.4100   11.8800   71.6300 C.3    74  ARG74       0.1563
     52  C         41.5470   13.1340   71.7160 C.2    74  ARG74       0.2260
     53  O         40.3250   13.0380   71.7870 O.2    74  ARG74      -0.2867
     54  CB        42.5670   11.2610   73.0170 C.3    74  ARG74       0.0307
     55  CG        43.2520    9.9040   72.9760 C.3    74  ARG74       0.0489
     56  CD        43.4760    9.3590   74.3580 C.3    74  ARG74       0.2205
     57  NE        42.2230    9.2660   75.1000 N.pl3  74  ARG74      -0.0865
     58  CZ        42.1320    8.8520   76.3600 C.cat  74  ARG74       0.5346
     59  NH1       40.9500    8.7930   76.9570 N.pl3  74  ARG74       0.1354
     60  NH2       43.2240    8.4930   77.0220 N.pl3  74  ARG74       0.1354
     61  N         40.1770   13.1370   68.1960 N.3    77  SER77      -0.1217
     62  CA        39.8880   11.8120   67.6520 C.3    77  SER77       0.1889
     63  C         40.5180   11.6350   66.2830 C.2    77  SER77       0.2288
     64  O         39.8940   11.0900   65.3720 O.2    77  SER77      -0.2866
     65  CB        38.3860   11.5720   67.5430 C.3    77  SER77       0.2089
     66  OG        37.7480   11.7160   68.8040 O.3    77  SER77      -0.2183
@<TRIPOS>BOND
     1    11    10    1
     2     1     2    1
     3     2     3    1
     4     2     5    1
     5     6     3   am
     6     6     7    1
     7    10     7    1
     8     9     8    2
     9     3     4    2
    10     7     8    1
    11     8    12   am
    12    64    63    2
    13    12    13    1
    14    63    62    1
    15    13    14    1
    16    34    32   ar
    17    34    36   ar
    18    15    14    2
    19    14    16   am
    20    32    31   ar
    21    65    62    1
    22    65    66    1
    23    62    61    1
    24    36    35   ar
    25    16    17    1
    26    17    18    1
    27    31    30    1
    28    31    33   ar
    29    35    33   ar
    30    30    27    1
    31    23    22    2
    32    27    26    1
    33    27    28    1
    34    18    20   am
    35    18    19    2
    36    29    28    2
    37    20    21    1
    38    22    26   am
    39    22    21    1
    40    28    37   am
    41    21    24    1
    42    50    51    1
    43    51    52    1
    44    51    54    1
    45    37    38    1
    46    52    53    2
    47    45    46    2
    48    45    44    1
    49    24    25    1
    50    38    39    1
    51    38    41    1
    52    39    43   am
    53    39    40    2
    54    43    44    1
    55    55    54    1
    56    55    56    1
    57    44    47    1
    58    42    41    1
    59    48    47    1
    60    47    49    1
    61    56    57    1
    62    57    58    2
    63    58    59    1
    64    58    60    1
