@<TRIPOS>MOLECULE
tmp/4xc2A01.pdb
 93 92 0 0 0
SMALL
GASTEIGER

@<TRIPOS>ATOM
      1  N         12.5970   16.6510   16.6270 N.3    37  PRO37      -0.2102
      2  CA        13.3940   17.0330   17.7930 C.3    37  PRO37       0.1504
      3  C         12.6600   16.7130   19.0820 C.2    37  PRO37       0.2576
      4  O         11.4710   17.0190   19.2000 O.2    37  PRO37      -0.2718
      5  CB        13.5520   18.5510   17.6420 C.3    37  PRO37       0.0282
      6  CG        13.3100   18.8290   16.1960 C.3    37  PRO37       0.0208
      7  CD        12.3460   17.7870   15.7210 C.3    37  PRO37       0.0893
      8  N         13.3440   16.0020   19.9780 N.am   38  LYS38      -0.1966
      9  CA        12.8720   15.7210   21.3380 C.3    38  LYS38       0.1728
     10  C         11.8090   14.6500   21.3630 C.2    38  LYS38       0.2616
     11  O         11.2320   14.3500   22.4070 O.2    38  LYS38      -0.2715
     12  CB        12.3580   16.9790   22.0370 C.3    38  LYS38       0.0311
     13  CG        13.4580   17.9400   22.4560 C.3    38  LYS38       0.0038
     14  CD        13.0060   19.3780   22.2930 C.3    38  LYS38       0.0206
     15  CE        14.1800   20.3340   22.1950 C.3    38  LYS38       0.1093
     16  NZ        13.7150   21.6860   21.7780 N.3    38  LYS38      -0.1314
     17  N         11.5890   14.0250   20.2210 N.am   39  ALA39      -0.1977
     18  CA        10.6560   12.9120   20.1450 C.3    39  ALA39       0.1597
     19  C         11.2170   11.6890   20.8850 C.2    39  ALA39       0.2287
     20  O         12.4350   11.4880   20.9510 O.2    39  ALA39      -0.2864
     21  CB        10.3860   12.5790   18.6920 C.3    39  ALA39       0.0319
     22  N          4.9530   15.7510   10.8120 N.3    79  PHE79      -0.1241
     23  CA         4.9400   17.1860   10.6140 C.3    79  PHE79       0.1605
     24  C          5.6640   17.5600    9.3370 C.2    79  PHE79       0.2264
     25  O          6.7280   17.0410    9.0460 O.2    79  PHE79      -0.2867
     26  CB         5.5450   17.9230   11.8020 C.3    79  PHE79       0.0534
     27  CG         4.9690   17.5220   13.1260 C.ar   79  PHE79      -0.0203
     28  CD1        5.3690   16.3410   13.7440 C.ar   79  PHE79      -0.0042
     29  CD2        3.9370   18.2490   13.6880 C.ar   79  PHE79      -0.0042
     30  CE1        4.8750   15.9990   14.9850 C.ar   79  PHE79      -0.0003
     31  CE2        3.3570   17.8560   14.8750 C.ar   79  PHE79      -0.0003
     32  CZ         3.8290   16.7280   15.5320 C.ar   79  PHE79      -0.0000
     33  N          5.7400   22.7810    9.5940 N.3    82  ASN82      -0.1225
     34  CA         4.9460   23.2330   10.7200 C.3    82  ASN82       0.1785
     35  C          3.4410   22.9870   10.5600 C.2    82  ASN82       0.2597
     36  O          2.6520   23.6830   11.1790 O.2    82  ASN82      -0.2718
     37  CB         5.2030   24.7240   10.9810 C.3    82  ASN82       0.1169
     38  CG         5.1150   25.0870   12.4540 C.2    82  ASN82       0.2627
     39  OD1        5.2430   24.2310   13.3400 O.2    82  ASN82      -0.2716
     40  ND2        4.9060   26.3710   12.7280 N.am   82  ASN82      -0.0877
     41  N          3.0530   21.9970    9.7650 N.am   83  VAL83      -0.1966
     42  CA         1.6680   21.4890    9.7990 C.3    83  VAL83       0.1727
     43  C          1.6220   19.9770    9.8130 C.2    83  VAL83       0.2616
     44  O          2.5750   19.3010    9.4190 O.2    83  VAL83      -0.2715
     45  CB         0.7930   21.9840    8.6200 C.3    83  VAL83       0.0290
     46  CG1        0.5130   23.4790    8.7470 C.3    83  VAL83       0.0023
     47  CG2        1.4350   21.6690    7.2750 C.3    83  VAL83       0.0023
     48  N          0.5330   19.4470   10.3430 N.am   84  ILE84      -0.1977
     49  CA         0.2250   18.0330   10.1930 C.3    84  ILE84       0.1596
     50  C         -0.4610   17.7980    8.8490 C.2    84  ILE84       0.2287
     51  O         -1.4760   18.4000    8.5780 O.2    84  ILE84      -0.2864
     52  CB        -0.6660   17.5450   11.3560 C.3    84  ILE84       0.0276
     53  CG1        0.1120   17.7130   12.6680 C.3    84  ILE84       0.0022
     54  CG2       -1.0920   16.0950   11.1630 C.3    84  ILE84       0.0022
     55  CD1       -0.5510   17.1240   13.8990 C.3    84  ILE84       0.0001
     56  N          4.1250   12.4950   19.8350 N.3   112  GLU112     -0.1231
     57  CA         3.2600   13.4410   20.5380 C.3   112  GLU112      0.1699
     58  C          2.8690   14.5450   19.5880 C.2   112  GLU112      0.2593
     59  O          3.6160   14.8510   18.6780 O.2   112  GLU112     -0.2718
     60  CB         3.9480   14.0140   21.7830 C.3   112  GLU112      0.0402
     61  CG         5.3520   14.5550   21.5000 C.3   112  GLU112      0.1161
     62  CD         5.9690   15.3610   22.6560 C.2   112  GLU112      0.3649
     63  OE1        5.3980   15.3990   23.7690 O.co2 112  GLU112     -0.2457
     64  OE2        7.0990   15.8800   22.4720 O.co2 112  GLU112     -0.2457
     65  N          1.6520   15.0910   19.7470 N.am  113  SER113     -0.1938
     66  CA         1.2550   16.2810   18.9830 C.3   113  SER113      0.2055
     67  C          1.7990   17.5870   19.6200 C.2   113  SER113      0.2643
     68  O          1.0520   18.4710   20.0630 O.2   113  SER113     -0.2714
     69  CB        -0.2700   16.3050   18.8350 C.3   113  SER113      0.2130
     70  OG        -0.8690   16.1510   20.0990 O.3   113  SER113     -0.2179
     71  N          3.1280   17.6560   19.6990 N.am  114  VAL114     -0.1963
     72  CA         3.8500   18.7960   20.2500 C.3   114  VAL114      0.1727
     73  C          5.0670   18.9680   19.3660 C.2   114  VAL114      0.2616
     74  O          5.7210   17.9920   19.0000 O.2   114  VAL114     -0.2715
     75  CB         4.3470   18.5240   21.6750 C.3   114  VAL114      0.0290
     76  CG1        4.9700   19.7640   22.2840 C.3   114  VAL114      0.0023
     77  CG2        3.2330   17.9920   22.5360 C.3   114  VAL114      0.0023
     78  N          5.3490   20.1940   18.9700 N.am  115  TYR115     -0.1960
     79  CA         6.3050   20.4070   17.9290 C.3   115  TYR115      0.1771
     80  C          6.9040   21.7770   18.0310 C.2   115  TYR115      0.2620
     81  O          6.1840   22.7540   18.2240 O.2   115  TYR115     -0.2715
     82  CB         5.6440   20.2080   16.5640 C.3   115  TYR115      0.0574
     83  CG         6.6350   20.1640   15.4290 C.ar  115  TYR115     -0.0198
     84  CD1        7.5380   19.1160   15.3280 C.ar  115  TYR115     -0.0009
     85  CD2        6.7230   21.2050   14.4980 C.ar  115  TYR115     -0.0009
     86  CE1        8.4710   19.0760   14.3220 C.ar  115  TYR115      0.0417
     87  CE2        7.6710   21.1730   13.4830 C.ar  115  TYR115      0.0417
     88  CZ         8.5130   20.0750   13.3800 C.ar  115  TYR115      0.1957
     89  OH         9.4550   19.9820   12.3800 O.3   115  TYR115     -0.2866
     90  N          8.2270   21.8470   17.8990 N.am  116  GLY116     -0.1954
     91  CA         8.9600   23.1010   18.0170 C.3   116  GLY116      0.1869
     92  C         10.3480   22.9230   18.6230 C.2   116  GLY116      0.2309
     93  O         10.6640   21.8640   19.1830 O.2   116  GLY116     -0.2863
@<TRIPOS>BOND
     1    47    45    1
     2    51    50    2
     3    45    46    1
     4    45    42    1
     5    50    49    1
     6    25    24    2
     7    24    23    1
     8    44    43    2
     9    33    34    1
    10    41    42    1
    11    41    35   am
    12    42    43    1
    13    43    48   am
    14    49    48    1
    15    49    52    1
    16    35    34    1
    17    35    36    2
    18    23    22    1
    19    23    26    1
    20    34    37    1
    21    37    38    1
    22    54    52    1
    23    52    53    1
    24    26    27    1
    25    89    88    1
    26    38    40   am
    27    38    39    2
    28    53    55    1
    29    27    29   ar
    30    27    28   ar
    31    88    87   ar
    32    88    86   ar
    33    87    85   ar
    34    29    31   ar
    35    28    30   ar
    36    86    84   ar
    37    85    83   ar
    38    31    32   ar
    39    30    32   ar
    40    84    83   ar
    41    83    82    1
    42     7     6    1
    43     7     1    1
    44     6     5    1
    45    82    79    1
    46     1     2    1
    47     5     2    1
    48     2     3    1
    49    90    91    1
    50    90    80   am
    51    79    80    1
    52    79    78    1
    53    91    92    1
    54    80    81    2
    55    92    93    2
    56    59    58    2
    57    21    18    1
    58    69    66    1
    59    69    70    1
    60    78    73   am
    61    66    67    1
    62    66    65    1
    63    74    73    2
    64     3     4    2
    65     3     8   am
    66    73    72    1
    67    58    65   am
    68    58    57    1
    69    67    71   am
    70    67    68    2
    71    71    72    1
    72    56    57    1
    73     8     9    1
    74    18    17    1
    75    18    19    1
    76    17    10   am
    77    72    75    1
    78    57    60    1
    79    19    20    2
    80     9    10    1
    81     9    12    1
    82    10    11    2
    83    61    60    1
    84    61    62    1
    85    75    76    1
    86    75    77    1
    87    16    15    1
    88    12    13    1
    89    15    14    1
    90    14    13    1
    91    64    62   ar
    92    62    63   ar
