@<TRIPOS>MOLECULE
tmp/4xc2C00.pdb
 61 60 0 0 0
SMALL
GASTEIGER

@<TRIPOS>ATOM
      1  N         -7.8570  -16.7910   -6.9580 N.3    48  TYR48      -0.1227
      2  CA        -6.4950  -16.3450   -6.6540 C.3    48  TYR48       0.1736
      3  C         -6.0620  -16.9410   -5.3320 C.2    48  TYR48       0.2595
      4  O         -6.7700  -16.8350   -4.3190 O.2    48  TYR48      -0.2718
      5  CB        -6.4380  -14.8190   -6.6070 C.3    48  TYR48       0.0548
      6  CG        -6.7770  -14.1710   -7.9160 C.ar   48  TYR48      -0.0200
      7  CD1       -8.0980  -13.9530   -8.2770 C.ar   48  TYR48      -0.0009
      8  CD2       -5.7900  -13.8280   -8.8320 C.ar   48  TYR48      -0.0009
      9  CE1       -8.4200  -13.4280   -9.5040 C.ar   48  TYR48       0.0417
     10  CE2       -6.1050  -13.2830  -10.0670 C.ar   48  TYR48       0.0417
     11  CZ        -7.4430  -13.1010  -10.4040 C.ar   48  TYR48       0.1957
     12  OH        -7.8010  -12.6210  -11.6510 O.3    48  TYR48      -0.2866
     13  N         -4.8910  -17.5980   -5.3550 N.am   49  LEU49      -0.1966
     14  CA        -4.2340  -18.1060   -4.1770 C.3    49  LEU49       0.1728
     15  C         -3.0530  -17.1960   -3.8190 C.2    49  LEU49       0.2616
     16  O         -2.0170  -17.2600   -4.4500 O.2    49  LEU49      -0.2715
     17  CB        -3.7100  -19.5220   -4.4370 C.3    49  LEU49       0.0311
     18  CG        -3.3750  -20.3340   -3.1940 C.3    49  LEU49       0.0022
     19  CD1       -4.6390  -20.6960   -2.4410 C.3    49  LEU49       0.0001
     20  CD2       -2.5730  -21.5670   -3.5700 C.3    49  LEU49       0.0001
     21  N         -3.1930  -16.4740   -2.7140 N.am   50  VAL50      -0.1964
     22  CA        -2.5150  -15.2290   -2.4640 C.3    50  VAL50       0.1712
     23  C         -1.6490  -15.4080   -1.2180 C.2    50  VAL50       0.2458
     24  O         -2.1350  -15.8650   -0.1940 O.2    50  VAL50      -0.2730
     25  CB        -3.5570  -14.1170   -2.1900 C.3    50  VAL50       0.0289
     26  CG1       -2.8900  -12.7720   -2.0160 C.3    50  VAL50       0.0023
     27  CG2       -4.5640  -14.0370   -3.3210 C.3    50  VAL50       0.0023
     28  N         -0.3500  -15.0510   -1.2910 N.am   51  PRO51      -0.2727
     29  CA         0.4160  -15.0330   -0.0490 C.3    51  PRO51       0.1402
     30  C         -0.2290  -14.1480    1.0290 C.2    51  PRO51       0.2269
     31  O         -0.6100  -13.0120    0.7560 O.2    51  PRO51      -0.2865
     32  CB         1.7810  -14.4820   -0.4890 C.3    51  PRO51       0.0296
     33  CG         1.8660  -14.8300   -1.9370 C.3    51  PRO51       0.0237
     34  CD         0.4640  -14.6070   -2.4350 C.3    51  PRO51       0.0939
     35  N          1.2010  -10.6710    1.6520 N.3    54  LEU54      -0.1245
     36  CA         0.9830   -9.7110    0.5930 C.3    54  LEU54       0.1561
     37  C         -0.0830   -8.7480    1.0490 C.2    54  LEU54       0.2260
     38  O         -1.0670   -9.1590    1.6480 O.2    54  LEU54      -0.2867
     39  CB         0.5270  -10.4010   -0.6960 C.3    54  LEU54       0.0270
     40  CG         0.5300   -9.4870   -1.9310 C.3    54  LEU54       0.0019
     41  CD1        1.9270   -9.4300   -2.5360 C.3    54  LEU54       0.0001
     42  CD2       -0.4890   -9.9150   -2.9810 C.3    54  LEU54       0.0001
     43  N         -2.3830   -6.3360   -3.7880 N.3    59  PHE59      -0.1241
     44  CA        -3.3400   -7.1460   -4.5090 C.3    59  PHE59       0.1605
     45  C         -4.2170   -6.3160   -5.4510 C.2    59  PHE59       0.2264
     46  O         -4.5420   -6.7710   -6.5610 O.2    59  PHE59      -0.2867
     47  CB        -4.1900   -7.9300   -3.5250 C.3    59  PHE59       0.0534
     48  CG        -5.0490   -8.9480   -4.1720 C.ar   59  PHE59      -0.0203
     49  CD1       -4.4870  -10.0420   -4.8150 C.ar   59  PHE59      -0.0042
     50  CD2       -6.4290   -8.8090   -4.1590 C.ar   59  PHE59      -0.0042
     51  CE1       -5.2850  -10.9610   -5.4760 C.ar   59  PHE59      -0.0003
     52  CE2       -7.2320   -9.7600   -4.7680 C.ar   59  PHE59      -0.0003
     53  CZ        -6.6610  -10.8270   -5.4370 C.ar   59  PHE59      -0.0000
     54  N         -2.0510   -5.6060   -8.5050 N.3    62  LEU62      -0.1245
     55  CA        -2.0670   -6.8530   -9.2340 C.3    62  LEU62       0.1561
     56  C         -3.3600   -7.0730  -10.0190 C.2    62  LEU62       0.2260
     57  O         -3.3100   -7.5410  -11.1530 O.2    62  LEU62      -0.2867
     58  CB        -1.8430   -8.0000   -8.2620 C.3    62  LEU62       0.0270
     59  CG        -1.7070   -9.3970   -8.8320 C.3    62  LEU62       0.0019
     60  CD1       -0.9920  -10.2420   -7.7950 C.3    62  LEU62       0.0001
     61  CD2       -3.0840   -9.9830   -9.1470 C.3    62  LEU62       0.0001
@<TRIPOS>BOND
     1    12    11    1
     2    57    56    2
     3    11    10   ar
     4    11     9   ar
     5    10     8   ar
     6    56    55    1
     7     9     7   ar
     8    55    54    1
     9    55    58    1
    10    61    59    1
    11    59    58    1
    12    59    60    1
    13     8     6   ar
    14     7     6   ar
    15     6     5    1
    16     1     2    1
    17     2     5    1
    18     2     3    1
    19    46    45    2
    20    51    53   ar
    21    51    49   ar
    22    45    44    1
    23    53    52   ar
    24    13     3   am
    25    13    14    1
    26     3     4    2
    27    49    48   ar
    28    52    50   ar
    29    44    43    1
    30    44    47    1
    31    16    15    2
    32    17    14    1
    33    17    18    1
    34    14    15    1
    35    48    50   ar
    36    48    47    1
    37    15    21   am
    38    20    18    1
    39    27    25    1
    40    18    19    1
    41    42    40    1
    42    21    22    1
    43    41    40    1
    44    22    25    1
    45    22    23    1
    46    34    33    1
    47    34    28    1
    48    25    26    1
    49    33    32    1
    50    40    39    1
    51    28    23   am
    52    28    29    1
    53    23    24    2
    54    39    36    1
    55    32    29    1
    56    29    30    1
    57    36    37    1
    58    36    35    1
    59    31    30    2
    60    37    38    2
