@<TRIPOS>MOLECULE
tmp/4xc9F00.pdb
 81 78 0 0 0
SMALL
GASTEIGER

@<TRIPOS>ATOM
      1  N        -10.9200    8.0770  -14.4830 N.3    98  LEU98      -0.1245
      2  CA       -11.2980    9.4610  -14.7940 C.3    98  LEU98       0.1561
      3  C        -10.3840    9.9830  -15.8900 C.2    98  LEU98       0.2260
      4  O         -9.1680    9.8980  -15.7720 O.2    98  LEU98      -0.2867
      5  CB       -11.2110   10.3630  -13.5510 C.3    98  LEU98       0.0270
      6  CG       -11.1450   11.8990  -13.7180 C.3    98  LEU98       0.0019
      7  CD1      -12.4120   12.4770  -14.3180 C.3    98  LEU98       0.0001
      8  CD2      -10.8360   12.6020  -12.4060 C.3    98  LEU98       0.0001
      9  N        -20.4060   19.6090   -6.5870 N.3   220  GLU220     -0.1231
     10  CA       -20.0890   18.9620   -7.8530 C.3   220  GLU220      0.1699
     11  C        -19.1970   19.9030   -8.6640 C.2   220  GLU220      0.2592
     12  O        -19.3900   21.1130   -8.6530 O.2   220  GLU220     -0.2718
     13  CB       -21.3620   18.5970   -8.6200 C.3   220  GLU220      0.0402
     14  CG       -21.2100   17.4070   -9.5430 C.3   220  GLU220      0.1161
     15  CD       -22.5460   16.8270   -9.9860 C.2   220  GLU220      0.3649
     16  OE1      -23.5110   17.6040  -10.1500 O.co2 220  GLU220     -0.2457
     17  OE2      -22.6300   15.5900  -10.1680 O.co2 220  GLU220     -0.2457
     18  N        -18.1950   19.3450   -9.3290 N.am  221  LEU221     -0.1966
     19  CA       -17.3350   20.1200  -10.2120 C.3   221  LEU221      0.1728
     20  C        -17.1080   19.3300  -11.4960 C.2   221  LEU221      0.2616
     21  O        -16.7990   18.1370  -11.4550 O.2   221  LEU221     -0.2715
     22  CB       -16.0100   20.4530   -9.5320 C.3   221  LEU221      0.0311
     23  CG       -15.1170   21.4030  -10.3370 C.3   221  LEU221      0.0022
     24  CD1      -15.7160   22.7950  -10.3450 C.3   221  LEU221      0.0001
     25  CD2      -13.6620   21.4250   -9.8380 C.3   221  LEU221      0.0001
     26  N        -17.2850   19.9810  -12.6380 N.am  222  ASP222     -0.1971
     27  CA       -17.1310   19.2950  -13.9180 C.3   222  ASP222      0.1709
     28  C        -15.6760   19.0010  -14.2430 C.2   222  ASP222      0.2293
     29  O        -15.3640   17.9320  -14.7530 O.2   222  ASP222     -0.2864
     30  CB       -17.7520   20.1210  -15.0390 C.3   222  ASP222      0.1436
     31  CG       -19.1920   20.4540  -14.7650 C.2   222  ASP222      0.3671
     32  OD1      -20.0200   19.5130  -14.7290 O.co2 222  ASP222     -0.2456
     33  OD2      -19.4930   21.6530  -14.5590 O.co2 222  ASP222     -0.2456
     34  N        -14.5590   16.4320   -8.4090 N.3   234  VAL234     -0.1231
     35  CA       -14.7710   15.8550   -9.7250 C.3   234  VAL234      0.1692
     36  C        -14.9230   14.3380   -9.5970 C.2   234  VAL234      0.2592
     37  O        -13.9900   13.6500   -9.1780 O.2   234  VAL234     -0.2718
     38  CB       -13.6160   16.1800  -10.6900 C.3   234  VAL234      0.0266
     39  CG1      -13.8890   15.5740  -12.0510 C.3   234  VAL234      0.0020
     40  CG2      -13.3980   17.7030  -10.8000 C.3   234  VAL234      0.0020
     41  N        -16.0890   13.8100   -9.9670 N.am  235  ASP235     -0.1960
     42  CA       -16.3280   12.3690   -9.8420 C.3   235  ASP235      0.1840
     43  C        -15.5530   11.5560  -10.8900 C.2   235  ASP235      0.2622
     44  O        -15.0290   12.0950  -11.8610 O.2   235  ASP235     -0.2715
     45  CB       -17.8270   12.0640   -9.9370 C.3   235  ASP235      0.1450
     46  CG       -18.3940   12.3360  -11.3150 C.2   235  ASP235      0.3671
     47  OD1      -17.6630   12.8570  -12.1650 O.co2 235  ASP235     -0.2456
     48  OD2      -19.5770   12.0450  -11.5530 O.co2 235  ASP235     -0.2456
     49  N        -15.4570   10.2550  -10.6760 N.am  236  HIS236     -0.1959
     50  CA       -14.8630    9.3770  -11.6720 C.3   236  HIS236      0.1787
     51  C        -16.0300    8.7190  -12.4060 C.2   236  HIS236      0.2620
     52  O        -17.1610    9.1780  -12.2500 O.2   236  HIS236     -0.2715
     53  CB       -13.9130    8.3790  -11.0160 C.3   236  HIS236      0.0785
     54  CG       -12.6400    9.0050  -10.5250 C.ar  236  HIS236      0.0821
     55  ND1      -11.4220    8.3530  -10.5560 N.ar  236  HIS236     -0.2267
     56  CD2      -12.3970   10.2290  -10.0000 C.ar  236  HIS236      0.1154
     57  CE1      -10.4900    9.1470  -10.0620 C.ar  236  HIS236      0.1986
     58  NE2      -11.0520   10.2920   -9.7210 N.ar  236  HIS236     -0.2212
     59  N        -15.7730    7.7130  -13.2360 N.am  237  ASP237     -0.1957
     60  CA       -16.8570    6.9590  -13.8740 C.3   237  ASP237      0.1840
     61  C        -17.9460    6.5910  -12.8780 C.2   237  ASP237      0.2621
     62  O        -17.6630    6.0050  -11.8310 O.2   237  ASP237     -0.2715
     63  CB       -16.3390    5.6790  -14.5300 C.3   237  ASP237      0.1450
     64  CG       -15.5560    5.9480  -15.7870 C.2   237  ASP237      0.3671
     65  OD1      -15.6380    7.0850  -16.3060 O.co2 237  ASP237     -0.2456
     66  OD2      -14.8570    5.0280  -16.2590 O.co2 237  ASP237     -0.2456
     67  N        -19.1770    6.9930  -13.1890 N.am  238  VAL238     -0.1977
     68  CA       -20.3720    6.5060  -12.5050 C.3   238  VAL238      0.1596
     69  C        -21.4120    6.1110  -13.5610 C.2   238  VAL238      0.2287
     70  O        -21.3290    6.5380  -14.7180 O.2   238  VAL238     -0.2864
     71  CB       -20.9760    7.5430  -11.5500 C.3   238  VAL238      0.0276
     72  CG1      -19.9500    7.9640  -10.5090 C.3   238  VAL238      0.0022
     73  CG2      -21.5020    8.7400  -12.3360 C.3   238  VAL238      0.0022
     74  N        -23.3580    8.3080  -16.1240 N.3   241  ASP241     -0.1239
     75  CA       -22.6860    8.8030  -17.3220 C.3   241  ASP241      0.1674
     76  C        -23.0860    8.0430  -18.5830 C.2   241  ASP241      0.2266
     77  O        -22.8510    8.5270  -19.6880 O.2   241  ASP241     -0.2867
     78  CB       -21.1720    8.7310  -17.1610 C.3   241  ASP241      0.1410
     79  CG       -20.6780    9.4960  -15.9550 C.2   241  ASP241      0.3668
     80  OD1      -21.3950   10.4190  -15.5150 O.co2 241  ASP241     -0.2456
     81  OD2      -19.5830    9.1700  -15.4420 O.co2 241  ASP241     -0.2456
@<TRIPOS>BOND
     1    77    76    2
     2    76    75    1
     3    75    78    1
     4    75    74    1
     5    78    79    1
     6    65    64   ar
     7    66    64   ar
     8    79    80   ar
     9    79    81   ar
    10     3     4    2
    11     3     2    1
    12    64    63    1
    13    30    31    1
    14    30    27    1
    15     2     1    1
    16     2     5    1
    17    31    32   ar
    18    31    33   ar
    19    29    28    2
    20    70    69    2
    21    63    60    1
    22     7     6    1
    23    28    27    1
    24    27    26    1
    25    60    59    1
    26    60    61    1
    27     6     5    1
    28     6     8    1
    29    69    68    1
    30    59    51   am
    31    67    61   am
    32    67    68    1
    33    61    62    2
    34    26    20   am
    35    68    71    1
    36    51    52    2
    37    51    50    1
    38    73    71    1
    39    47    46   ar
    40    39    38    1
    41    44    43    2
    42    50    53    1
    43    50    49    1
    44    48    46   ar
    45    71    72    1
    46    20    21    2
    47    20    19    1
    48    46    45    1
    49    53    54    1
    50    43    49   am
    51    43    42    1
    52    40    38    1
    53    38    35    1
    54    55    54   ar
    55    55    57   ar
    56    54    56   ar
    57    24    23    1
    58    23    25    1
    59    23    22    1
    60    19    22    1
    61    19    18    1
    62    17    15   ar
    63    16    15   ar
    64    57    58   ar
    65    56    58   ar
    66    15    14    1
    67    41    42    1
    68    41    36   am
    69    45    42    1
    70    35    36    1
    71    35    34    1
    72    36    37    2
    73    14    13    1
    74    18    11   am
    75    11    12    2
    76    11    10    1
    77    13    10    1
    78    10     9    1
