@<TRIPOS>MOLECULE
tmp/4xcbA01.pdb
 202 196 0 0 0
SMALL
GASTEIGER

@<TRIPOS>ATOM
      1  N         24.6980  269.3990  212.6950 N.3    49  PHE49      -0.1241
      2  CA        24.7010  269.2450  211.2480 C.3    49  PHE49       0.1605
      3  C         24.5560  270.6360  210.6570 C.2    49  PHE49       0.2264
      4  O         23.7110  271.4120  211.1030 O.2    49  PHE49      -0.2867
      5  CB        23.5720  268.3310  210.7690 C.3    49  PHE49       0.0534
      6  CG        23.4910  266.9680  211.5180 C.ar   49  PHE49      -0.0203
      7  CD1       22.7960  266.9040  212.7180 C.ar   49  PHE49      -0.0042
      8  CD2       24.1150  265.8430  211.0180 C.ar   49  PHE49      -0.0042
      9  CE1       22.6950  265.7180  213.4320 C.ar   49  PHE49      -0.0003
     10  CE2       24.0200  264.6310  211.7400 C.ar   49  PHE49      -0.0003
     11  CZ        23.2920  264.5810  212.9530 C.ar   49  PHE49      -0.0000
     12  N         17.3190  271.9910  215.1680 N.3    54  ARG54      -0.1245
     13  CA        16.4680  270.9390  215.7200 C.3    54  ARG54       0.1563
     14  C         15.5890  271.4620  216.8630 C.2    54  ARG54       0.2260
     15  O         16.0630  272.1670  217.7540 O.2    54  ARG54      -0.2867
     16  CB        17.3240  269.7650  216.2030 C.3    54  ARG54       0.0307
     17  CG        16.5420  268.5300  216.6410 C.3    54  ARG54       0.0489
     18  CD        17.4930  267.3670  216.8710 C.3    54  ARG54       0.2205
     19  NE        16.8720  266.2810  217.6220 N.pl3  54  ARG54      -0.0865
     20  CZ        16.8160  265.0250  217.1990 C.cat  54  ARG54       0.5346
     21  NH1       17.3540  264.6940  216.0380 N.pl3  54  ARG54       0.1354
     22  NH2       16.2360  264.0980  217.9460 N.pl3  54  ARG54       0.1354
     23  N          9.9470  259.6060  221.2800 N.3    90  GLU90      -0.1245
     24  CA        10.5390  260.9130  220.9870 C.3    90  GLU90       0.1567
     25  C          9.6340  261.7420  220.0940 C.2    90  GLU90       0.2260
     26  O          8.7670  261.2110  219.4110 O.2    90  GLU90      -0.2867
     27  CB        11.9070  260.7660  220.3230 C.3    90  GLU90       0.0388
     28  CG        11.8750  259.9030  219.0850 C.3    90  GLU90       0.1160
     29  CD        13.2230  259.8330  218.3870 C.2    90  GLU90       0.3649
     30  OE1       13.4060  258.9110  217.5690 O.co2  90  GLU90      -0.2457
     31  OE2       14.0900  260.6950  218.6440 O.co2  90  GLU90      -0.2457
     32  N         10.4290  265.3540  217.7390 N.3    92  TYR92      -0.1241
     33  CA        11.3120  266.4760  217.4500 C.3    92  TYR92       0.1605
     34  C         10.9840  267.1340  216.1170 C.2    92  TYR92       0.2264
     35  O         10.1970  266.6140  215.3270 O.2    92  TYR92      -0.2867
     36  CB        12.7780  266.0260  217.4660 C.3    92  TYR92       0.0534
     37  CG        13.1270  264.9780  216.4340 C.ar   92  TYR92      -0.0201
     38  CD1       13.0030  263.6260  216.7240 C.ar   92  TYR92      -0.0009
     39  CD2       13.6070  265.3470  215.1880 C.ar   92  TYR92      -0.0009
     40  CE1       13.3250  262.6650  215.7930 C.ar   92  TYR92       0.0417
     41  CE2       13.9280  264.3950  214.2490 C.ar   92  TYR92       0.0417
     42  CZ        13.7860  263.0570  214.5620 C.ar   92  TYR92       0.1957
     43  OH        14.1170  262.1140  213.6200 O.3    92  TYR92      -0.2866
     44  N         21.5040  264.9790  205.0920 N.3   102  LEU102     -0.1231
     45  CA        21.4260  263.9720  206.1540 C.3   102  LEU102      0.1693
     46  C         21.9270  262.6480  205.6090 C.2   102  LEU102      0.2592
     47  O         21.2750  262.0150  204.7740 O.2   102  LEU102     -0.2718
     48  CB        19.9990  263.8420  206.6890 C.3   102  LEU102      0.0284
     49  CG        19.8180  263.0280  207.9660 C.3   102  LEU102      0.0019
     50  CD1       20.6430  263.6270  209.0810 C.3   102  LEU102      0.0001
     51  CD2       18.3570  263.0200  208.3560 C.3   102  LEU102      0.0001
     52  N         23.1000  262.2400  206.0800 N.am  103  TYR103     -0.1962
     53  CA        23.7450  261.0440  205.5540 C.3   103  TYR103      0.1771
     54  C         22.9910  259.7930  205.9880 C.2   103  TYR103      0.2619
     55  O         22.2280  259.8340  206.9550 O.2   103  TYR103     -0.2715
     56  CB        25.2000  260.9780  206.0180 C.3   103  TYR103      0.0574
     57  CG        26.0550  262.1220  205.5200 C.ar  103  TYR103     -0.0198
     58  CD1       25.9040  262.6090  204.2330 C.ar  103  TYR103     -0.0009
     59  CD2       27.0010  262.7220  206.3410 C.ar  103  TYR103     -0.0009
     60  CE1       26.6820  263.6480  203.7690 C.ar  103  TYR103      0.0417
     61  CE2       27.7820  263.7640  205.8830 C.ar  103  TYR103      0.0417
     62  CZ        27.6130  264.2200  204.5960 C.ar  103  TYR103      0.1957
     63  OH        28.3790  265.2600  204.1250 O.3   103  TYR103     -0.2866
     64  N         23.2080  258.6910  205.2710 N.am  104  LEU104     -0.1963
     65  CA        22.4850  257.4520  205.5270 C.3   104  LEU104      0.1728
     66  C         22.6640  256.9390  206.9500 C.2   104  LEU104      0.2616
     67  O         23.7400  257.0430  207.5550 O.2   104  LEU104     -0.2715
     68  CB        22.9170  256.3570  204.5470 C.3   104  LEU104      0.0311
     69  CG        22.5520  256.6530  203.0990 C.3   104  LEU104      0.0022
     70  CD1       22.8770  255.4320  202.2090 C.3   104  LEU104      0.0001
     71  CD2       21.0840  257.0750  202.9800 C.3   104  LEU104      0.0001
     72  N         21.5810  256.3800  207.4720 N.am  105  HIS105     -0.1973
     73  CA        21.5920  255.7530  208.7960 C.3   105  HIS105      0.1656
     74  C         20.5480  254.6640  208.8070 C.2   105  HIS105      0.2291
     75  O         19.7000  254.6110  207.9260 O.2   105  HIS105     -0.2864
     76  CB        21.3290  256.7740  209.9140 C.3   105  HIS105      0.0771
     77  CG        20.1650  257.6860  209.6540 C.ar  105  HIS105      0.0820
     78  ND1       20.2560  258.8100  208.8550 N.ar  105  HIS105     -0.2267
     79  CD2       18.8870  257.6520  210.1030 C.ar  105  HIS105      0.1154
     80  CE1       19.0850  259.4230  208.8250 C.ar  105  HIS105      0.1986
     81  NE2       18.2360  258.7380  209.5670 N.ar  105  HIS105     -0.2212
     82  N         16.8660  247.0560  218.7290 N.3   124  SER124     -0.1202
     83  CA        15.8960  248.1560  218.7970 C.3   124  SER124      0.2020
     84  C         15.1200  248.3110  217.4980 C.2   124  SER124      0.2618
     85  O         14.0530  248.9390  217.4650 O.2   124  SER124     -0.2717
     86  CB        16.5840  249.4950  219.1360 C.3   124  SER124      0.2103
     87  OG        17.5150  249.8790  218.1330 O.3   124  SER124     -0.2182
     88  N         15.6630  247.7660  216.4140 N.am  125  ILE125     -0.1979
     89  CA        15.0270  247.8860  215.1210 C.3   125  ILE125      0.1595
     90  C         14.8020  246.5440  214.4400 C.2   125  ILE125      0.2287
     91  O         14.4390  246.5010  213.2760 O.2   125  ILE125     -0.2864
     92  CB        15.8570  248.7670  214.1420 C.3   125  ILE125      0.0276
     93  CG1       17.3280  248.3370  214.1600 C.3   125  ILE125      0.0022
     94  CG2       15.6960  250.2430  214.4950 C.3   125  ILE125      0.0022
     95  CD1       18.1940  248.9920  213.0800 C.3   125  ILE125      0.0001
     96  N         10.4730  249.8640  216.3420 N.3   138  TYR138     -0.1241
     97  CA        10.7850  251.2830  216.3690 C.3   138  TYR138      0.1605
     98  C         10.3440  251.8740  215.0560 C.2   138  TYR138      0.2264
     99  O         10.9500  251.5880  214.0250 O.2   138  TYR138     -0.2867
    100  CB        12.2840  251.5240  216.5950 C.3   138  TYR138      0.0534
    101  CG        12.6240  252.8690  217.1980 C.ar  138  TYR138     -0.0201
    102  CD1       13.3530  252.9510  218.3730 C.ar  138  TYR138     -0.0009
    103  CD2       12.2010  254.0470  216.6100 C.ar  138  TYR138     -0.0009
    104  CE1       13.6630  254.1710  218.9400 C.ar  138  TYR138      0.0417
    105  CE2       12.5110  255.2750  217.1610 C.ar  138  TYR138      0.0417
    106  CZ        13.2410  255.3330  218.3250 C.ar  138  TYR138      0.1957
    107  OH        13.5570  256.5510  218.9040 O.3   138  TYR138     -0.2866
    108  N          8.7150  255.5760  213.0470 N.3   140  LYS140     -0.1245
    109  CA         8.5500  257.0090  213.0880 C.3   140  LYS140      0.1561
    110  C          7.4310  257.4470  212.1890 C.2   140  LYS140      0.2260
    111  O          7.2500  256.9050  211.0980 O.2   140  LYS140     -0.2867
    112  CB         9.8280  257.7220  212.6680 C.3   140  LYS140      0.0271
    113  CG        10.8740  257.7960  213.7210 C.3   140  LYS140      0.0035
    114  CD        11.9640  258.7450  213.2780 C.3   140  LYS140      0.0206
    115  CE        13.1230  258.6940  214.2390 C.3   140  LYS140      0.1093
    116  NZ        14.3410  259.3110  213.6280 N.3   140  LYS140     -0.1314
    117  N         12.3620  251.9850  211.2630 N.3   205  GLU205     -0.1245
    118  CA        13.7000  252.5380  211.4660 C.3   205  GLU205      0.1567
    119  C         14.7980  251.5420  211.0910 C.2   205  GLU205      0.2260
    120  O         15.9760  251.8930  211.0530 O.2   205  GLU205     -0.2867
    121  CB        13.8630  253.0290  212.9080 C.3   205  GLU205      0.0388
    122  CG        13.2400  254.4230  213.1110 C.3   205  GLU205      0.1160
    123  CD        13.9720  255.5060  212.3310 C.2   205  GLU205      0.3649
    124  OE1       15.1980  255.6550  212.5080 O.co2 205  GLU205     -0.2457
    125  OE2       13.3190  256.2100  211.5330 O.co2 205  GLU205     -0.2457
    126  N         13.9030  257.8530  223.6820 N.3   235  TRP235     -0.1241
    127  CA        15.1640  257.9050  222.9450 C.3   235  TRP235      0.1605
    128  C         16.2070  258.7960  223.5990 C.2   235  TRP235      0.2264
    129  O         15.9340  259.9270  224.0140 O.2   235  TRP235     -0.2867
    130  CB        14.9830  258.3700  221.4980 C.3   235  TRP235      0.0550
    131  CG        16.2860  258.2760  220.7910 C.ar  235  TRP235      0.0003
    132  CD1       16.8470  257.1520  220.2560 C.ar  235  TRP235      0.0946
    133  CD2       17.2420  259.3300  220.5980 C.ar  235  TRP235      0.0152
    134  NE1       18.0810  257.4450  219.7240 N.ar  235  TRP235     -0.2442
    135  CE2       18.3460  258.7720  219.9210 C.ar  235  TRP235      0.0810
    136  CE3       17.2670  260.6890  220.9250 C.ar  235  TRP235      0.0012
    137  CZ2       19.4580  259.5260  219.5650 C.ar  235  TRP235      0.0191
    138  CZ3       18.3760  261.4380  220.5600 C.ar  235  TRP235      0.0001
    139  CH2       19.4520  260.8540  219.8950 C.ar  235  TRP235      0.0015
    140  N         20.7410  259.2000  223.0560 N.3   237  GLU237     -0.1245
    141  CA        21.9640  258.7040  222.4520 C.3   237  GLU237      0.1567
    142  C         22.8770  258.1370  223.5330 C.2   237  GLU237      0.2260
    143  O         23.0620  258.7490  224.5730 O.2   237  GLU237     -0.2867
    144  CB        22.6730  259.8150  221.6780 C.3   237  GLU237      0.0388
    145  CG        23.9530  259.3680  221.0120 C.3   237  GLU237      0.1160
    146  CD        24.4990  260.4310  220.0780 C.2   237  GLU237      0.3649
    147  OE1       23.6860  261.1330  219.4360 O.co2 237  GLU237     -0.2457
    148  OE2       25.7370  260.5710  219.9950 O.co2 237  GLU237     -0.2457
    149  N         20.2940  254.3120  223.3900 N.3   250  TYR250     -0.1241
    150  CA        20.4000  253.6070  222.1260 C.3   250  TYR250      0.1605
    151  C         21.8110  253.7650  221.5750 C.2   250  TYR250      0.2264
    152  O         22.3040  254.8820  221.3930 O.2   250  TYR250     -0.2867
    153  CB        19.3550  254.1370  221.1390 C.3   250  TYR250      0.0534
    154  CG        17.9310  253.8470  221.5670 C.ar  250  TYR250     -0.0201
    155  CD1       17.3570  254.5140  222.6500 C.ar  250  TYR250     -0.0009
    156  CD2       17.1600  252.9050  220.8980 C.ar  250  TYR250     -0.0009
    157  CE1       16.0630  254.2450  223.0550 C.ar  250  TYR250      0.0417
    158  CE2       15.8520  252.6290  221.2970 C.ar  250  TYR250      0.0417
    159  CZ        15.3080  253.3180  222.3680 C.ar  250  TYR250      0.1957
    160  OH        14.0240  253.0520  222.7870 O.3   250  TYR250     -0.2866
    161  N         23.8810  253.1790  218.3880 N.3   252  ASP252     -0.1225
    162  CA        23.6900  252.9010  216.9730 C.3   252  ASP252      0.1805
    163  C         24.8370  252.1010  216.3700 C.2   252  ASP252      0.2597
    164  O         25.9960  252.2390  216.7680 O.2   252  ASP252     -0.2718
    165  CB        23.5160  254.2000  216.1810 C.3   252  ASP252      0.1424
    166  CG        22.2280  254.9420  216.5270 C.2   252  ASP252      0.3668
    167  OD1       21.3740  254.3910  217.2540 O.co2 252  ASP252     -0.2456
    168  OD2       22.0610  256.0850  216.0490 O.co2 252  ASP252     -0.2456
    169  N         24.4870  251.2760  215.3940 N.am  253  HIS253     -0.1975
    170  CA        25.4690  250.5810  214.5740 C.3   253  HIS253      0.1656
    171  C         25.9910  251.5640  213.5270 C.2   253  HIS253      0.2291
    172  O         25.6200  252.7320  213.5670 O.2   253  HIS253     -0.2864
    173  CB        24.8410  249.3250  213.9510 C.3   253  HIS253      0.0771
    174  CG        24.4870  248.2750  214.9620 C.ar  253  HIS253      0.0820
    175  ND1       24.6090  246.9210  214.7150 N.ar  253  HIS253     -0.2267
    176  CD2       24.0290  248.3830  216.2310 C.ar  253  HIS253      0.1154
    177  CE1       24.2460  246.2480  215.7900 C.ar  253  HIS253      0.1986
    178  NE2       23.8760  247.1110  216.7190 N.ar  253  HIS253     -0.2212
    179  N         26.8010  254.2340  210.9280 N.3   255  VAL255     -0.1245
    180  CA        26.0500  255.1720  210.0930 C.3   255  VAL255      0.1561
    181  C         27.0680  255.9540  209.2600 C.2   255  VAL255      0.2260
    182  O         28.2390  256.0250  209.6350 O.2   255  VAL255     -0.2867
    183  CB        25.1810  256.1400  210.9180 C.3   255  VAL255      0.0252
    184  CG1       24.1270  255.3620  211.7190 C.3   255  VAL255      0.0019
    185  CG2       26.0440  256.9640  211.8650 C.3   255  VAL255      0.0019
    186  N         27.6820  259.0130  209.0040 N.3   257  GLU257     -0.1231
    187  CA        28.3280  260.0440  209.8090 C.3   257  GLU257      0.1699
    188  C         29.6330  259.5540  210.4620 C.2   257  GLU257      0.2592
    189  O         30.5220  260.3550  210.7450 O.2   257  GLU257     -0.2718
    190  CB        27.3620  260.5470  210.8900 C.3   257  GLU257      0.0402
    191  CG        27.7880  261.8350  211.5710 C.3   257  GLU257      0.1161
    192  CD        26.8460  262.2400  212.6980 C.2   257  GLU257      0.3649
    193  OE1       25.6860  261.7640  212.7200 O.co2 257  GLU257     -0.2457
    194  OE2       27.2670  263.0310  213.5700 O.co2 257  GLU257     -0.2457
    195  N         29.7490  258.2420  210.6920 N.am  258  ASP258     -0.1974
    196  CA        30.9580  257.6650  211.2770 C.3   258  ASP258      0.1709
    197  C         32.1360  257.6600  210.3040 C.2   258  ASP258      0.2293
    198  O         33.2860  257.5670  210.7320 O.2   258  ASP258     -0.2864
    199  CB        30.7270  256.2170  211.7280 C.3   258  ASP258      0.1436
    200  CG        29.7160  256.0850  212.8510 C.2   258  ASP258      0.3671
    201  OD1       29.7670  256.8710  213.8300 O.co2 258  ASP258     -0.2456
    202  OD2       28.8810  255.1560  212.7510 O.co2 258  ASP258     -0.2456
@<TRIPOS>BOND
     1    70    69    1
     2    71    69    1
     3    69    68    1
     4    60    58   ar
     5    60    62   ar
     6    63    62    1
     7    58    57   ar
     8    68    65    1
     9    62    61   ar
    10    47    46    2
    11    44    45    1
    12    64    65    1
    13    64    54   am
    14    57    56    1
    15    57    59   ar
    16    65    66    1
    17    53    54    1
    18    53    56    1
    19    53    52    1
    20    46    52   am
    21    46    45    1
    22    61    59   ar
    23    54    55    2
    24    45    48    1
    25    48    49    1
    26    66    72   am
    27    66    67    2
    28    72    73    1
    29    75    74    2
    30    49    51    1
    31    49    50    1
    32    73    74    1
    33    73    76    1
    34    80    78   ar
    35    80    81   ar
    36    78    77   ar
    37   186   187    1
    38   181   182    2
    39   181   180    1
    40    81    79   ar
    41    77    76    1
    42    77    79   ar
    43   187   188    1
    44   187   190    1
    45   180   183    1
    46   180   179    1
    47   197   198    2
    48   197   196    1
    49   188   195   am
    50   188   189    2
    51     3     4    2
    52     3     2    1
    53   195   196    1
    54     5     2    1
    55     5     6    1
    56   190   191    1
    57   183   184    1
    58   183   185    1
    59     8     6   ar
    60     8    10   ar
    61   120   119    2
    62   119   118    1
    63   111   110    2
    64     2     1    1
    65   117   118    1
    66   196   199    1
    67   118   121    1
    68     6     7   ar
    69   125   123   ar
    70   191   192    1
    71   199   200    1
    72    10    11   ar
    73   110   109    1
    74   123   124   ar
    75   123   122    1
    76   112   109    1
    77   112   113    1
    78   192   193   ar
    79   192   194   ar
    80     7     9   ar
    81   202   200   ar
    82   200   201   ar
    83   121   122    1
    84    11     9   ar
    85   108   109    1
    86    95    93    1
    87    91    90    2
    88   114   113    1
    89   114   115    1
    90   171   172    2
    91   171   170    1
    92    43    42    1
    93   116   115    1
    94   173   170    1
    95   173   174    1
    96    99    98    2
    97    92    93    1
    98    92    94    1
    99    92    89    1
   100    41    42   ar
   101    41    39   ar
   102    90    89    1
   103    42    40   ar
   104   170   169    1
   105   175   174   ar
   106   175   177   ar
   107   174   176   ar
   108    98    97    1
   109    89    88    1
   110    12    13    1
   111    39    37   ar
   112    35    34    2
   113   169   163   am
   114    13    16    1
   115    13    14    1
   116   177   178   ar
   117    40    38   ar
   118    21    20    1
   119   168   166   ar
   120    34    33    1
   121   165   166    1
   122   165   162    1
   123    16    17    1
   124   176   178   ar
   125    96    97    1
   126    97   100    1
   127   163   164    2
   128   163   162    1
   129    88    84   am
   130    37    38   ar
   131    37    36    1
   132   166   167   ar
   133   100   101    1
   134   103   105   ar
   135   103   101   ar
   136    17    18    1
   137    14    15    2
   138    18    19    1
   139   162   161    1
   140   105   106   ar
   141   101   102   ar
   142    20    19    2
   143    20    22    1
   144    33    36    1
   145    33    32    1
   146    85    84    2
   147    84    83    1
   148    30    29   ar
   149    87    86    1
   150   106   107    1
   151   106   104   ar
   152   102   104   ar
   153    29    31   ar
   154    29    28    1
   155    82    83    1
   156    83    86    1
   157    28    27    1
   158    26    25    2
   159   147   146   ar
   160   137   139   ar
   161   137   135   ar
   162   134   135   ar
   163   134   132   ar
   164   139   138   ar
   165   135   133   ar
   166   148   146   ar
   167   146   145    1
   168    25    24    1
   169   132   131   ar
   170    27    24    1
   171   138   136   ar
   172   133   131   ar
   173   133   136   ar
   174   131   130    1
   175   156   158   ar
   176   156   154   ar
   177    24    23    1
   178   145   144    1
   179   153   154    1
   180   153   150    1
   181   158   159   ar
   182   152   151    2
   183   130   127    1
   184   154   155   ar
   185   151   150    1
   186   144   141    1
   187   150   149    1
   188   159   160    1
   189   159   157   ar
   190   141   140    1
   191   141   142    1
   192   155   157   ar
   193   127   128    1
   194   127   126    1
   195   142   143    2
   196   128   129    2
