@<TRIPOS>MOLECULE
tmp/4xcbA00.pdb
 153 143 0 0 0
SMALL
GASTEIGER

@<TRIPOS>ATOM
      1  N         17.3190  271.9910  215.1680 N.3    54  ARG54      -0.1245
      2  CA        16.4680  270.9390  215.7200 C.3    54  ARG54       0.1563
      3  C         15.5890  271.4620  216.8630 C.2    54  ARG54       0.2260
      4  O         16.0630  272.1670  217.7540 O.2    54  ARG54      -0.2867
      5  CB        17.3240  269.7650  216.2030 C.3    54  ARG54       0.0307
      6  CG        16.5420  268.5300  216.6410 C.3    54  ARG54       0.0489
      7  CD        17.4930  267.3670  216.8710 C.3    54  ARG54       0.2205
      8  NE        16.8720  266.2810  217.6220 N.pl3  54  ARG54      -0.0865
      9  CZ        16.8160  265.0250  217.1990 C.cat  54  ARG54       0.5346
     10  NH1       17.3540  264.6940  216.0380 N.pl3  54  ARG54       0.1354
     11  NH2       16.2360  264.0980  217.9460 N.pl3  54  ARG54       0.1354
     12  N         10.4290  265.3540  217.7390 N.3    92  TYR92      -0.1241
     13  CA        11.3120  266.4760  217.4500 C.3    92  TYR92       0.1605
     14  C         10.9840  267.1340  216.1170 C.2    92  TYR92       0.2264
     15  O         10.1970  266.6140  215.3270 O.2    92  TYR92      -0.2867
     16  CB        12.7780  266.0260  217.4660 C.3    92  TYR92       0.0534
     17  CG        13.1270  264.9780  216.4340 C.ar   92  TYR92      -0.0201
     18  CD1       13.0030  263.6260  216.7240 C.ar   92  TYR92      -0.0009
     19  CD2       13.6070  265.3470  215.1880 C.ar   92  TYR92      -0.0009
     20  CE1       13.3250  262.6650  215.7930 C.ar   92  TYR92       0.0417
     21  CE2       13.9280  264.3950  214.2490 C.ar   92  TYR92       0.0417
     22  CZ        13.7860  263.0570  214.5620 C.ar   92  TYR92       0.1957
     23  OH        14.1170  262.1140  213.6200 O.3    92  TYR92      -0.2866
     24  N         12.7230  269.3880  212.6670 N.3    94  LEU94      -0.1245
     25  CA        13.9330  269.7070  211.9140 C.3    94  LEU94       0.1561
     26  C         13.6390  270.7960  210.8970 C.2    94  LEU94       0.2260
     27  O         12.7490  270.6510  210.0500 O.2    94  LEU94      -0.2867
     28  CB        14.4880  268.4710  211.2110 C.3    94  LEU94       0.0270
     29  CG        15.0440  267.3540  212.0990 C.3    94  LEU94       0.0019
     30  CD1       15.3370  266.1340  211.2340 C.3    94  LEU94       0.0001
     31  CD2       16.3010  267.8230  212.8360 C.3    94  LEU94       0.0001
     32  N         15.6010  272.9990  207.9740 N.3    96  ARG96      -0.1245
     33  CA        16.8300  273.0220  207.1810 C.3    96  ARG96       0.1563
     34  C         16.8180  274.0820  206.0920 C.2    96  ARG96       0.2260
     35  O         15.7770  274.3820  205.5110 O.2    96  ARG96      -0.2867
     36  CB        17.0730  271.6580  206.5340 C.3    96  ARG96       0.0307
     37  CG        17.6370  270.6240  207.4840 C.3    96  ARG96       0.0489
     38  CD        17.6050  269.2530  206.8540 C.3    96  ARG96       0.2205
     39  NE        18.2190  269.2450  205.5330 N.pl3  96  ARG96      -0.0865
     40  CZ        18.1780  268.2040  204.7000 C.cat  96  ARG96       0.5346
     41  NH1       17.5560  267.0910  205.0610 N.pl3  96  ARG96       0.1354
     42  NH2       18.7490  268.2690  203.5050 N.pl3  96  ARG96       0.1354
     43  N         21.5040  264.9790  205.0920 N.3   102  LEU102     -0.1245
     44  CA        21.4260  263.9720  206.1540 C.3   102  LEU102      0.1561
     45  C         21.9270  262.6480  205.6090 C.2   102  LEU102      0.2260
     46  O         21.2750  262.0150  204.7740 O.2   102  LEU102     -0.2867
     47  CB        19.9990  263.8420  206.6890 C.3   102  LEU102      0.0270
     48  CG        19.8180  263.0280  207.9660 C.3   102  LEU102      0.0019
     49  CD1       20.6430  263.6270  209.0810 C.3   102  LEU102      0.0001
     50  CD2       18.3570  263.0200  208.3560 C.3   102  LEU102      0.0001
     51  N         21.5810  256.3800  207.4720 N.3   105  HIS105     -0.1241
     52  CA        21.5920  255.7530  208.7960 C.3   105  HIS105      0.1621
     53  C         20.5480  254.6640  208.8070 C.2   105  HIS105      0.2264
     54  O         19.7000  254.6110  207.9260 O.2   105  HIS105     -0.2867
     55  CB        21.3290  256.7740  209.9140 C.3   105  HIS105      0.0745
     56  CG        20.1650  257.6860  209.6540 C.ar  105  HIS105      0.0817
     57  ND1       20.2560  258.8100  208.8550 N.ar  105  HIS105     -0.2268
     58  CD2       18.8870  257.6520  210.1030 C.ar  105  HIS105      0.1154
     59  CE1       19.0850  259.4230  208.8250 C.ar  105  HIS105      0.1986
     60  NE2       18.2360  258.7380  209.5670 N.ar  105  HIS105     -0.2212
     61  N          8.7150  255.5760  213.0470 N.3   140  LYS140     -0.1245
     62  CA         8.5500  257.0090  213.0880 C.3   140  LYS140      0.1561
     63  C          7.4310  257.4470  212.1890 C.2   140  LYS140      0.2260
     64  O          7.2500  256.9050  211.0980 O.2   140  LYS140     -0.2867
     65  CB         9.8280  257.7220  212.6680 C.3   140  LYS140      0.0271
     66  CG        10.8740  257.7960  213.7210 C.3   140  LYS140      0.0035
     67  CD        11.9640  258.7450  213.2780 C.3   140  LYS140      0.0206
     68  CE        13.1230  258.6940  214.2390 C.3   140  LYS140      0.1093
     69  NZ        14.3410  259.3110  213.6280 N.3   140  LYS140     -0.1314
     70  N          6.8360  260.7220  210.2210 N.3   142  LEU142     -0.1245
     71  CA         7.3520  262.0030  209.7830 C.3   142  LEU142      0.1561
     72  C          6.2140  262.8130  209.1800 C.2   142  LEU142      0.2260
     73  O          5.6280  262.4220  208.1690 O.2   142  LEU142     -0.2867
     74  CB         8.4740  261.8280  208.7490 C.3   142  LEU142      0.0270
     75  CG         9.6290  260.8820  209.0640 C.3   142  LEU142      0.0019
     76  CD1       10.5580  260.7730  207.8780 C.3   142  LEU142      0.0001
     77  CD2       10.4110  261.3680  210.2410 C.3   142  LEU142      0.0001
     78  N          5.5290  266.0050  207.2690 N.3   144  TYR144     -0.1241
     79  CA         6.2060  267.0430  206.5090 C.3   144  TYR144      0.1605
     80  C          5.3800  268.3120  206.4740 C.2   144  TYR144      0.2264
     81  O          4.1590  268.2710  206.3020 O.2   144  TYR144     -0.2867
     82  CB         6.5120  266.5600  205.0920 C.3   144  TYR144      0.0534
     83  CG         7.6260  265.5460  205.0460 C.ar  144  TYR144     -0.0201
     84  CD1        7.3480  264.1820  205.0820 C.ar  144  TYR144     -0.0009
     85  CD2        8.9600  265.9520  205.0070 C.ar  144  TYR144     -0.0009
     86  CE1        8.3700  263.2460  205.0540 C.ar  144  TYR144      0.0417
     87  CE2        9.9930  265.0150  204.9850 C.ar  144  TYR144      0.0417
     88  CZ         9.6890  263.6700  205.0070 C.ar  144  TYR144      0.1957
     89  OH        10.7120  262.7400  204.9740 O.3   144  TYR144     -0.2866
     90  N         13.9540  262.9320  200.9000 N.3   156  PHE156     -0.1241
     91  CA        14.1560  261.6700  201.5850 C.3   156  PHE156      0.1605
     92  C         14.6810  260.6520  200.5770 C.2   156  PHE156      0.2264
     93  O         14.2300  260.6200  199.4270 O.2   156  PHE156     -0.2867
     94  CB        12.8330  261.2240  202.2040 C.3   156  PHE156      0.0534
     95  CG        12.9020  259.9390  202.9720 C.ar  156  PHE156     -0.0203
     96  CD1       12.7550  258.7250  202.3240 C.ar  156  PHE156     -0.0042
     97  CD2       13.0550  259.9550  204.3440 C.ar  156  PHE156     -0.0042
     98  CE1       12.7940  257.5460  203.0290 C.ar  156  PHE156     -0.0003
     99  CE2       13.0890  258.7770  205.0630 C.ar  156  PHE156     -0.0003
    100  CZ        12.9610  257.5750  204.4050 C.ar  156  PHE156     -0.0000
    101  N          7.6640  255.1740  208.9140 N.3   203  LEU203     -0.1245
    102  CA         9.0010  254.6500  208.6280 C.3   203  LEU203      0.1561
    103  C          9.4310  253.5570  209.6070 C.2   203  LEU203      0.2260
    104  O          9.4470  253.7670  210.8120 O.2   203  LEU203     -0.2867
    105  CB        10.0100  255.7970  208.6690 C.3   203  LEU203      0.0270
    106  CG        11.4940  255.4880  208.4970 C.3   203  LEU203      0.0019
    107  CD1       11.7340  254.8770  207.1230 C.3   203  LEU203      0.0001
    108  CD2       12.2990  256.7690  208.6520 C.3   203  LEU203      0.0001
    109  N         18.2990  254.9480  205.4380 N.3   209  HIS209     -0.1226
    110  CA        17.6970  256.1120  204.8130 C.3   209  HIS209      0.1752
    111  C         18.4280  257.3940  205.1970 C.2   209  HIS209      0.2597
    112  O         19.2750  257.4120  206.0910 O.2   209  HIS209     -0.2718
    113  CB        16.2280  256.2110  205.2220 C.3   209  HIS209      0.0759
    114  CG        16.0490  256.4740  206.6780 C.ar  209  HIS209      0.0818
    115  ND1       16.1750  255.4890  207.6350 N.ar  209  HIS209     -0.2268
    116  CD2       15.8160  257.6280  207.3440 C.ar  209  HIS209      0.1154
    117  CE1       15.9970  256.0260  208.8330 C.ar  209  HIS209      0.1986
    118  NE2       15.7820  257.3190  208.6800 N.ar  209  HIS209     -0.2212
    119  N         18.0860  258.4760  204.5130 N.am  210  GLY210     -0.1942
    120  CA        18.6610  259.7750  204.8060 C.3   210  GLY210      0.2014
    121  C         17.9940  260.7600  203.8820 C.2   210  GLY210      0.2639
    122  O         16.8690  260.5360  203.4500 O.2   210  GLY210     -0.2714
    123  N         18.6710  261.8570  203.5700 N.am  211  THR211     -0.1950
    124  CA        18.1510  262.7410  202.5280 C.3   211  THR211      0.1897
    125  C         19.2570  263.2450  201.6340 C.2   211  THR211      0.2313
    126  O         20.4220  263.2700  202.0180 O.2   211  THR211     -0.2863
    127  CB        17.4200  263.9720  203.0910 C.3   211  THR211      0.1794
    128  OG1       18.3730  265.0030  203.3830 O.3   211  THR211     -0.2208
    129  CG2       16.6340  263.6170  204.3480 C.3   211  THR211      0.0378
    130  N         13.1970  273.8530  204.7030 N.3   220  ARG220     -0.1245
    131  CA        12.6870  272.4910  204.6560 C.3   220  ARG220      0.1563
    132  C         12.2970  272.1390  206.0800 C.2   220  ARG220      0.2260
    133  O         13.1000  272.3000  206.9970 O.2   220  ARG220     -0.2867
    134  CB        13.7400  271.5320  204.1030 C.3   220  ARG220      0.0307
    135  CG        13.3110  270.0840  203.9660 C.3   220  ARG220      0.0489
    136  CD        14.5580  269.2100  203.7780 C.3   220  ARG220      0.2205
    137  NE        14.2530  267.8580  203.3150 N.pl3 220  ARG220     -0.0865
    138  CZ        13.9350  266.8520  204.1210 C.cat 220  ARG220      0.5346
    139  NH1       13.8480  267.0630  205.4320 N.pl3 220  ARG220      0.1354
    140  NH2       13.6860  265.6480  203.6110 N.pl3 220  ARG220      0.1354
    141  N          9.9130  269.6740  208.9930 N.3   222  LEU222     -0.1245
    142  CA         9.0930  268.5300  209.3450 C.3   222  LEU222      0.1561
    143  C          9.1590  268.2710  210.8300 C.2   222  LEU222      0.2260
    144  O         10.0240  268.7990  211.5210 O.2   222  LEU222     -0.2867
    145  CB         9.5270  267.2740  208.5890 C.3   222  LEU222      0.0270
    146  CG        10.7430  266.5360  209.1460 C.3   222  LEU222      0.0019
    147  CD1       10.8940  265.1910  208.4790 C.3   222  LEU222      0.0001
    148  CD2       12.0050  267.3480  208.9760 C.3   222  LEU222      0.0001
    149  N          8.9470  264.8660  213.5830 N.3   224  ALA224     -0.1245
    150  CA         9.0750  263.4130  213.6170 C.3   224  ALA224      0.1562
    151  C          8.6580  262.8860  214.9740 C.2   224  ALA224      0.2260
    152  O          9.0750  263.4180  216.0090 O.2   224  ALA224     -0.2867
    153  CB        10.4980  262.9960  213.3270 C.3   224  ALA224      0.0290
@<TRIPOS>BOND
     1    93    92    2
     2    92    91    1
     3    90    91    1
     4    91    94    1
     5   125   126    2
     6   125   124    1
     7    94    95    1
     8    96    95   ar
     9    96    98   ar
    10   124   127    1
    11   124   123    1
    12    95    97   ar
    13    98   100   ar
    14   127   128    1
    15   127   129    1
    16   137   136    1
    17   137   138    2
    18   122   121    2
    19    42    40    1
    20   123   121   am
    21   140   138    1
    22   136   135    1
    23   121   120    1
    24   135   134    1
    25   134   131    1
    26   138   139    1
    27    97    99   ar
    28   100    99   ar
    29   119   120    1
    30   119   111   am
    31   131   130    1
    32   131   132    1
    33    40    41    1
    34    40    39    2
    35    46    45    2
    36   110   111    1
    37   110   113    1
    38   110   109    1
    39    89    88    1
    40    87    88   ar
    41    87    85   ar
    42    88    86   ar
    43    85    83   ar
    44    83    84   ar
    45    83    82    1
    46    86    84   ar
    47    43    44    1
    48    82    79    1
    49   111   112    2
    50   113   114    1
    51    35    34    2
    52    39    38    1
    53    45    44    1
    54   132   133    2
    55    34    33    1
    56    44    47    1
    57    81    80    2
    58    80    79    1
    59    79    78    1
    60    36    33    1
    61    36    37    1
    62   114   116   ar
    63   114   115   ar
    64    47    48    1
    65    38    37    1
    66   107   106    1
    67    33    32    1
    68   116   118   ar
    69    51    52    1
    70   115   117   ar
    71    76    75    1
    72    54    53    2
    73    48    50    1
    74    48    49    1
    75    73    72    2
    76   147   146    1
    77   106   108    1
    78   106   105    1
    79   145   146    1
    80   145   142    1
    81   102   105    1
    82   102   101    1
    83   102   103    1
    84   118   117   ar
    85    74    75    1
    86    74    71    1
    87    52    53    1
    88    52    55    1
    89    59    57   ar
    90    59    60   ar
    91    57    56   ar
    92   148   146    1
    93   141   142    1
    94    75    77    1
    95    72    71    1
    96   142   143    1
    97    60    58   ar
    98   103   104    2
    99    56    55    1
   100    56    58   ar
   101    71    70    1
   102    27    26    2
   103   143   144    2
   104    26    25    1
   105    64    63    2
   106    28    25    1
   107    28    29    1
   108    30    29    1
   109    25    24    1
   110    29    31    1
   111    63    62    1
   112    65    62    1
   113    65    66    1
   114    61    62    1
   115    67    66    1
   116    67    68    1
   117   153   150    1
   118   149   150    1
   119   150   151    1
   120    23    22    1
   121    69    68    1
   122    21    22   ar
   123    21    19   ar
   124    22    20   ar
   125   151   152    2
   126     1     2    1
   127    19    17   ar
   128    15    14    2
   129     2     5    1
   130     2     3    1
   131    20    18   ar
   132    10     9    1
   133    14    13    1
   134     5     6    1
   135    17    18   ar
   136    17    16    1
   137     6     7    1
   138     3     4    2
   139     7     8    1
   140     9     8    2
   141     9    11    1
   142    13    16    1
   143    13    12    1
