@<TRIPOS>MOLECULE
tmp/4xcdA00.pdb
 199 189 0 0 0
SMALL
GASTEIGER

@<TRIPOS>ATOM
      1  N        217.5990   12.9580   56.8170 N.3    22  THR22      -0.1203
      2  CA       218.5200   12.7410   55.7050 C.3    22  THR22       0.1994
      3  C        219.7260   13.6450   55.7590 C.2    22  THR22       0.2618
      4  O        220.6390   13.5030   54.9510 O.2    22  THR22      -0.2717
      5  CB       217.8320   12.9770   54.3470 C.3    22  THR22       0.1784
      6  OG1      217.6840   14.3860   54.1020 O.3    22  THR22      -0.2211
      7  CG2      216.4550   12.2800   54.2890 C.3    22  THR22       0.0376
      8  N        219.7240   14.5920   56.6920 N.am   23  TYR23      -0.1961
      9  CA       220.7780   15.5970   56.7570 C.3    23  TYR23       0.1771
     10  C        222.0900   15.0040   57.2180 C.2    23  TYR23       0.2620
     11  O        222.1220   14.0420   57.9970 O.2    23  TYR23      -0.2715
     12  CB       220.3720   16.7330   57.6900 C.3    23  TYR23       0.0574
     13  CG       221.1520   18.0060   57.4710 C.ar   23  TYR23      -0.0198
     14  CD1      221.1640   18.6330   56.2250 C.ar   23  TYR23      -0.0009
     15  CD2      221.8480   18.6030   58.5130 C.ar   23  TYR23      -0.0009
     16  CE1      221.8630   19.8090   56.0270 C.ar   23  TYR23       0.0417
     17  CE2      222.5540   19.7780   58.3260 C.ar   23  TYR23       0.0417
     18  CZ       222.5600   20.3770   57.0840 C.ar   23  TYR23       0.1957
     19  OH       223.2540   21.5640   56.9140 O.3    23  TYR23      -0.2866
     20  N        223.1750   15.5740   56.7160 N.am   24  GLY24      -0.1940
     21  CA       224.5040   15.0970   57.0590 C.3    24  GLY24       0.1998
     22  C        224.9270   13.8610   56.2870 C.2    24  GLY24       0.2480
     23  O        224.0970   13.1660   55.6990 O.2    24  GLY24      -0.2729
     24  N        226.2380   13.5880   56.2720 N.am   25  PRO25      -0.2726
     25  CA       226.7600   12.4880   55.4730 C.3    25  PRO25       0.1402
     26  C        226.2970   11.1640   56.0340 C.2    25  PRO25       0.2269
     27  O        225.8770   10.2900   55.2750 O.2    25  PRO25      -0.2865
     28  CB       228.2830   12.6470   55.5950 C.3    25  PRO25       0.0296
     29  CG       228.4990   13.4330   56.8410 C.3    25  PRO25       0.0237
     30  CD       227.2960   14.3040   57.0110 C.3    25  PRO25       0.0939
     31  N        222.1300   20.9300   43.4860 N.3    74  ALA74      -0.1231
     32  CA       221.0490   20.7590   44.4630 C.3    74  ALA74       0.1694
     33  C        221.5720   20.8410   45.8940 C.2    74  ALA74       0.2592
     34  O        220.7810   20.8540   46.8380 O.2    74  ALA74      -0.2718
     35  CB       220.3270   19.4280   44.2480 C.3    74  ALA74       0.0304
     36  N        222.8940   20.8570   46.0530 N.am   75  ASP75      -0.1960
     37  CA       223.5110   20.9900   47.3700 C.3    75  ASP75       0.1840
     38  C        223.1170   22.3120   48.0200 C.2    75  ASP75       0.2623
     39  O        223.0480   23.3490   47.3570 O.2    75  ASP75      -0.2715
     40  CB       225.0380   20.8930   47.2740 C.3    75  ASP75       0.1450
     41  CG       225.5270   19.4730   47.0290 C.2    75  ASP75       0.3671
     42  OD1      224.7100   18.6010   46.6490 O.co2  75  ASP75      -0.2456
     43  OD2      226.7370   19.2250   47.2200 O.co2  75  ASP75      -0.2456
     44  N        222.8330   22.2560   49.3170 N.am   76  GLY76      -0.1940
     45  CA       222.4800   23.4390   50.0910 C.3    76  GLY76       0.2014
     46  C        220.9920   23.6030   50.3280 C.2    76  GLY76       0.2640
     47  O        220.5920   24.3730   51.1990 O.2    76  GLY76      -0.2714
     48  N        220.1670   22.8820   49.5670 N.am   77  THR77      -0.1936
     49  CA       218.7110   22.9730   49.7030 C.3    77  THR77       0.2028
     50  C        218.2530   22.4400   51.0600 C.2    77  THR77       0.2642
     51  O        217.5140   23.1120   51.7870 O.2    77  THR77      -0.2714
     52  CB       217.9860   22.1950   48.5880 C.3    77  THR77       0.1808
     53  OG1      218.4260   20.8320   48.5980 O.3    77  THR77      -0.2208
     54  CG2      218.2590   22.8270   47.2170 C.3    77  THR77       0.0379
     55  N        218.7260   21.2440   51.4000 N.am   78  LYS78      -0.1963
     56  CA       218.4060   20.6190   52.6810 C.3    78  LYS78       0.1728
     57  C        218.7860   21.5520   53.8210 C.2    78  LYS78       0.2616
     58  O        217.9870   21.8080   54.7260 O.2    78  LYS78      -0.2715
     59  CB       219.1640   19.3080   52.8540 C.3    78  LYS78       0.0311
     60  CG       218.9400   18.2830   51.7600 C.3    78  LYS78       0.0038
     61  CD       219.9190   17.1430   51.9350 C.3    78  LYS78       0.0206
     62  CE       219.8180   16.1550   50.7990 C.3    78  LYS78       0.1093
     63  NZ       220.5930   14.9160   51.0710 N.3    78  LYS78      -0.1314
     64  N        220.0180   22.0520   53.7630 N.am   79  THR79      -0.1951
     65  CA       220.5360   22.9820   54.7560 C.3    79  THR79       0.1897
     66  C        219.5810   24.1490   54.9370 C.2    79  THR79       0.2313
     67  O        219.2730   24.5290   56.0630 O.2    79  THR79      -0.2863
     68  CB       221.9240   23.5190   54.3420 C.3    79  THR79       0.1794
     69  OG1      222.7980   22.4210   54.0390 O.3    79  THR79      -0.2208
     70  CG2      222.5420   24.3640   55.4570 C.3    79  THR79       0.0378
     71  N        233.8370   15.9290   49.5120 N.3   140  THR140     -0.1203
     72  CA       232.8090   16.2840   50.4920 C.3   140  THR140      0.1994
     73  C        231.4150   16.3140   49.8700 C.2   140  THR140      0.2618
     74  O        230.4520   15.8390   50.4650 O.2   140  THR140     -0.2717
     75  CB       233.0790   17.6590   51.1400 C.3   140  THR140      0.1784
     76  OG1      233.3470   18.6360   50.1270 O.3   140  THR140     -0.2211
     77  CG2      234.2500   17.5820   52.0690 C.3   140  THR140      0.0376
     78  N        231.3200   16.8810   48.6730 N.am  141  SER141     -0.1951
     79  CA       230.0390   17.0130   47.9890 C.3   141  SER141      0.1924
     80  C        229.4540   15.6650   47.5850 C.2   141  SER141      0.2314
     81  O        228.2930   15.3830   47.8690 O.2   141  SER141     -0.2863
     82  CB       230.1890   17.8940   46.7480 C.3   141  SER141      0.2116
     83  OG       228.9900   17.9160   45.9950 O.3   141  SER141     -0.2180
     84  N        228.6530   12.4660   50.4730 N.3   144  SER144     -0.1202
     85  CA       227.4270   12.4170   51.2610 C.3   144  SER144      0.2020
     86  C        226.3540   11.5120   50.6500 C.2   144  SER144      0.2618
     87  O        225.4970   10.9910   51.3670 O.2   144  SER144     -0.2717
     88  CB       226.8640   13.8240   51.4490 C.3   144  SER144      0.2103
     89  OG       225.7190   13.7990   52.2830 O.3   144  SER144     -0.2182
     90  N        226.4110   11.3150   49.3350 N.am  145  LYS145     -0.1979
     91  CA       225.4110   10.5130   48.6320 C.3   145  LYS145      0.1596
     92  C        225.5850    9.0170   48.8830 C.2   145  LYS145      0.2287
     93  O        226.6220    8.5750   49.3820 O.2   145  LYS145     -0.2864
     94  CB       225.4540   10.8060   47.1290 C.3   145  LYS145      0.0298
     95  CG       225.2160   12.2670   46.7660 C.3   145  LYS145      0.0038
     96  CD       223.9060   12.7930   47.3400 C.3   145  LYS145      0.0206
     97  CE       223.5520   14.1660   46.7970 C.3   145  LYS145      0.1093
     98  NZ       224.5190   15.2160   47.2160 N.3   145  LYS145     -0.1314
     99  N        231.1270   20.9440   58.3730 N.3   387  GLY387     -0.1210
    100  CA       231.2090   20.1380   59.5860 C.3   387  GLY387      0.1956
    101  C        230.9090   20.9140   60.8530 C.2   387  GLY387      0.2612
    102  O        231.3060   20.5000   61.9420 O.2   387  GLY387     -0.2717
    103  N        230.2130   22.0410   60.7180 N.am  388  GLY388     -0.1956
    104  CA       229.8130   22.8380   61.8700 C.3   388  GLY388      0.1869
    105  C        230.7480   23.9760   62.2290 C.2   388  GLY388      0.2309
    106  O        230.4500   24.7570   63.1280 O.2   388  GLY388     -0.2863
    107  N        228.6740   27.5170   61.4600 N.3   391  GLU391     -0.1245
    108  CA       227.4590   27.9100   62.1690 C.3   391  GLU391      0.1567
    109  C        227.7490   28.5210   63.5380 C.2   391  GLU391      0.2260
    110  O        227.2420   29.5940   63.8620 O.2   391  GLU391     -0.2867
    111  CB       226.5240   26.7070   62.3300 C.3   391  GLU391      0.0388
    112  CG       225.9740   26.1480   61.0220 C.3   391  GLU391      0.1160
    113  CD       226.9050   25.1390   60.3600 C.2   391  GLU391      0.3649
    114  OE1      228.1420   25.2990   60.4800 O.co2 391  GLU391     -0.2457
    115  OE2      226.4060   24.1820   59.7220 O.co2 391  GLU391     -0.2457
    116  N        221.0940   23.4170   64.1350 N.3   423  LEU423     -0.1245
    117  CA       221.3250   22.6470   62.9230 C.3   423  LEU423      0.1561
    118  C        222.4800   21.6250   63.0790 C.2   423  LEU423      0.2260
    119  O        222.3560   20.4700   62.6610 O.2   423  LEU423     -0.2867
    120  CB       221.5780   23.6140   61.7670 C.3   423  LEU423      0.0270
    121  CG       221.8020   23.0140   60.3840 C.3   423  LEU423      0.0019
    122  CD1      221.1270   23.8650   59.3140 C.3   423  LEU423      0.0001
    123  CD2      223.3010   22.8410   60.1060 C.3   423  LEU423      0.0001
    124  N        222.4970   17.6280   62.9530 N.3   427  LEU427     -0.1245
    125  CA       223.5460   16.8270   62.3590 C.3   427  LEU427      0.1561
    126  C        224.1510   15.7610   63.2660 C.2   427  LEU427      0.2260
    127  O        224.3400   14.6140   62.8370 O.2   427  LEU427     -0.2867
    128  CB       224.5470   17.7550   61.7720 C.3   427  LEU427      0.0270
    129  CG       225.7640   17.2650   61.0480 C.3   427  LEU427      0.0019
    130  CD1      225.3090   16.5180   59.8150 C.3   427  LEU427      0.0001
    131  CD2      226.6760   18.4260   60.6710 C.3   427  LEU427      0.0001
    132  N        232.6400   19.0320   64.1820 N.3   456  LEU456     -0.1231
    133  CA       232.4530   17.6360   64.5790 C.3   456  LEU456      0.1693
    134  C        232.7700   16.6780   63.4530 C.2   456  LEU456      0.2592
    135  O        232.3190   16.8430   62.3240 O.2   456  LEU456     -0.2718
    136  CB       231.0240   17.3670   65.0400 C.3   456  LEU456      0.0284
    137  CG       230.5990   18.0020   66.3640 C.3   456  LEU456      0.0019
    138  CD1      229.1470   17.6220   66.6200 C.3   456  LEU456      0.0001
    139  CD2      231.4940   17.6130   67.5460 C.3   456  LEU456      0.0001
    140  N        233.5660   15.6790   63.7880 N.am  457  ASN457     -0.1960
    141  CA       233.7470   14.5180   62.9670 C.3   457  ASN457      0.1819
    142  C        232.7370   13.4590   63.3720 C.2   457  ASN457      0.2621
    143  O        232.7350   12.9930   64.5100 O.2   457  ASN457     -0.2715
    144  CB       235.1430   13.9670   63.2380 C.3   457  ASN457      0.1195
    145  CG       235.5230   12.8560   62.2950 C.2   457  ASN457      0.2630
    146  OD1      235.2390   11.7060   62.5960 O.2   457  ASN457     -0.2716
    147  ND2      236.1660   13.1750   61.1720 N.am  457  ASN457     -0.0877
    148  N        231.9140   13.0290   62.4230 N.am  458  LEU458     -0.1963
    149  CA       230.7850   12.1670   62.7450 C.3   458  LEU458      0.1728
    150  C        231.2240   10.7360   63.0070 C.2   458  LEU458      0.2616
    151  O        230.4250    9.9160   63.4390 O.2   458  LEU458     -0.2715
    152  CB       229.7350   12.2060   61.6290 C.3   458  LEU458      0.0311
    153  CG       229.0560   13.5630   61.3470 C.3   458  LEU458      0.0022
    154  CD1      228.6490   14.3040   62.6200 C.3   458  LEU458      0.0001
    155  CD2      229.9420   14.4580   60.4940 C.3   458  LEU458      0.0001
    156  N        232.4960   10.4440   62.7560 N.am  459  PHE459     -0.1974
    157  CA       233.0260    9.0960   62.8740 C.3   459  PHE459      0.1639
    158  C        233.7910    8.9380   64.1860 C.2   459  PHE459      0.2290
    159  O        233.4540    8.0750   64.9950 O.2   459  PHE459     -0.2864
    160  CB       233.9050    8.7860   61.6600 C.3   459  PHE459      0.0560
    161  CG       233.1840    8.9420   60.3410 C.ar  459  PHE459     -0.0200
    162  CD1      232.6040    7.8500   59.7210 C.ar  459  PHE459     -0.0042
    163  CD2      233.0720   10.1890   59.7290 C.ar  459  PHE459     -0.0042
    164  CE1      231.9370    7.9910   58.5140 C.ar  459  PHE459     -0.0003
    165  CE2      232.3990   10.3380   58.5290 C.ar  459  PHE459     -0.0003
    166  CZ       231.8320    9.2360   57.9180 C.ar  459  PHE459     -0.0000
    167  N        238.3130   20.6640   60.6780 N.3   466  MET466     -0.1245
    168  CA       237.6230   20.1610   59.4780 C.3   466  MET466      0.1570
    169  C        238.4010   20.4240   58.1960 C.2   466  MET466      0.2261
    170  O        238.3660   19.6110   57.2690 O.2   466  MET466     -0.2867
    171  CB       236.2310   20.7990   59.3590 C.3   466  MET466      0.0387
    172  CG       235.2460   20.3660   60.4320 C.3   466  MET466      0.0595
    173  SD       234.8730   18.6010   60.3910 S.3   466  MET466     -0.1393
    174  CE       236.0430   17.9960   61.5970 C.3   466  MET466      0.0692
    175  N        237.3470   18.4010   54.8060 N.3   471  VAL471     -0.1245
    176  CA       235.9310   18.7050   54.9120 C.3   471  VAL471      0.1561
    177  C        235.7130   20.1590   54.5040 C.2   471  VAL471      0.2260
    178  O        235.4560   21.0160   55.3510 O.2   471  VAL471     -0.2867
    179  CB       235.4000   18.4700   56.3410 C.3   471  VAL471      0.0252
    180  CG1      233.8820   18.6160   56.3760 C.3   471  VAL471      0.0019
    181  CG2      235.7980   17.0890   56.8340 C.3   471  VAL471      0.0019
    182  N        233.7300   22.9760   51.7980 N.3   473  GLU473     -0.1245
    183  CA       232.5650   23.2250   50.9590 C.3   473  GLU473      0.1567
    184  C        232.6630   24.6060   50.3100 C.2   473  GLU473      0.2260
    185  O        233.4810   25.4340   50.7270 O.2   473  GLU473     -0.2867
    186  CB       231.2930   23.1440   51.7950 C.3   473  GLU473      0.0388
    187  CG       230.8390   21.7270   52.0820 C.3   473  GLU473      0.1160
    188  CD       229.4830   21.6840   52.7530 C.2   473  GLU473      0.3649
    189  OE1      228.6950   20.7680   52.4350 O.co2 473  GLU473     -0.2457
    190  OE2      229.1990   22.5730   53.5850 O.co2 473  GLU473     -0.2457
    191  N        226.6220   27.5320   50.5530 N.3   478  LYS478     -0.1245
    192  CA       226.1940   27.5400   51.9480 C.3   478  LYS478      0.1561
    193  C        225.6560   28.9140   52.3400 C.2   478  LYS478      0.2260
    194  O        224.8330   29.0310   53.2450 O.2   478  LYS478     -0.2867
    195  CB       227.3550   27.1460   52.8650 C.3   478  LYS478      0.0271
    196  CG       226.9280   26.7950   54.2830 C.3   478  LYS478      0.0035
    197  CD       227.9580   25.9150   54.9750 C.3   478  LYS478      0.0206
    198  CE       227.4040   25.3030   56.2520 C.3   478  LYS478      0.1093
    199  NZ       228.3880   24.4060   56.9240 N.3   478  LYS478     -0.1314
@<TRIPOS>BOND
     1    31    32    1
     2    35    32    1
     3    32    33    1
     4    33    36   am
     5    33    34    2
     6    83    82    1
     7    36    37    1
     8    42    41   ar
     9    82    79    1
    10    95    94    1
    11    95    96    1
    12    97    98    1
    13    97    96    1
    14    41    43   ar
    15    41    40    1
    16    94    91    1
    17    54    52    1
    18    40    37    1
    19    39    38    2
    20    37    38    1
    21    80    81    2
    22    80    79    1
    23    79    78    1
    24    38    44   am
    25    52    53    1
    26    52    49    1
    27    91    92    1
    28    91    90    1
    29    78    73   am
    30    92    93    2
    31    44    45    1
    32    90    86   am
    33    71    72    1
    34    48    49    1
    35    48    46   am
    36    49    50    1
    37    73    74    2
    38    73    72    1
    39    45    46    1
    40    76    75    1
    41   184   185    2
    42   184   183    1
    43    46    47    2
    44    84    85    1
    45    72    75    1
    46   191   192    1
    47    86    85    1
    48    86    87    2
    49    62    63    1
    50    62    61    1
    51   183   186    1
    52   183   182    1
    53    50    55   am
    54    50    51    2
    55    75    77    1
    56    85    88    1
    57    55    56    1
    58    88    89    1
    59    60    61    1
    60    60    59    1
    61   186   187    1
    62   192   193    1
    63   192   195    1
    64   187   188    1
    65   193   194    2
    66   189   188   ar
    67    56    59    1
    68    56    57    1
    69   188   190   ar
    70   195   196    1
    71    64    57   am
    72    64    65    1
    73    57    58    2
    74    69    68    1
    75     6     5    1
    76   196   197    1
    77     7     5    1
    78    68    65    1
    79    68    70    1
    80     5     2    1
    81   177   176    1
    82   177   178    2
    83    65    66    1
    84   175   176    1
    85   176   179    1
    86    66    67    2
    87     4     3    2
    88   197   198    1
    89    27    26    2
    90    25    28    1
    91    25    26    1
    92    25    24    1
    93    28    29    1
    94    23    22    2
    95     2     3    1
    96     2     1    1
    97     3     8   am
    98    16    14   ar
    99    16    18   ar
   100    14    13   ar
   101   198   199    1
   102    24    22   am
   103    24    30    1
   104    22    21    1
   105   179   180    1
   106   179   181    1
   107     8     9    1
   108    20    21    1
   109    20    10   am
   110     9    10    1
   111     9    12    1
   112    29    30    1
   113    19    18    1
   114    18    17   ar
   115    10    11    2
   116   170   169    2
   117    13    12    1
   118    13    15   ar
   119   166   164   ar
   120   166   165   ar
   121   169   168    1
   122    17    15   ar
   123    99   100    1
   124   164   162   ar
   125   165   163   ar
   126   122   121    1
   127   171   168    1
   128   171   172    1
   129   168   167    1
   130   100   101    1
   131   162   161   ar
   132   115   113   ar
   133   163   161   ar
   134   130   129    1
   135   123   121    1
   136   161   160    1
   137   113   114   ar
   138   113   112    1
   139   121   120    1
   140   173   172    1
   141   173   174    1
   142   155   153    1
   143   131   129    1
   144   103   101   am
   145   103   104    1
   146   101   102    2
   147   112   111    1
   148   129   128    1
   149   147   145   am
   150   153   152    1
   151   153   154    1
   152   107   108    1
   153   152   149    1
   154   160   157    1
   155   120   117    1
   156   128   125    1
   157   104   105    1
   158   108   111    1
   159   108   109    1
   160   105   106    2
   161   145   146    2
   162   145   144    1
   163   135   134    2
   164   125   124    1
   165   125   126    1
   166   148   149    1
   167   148   142   am
   168   119   118    2
   169   149   150    1
   170   156   157    1
   171   156   150   am
   172   127   126    2
   173   157   158    1
   174   117   118    1
   175   117   116    1
   176   141   144    1
   177   141   142    1
   178   141   140    1
   179   150   151    2
   180   142   143    2
   181   134   140   am
   182   134   133    1
   183   109   110    2
   184   132   133    1
   185   158   159    2
   186   133   136    1
   187   136   137    1
   188   137   138    1
   189   137   139    1
