@<TRIPOS>MOLECULE
tmp/4xcfB01.pdb
 71 70 0 0 0
SMALL
GASTEIGER

@<TRIPOS>ATOM
      1  N         -9.5230   -1.8330   -1.4950 N.3   126  THR126     -0.1203
      2  CA       -10.8940   -1.8220   -2.0310 C.3   126  THR126      0.1994
      3  C        -10.8570   -1.4190   -3.5000 C.2   126  THR126      0.2618
      4  O        -10.2340   -0.3840   -3.8500 O.2   126  THR126     -0.2717
      5  CB       -11.7740   -0.8110   -1.2460 C.3   126  THR126      0.1784
      6  OG1      -11.7770   -1.1940    0.1390 O.3   126  THR126     -0.2211
      7  CG2      -13.2180   -0.7860   -1.7990 C.3   126  THR126      0.0376
      8  N        -11.5940   -2.1380   -4.3450 N.am  127  LYS127     -0.1965
      9  CA       -11.5770   -1.8750   -5.7680 C.3   127  LYS127      0.1728
     10  C        -12.8990   -2.2710   -6.3610 C.2   127  LYS127      0.2617
     11  O        -13.3940   -3.3490   -6.0650 O.2   127  LYS127     -0.2715
     12  CB       -10.4110   -2.6080   -6.5010 C.3   127  LYS127      0.0311
     13  CG       -10.2720   -2.1810   -8.0120 C.3   127  LYS127      0.0038
     14  CD        -9.3800   -3.0120   -8.9070 C.3   127  LYS127      0.0206
     15  CE        -9.7030   -2.7460  -10.4790 C.3   127  LYS127      0.1093
     16  NZ       -11.1940   -3.0220  -11.1240 N.3   127  LYS127     -0.1314
     17  N        -13.4780   -1.3910   -7.1930 N.am  128  GLY128     -0.1941
     18  CA       -14.7240   -1.7610   -7.8170 C.3   128  GLY128      0.1998
     19  C        -14.4450   -2.5280   -9.1090 C.2   128  GLY128      0.2480
     20  O        -13.4570   -2.2920   -9.7980 O.2   128  GLY128     -0.2729
     21  N        -15.3730   -3.3910   -9.5060 N.am  129  PRO129     -0.2726
     22  CA       -15.1300   -4.2080  -10.6910 C.3   129  PRO129      0.1402
     23  C        -15.4360   -3.4980  -11.9900 C.2   129  PRO129      0.2269
     24  O        -16.2210   -2.5120  -12.0030 O.2   129  PRO129     -0.2865
     25  CB       -16.1580   -5.3180  -10.5450 C.3   129  PRO129      0.0296
     26  CG       -17.2970   -4.6830   -9.7810 C.3   129  PRO129      0.0237
     27  CD       -16.6440   -3.7190   -8.8260 C.3   129  PRO129      0.0939
     28  N        -21.0850   -3.1910   -2.9460 N.3   206  LYS206     -0.1231
     29  CA       -21.3160   -2.1430   -1.9800 C.3   206  LYS206      0.1678
     30  C        -20.0020   -1.4420   -1.5380 C.2   206  LYS206      0.2434
     31  O        -19.9720   -0.2150   -1.4290 O.2   206  LYS206     -0.2733
     32  CB       -22.1450   -2.6470   -0.7750 C.3   206  LYS206      0.0284
     33  CG       -22.4660   -1.5380    0.2330 C.3   206  LYS206      0.0035
     34  CD       -23.3810   -2.0200    1.3610 C.3   206  LYS206      0.0206
     35  CE       -23.6870   -0.8690    2.3190 C.3   206  LYS206      0.1093
     36  NZ       -24.6130   -1.3190    3.3780 N.3   206  LYS206     -0.1314
     37  N        -18.9110   -2.2070   -1.2810 N.am  207  PRO207     -0.2718
     38  CA       -17.7290   -1.5320   -0.7030 C.3   207  PRO207      0.1535
     39  C        -17.1530   -0.4350   -1.5730 C.2   207  PRO207      0.2599
     40  O        -16.5410    0.5120   -1.0140 O.2   207  PRO207     -0.2715
     41  CB       -16.7020   -2.6730   -0.5270 C.3   207  PRO207      0.0310
     42  CG       -17.5640   -3.8870   -0.3100 C.3   207  PRO207      0.0237
     43  CD       -18.7950   -3.6730   -1.1760 C.3   207  PRO207      0.0939
     44  N        -17.2690   -0.5700   -2.8910 N.am  208  SER208     -0.1936
     45  CA       -16.7250    0.4380   -3.7990 C.3   208  SER208      0.2055
     46  C        -17.8170    1.3280   -4.3450 C.2   208  SER208      0.2643
     47  O        -17.5530    2.1750   -5.2010 O.2   208  SER208     -0.2714
     48  CB       -16.0180   -0.2540   -4.9830 C.3   208  SER208      0.2130
     49  OG       -16.9690   -0.9770   -5.7690 O.3   208  SER208     -0.2179
     50  N        -19.0590    1.1220   -3.8870 N.am  209  ASN209     -0.1957
     51  CA       -20.2130    1.8100   -4.4460 C.3   209  ASN209      0.1819
     52  C        -20.2530    1.6420   -5.9650 C.2   209  ASN209      0.2621
     53  O        -20.5710    2.6090   -6.7200 O.2   209  ASN209     -0.2715
     54  CB       -20.2610    3.2980   -4.0690 C.3   209  ASN209      0.1195
     55  CG       -21.6250    3.8960   -4.3130 C.2   209  ASN209      0.2630
     56  OD1      -22.6490    3.2590   -4.0350 O.2   209  ASN209     -0.2716
     57  ND2      -21.6760    5.1030   -4.8810 N.am  209  ASN209     -0.0877
     58  N        -20.0090    0.4280   -6.4610 N.am  210  THR210     -0.1951
     59  CA       -20.1600    0.1810   -7.8870 C.3   210  THR210      0.1897
     60  C        -21.5150   -0.4070   -8.1100 C.2   210  THR210      0.2313
     61  O        -21.7960   -1.4890   -7.6170 O.2   210  THR210     -0.2863
     62  CB       -19.0880   -0.8150   -8.3930 C.3   210  THR210      0.1794
     63  OG1      -17.8160   -0.2180   -8.1880 O.3   210  THR210     -0.2208
     64  CG2      -19.2810   -1.0900   -9.8960 C.3   210  THR210      0.0378
     65  N        -23.7390   -1.0470  -11.3510 N.3   212  VAL212     -0.1245
     66  CA       -23.7030   -0.9790  -12.8060 C.3   212  VAL212      0.1561
     67  C        -24.7910   -1.8560  -13.4130 C.2   212  VAL212      0.2260
     68  O        -25.0090   -2.9850  -12.9470 O.2   212  VAL212     -0.2867
     69  CB       -22.3130   -1.4830  -13.2960 C.3   212  VAL212      0.0252
     70  CG1      -22.3620   -1.8340  -14.7780 C.3   212  VAL212      0.0019
     71  CG2      -21.2490   -0.4380  -12.9520 C.3   212  VAL212      0.0019
@<TRIPOS>BOND
     1    70    69    1
     2    67    68    2
     3    67    66    1
     4    69    71    1
     5    69    66    1
     6    66    65    1
     7    24    23    2
     8    23    22    1
     9    16    15    1
    10    22    25    1
    11    22    21    1
    12    25    26    1
    13    15    14    1
    14    64    62    1
    15    20    19    2
    16    26    27    1
    17    21    19   am
    18    21    27    1
    19    19    18    1
    20    14    13    1
    21    62    63    1
    22    62    59    1
    23    60    59    1
    24    60    61    2
    25    13    12    1
    26    59    58    1
    27    18    17    1
    28    17    10   am
    29    53    52    2
    30    12     9    1
    31    58    52   am
    32    10    11    2
    33    10     9    1
    34    52    51    1
    35    49    48    1
    36     9     8    1
    37    47    46    2
    38    48    45    1
    39    57    55   am
    40    51    54    1
    41    51    50    1
    42     8     3   am
    43    46    50   am
    44    46    45    1
    45    55    54    1
    46    55    56    2
    47     4     3    2
    48    45    44    1
    49     3     2    1
    50    28    29    1
    51    44    39   am
    52     2     1    1
    53     2     5    1
    54    29    30    1
    55    29    32    1
    56     7     5    1
    57    39    40    2
    58    39    38    1
    59    30    31    2
    60    30    37   am
    61    37    43    1
    62    37    38    1
    63     5     6    1
    64    43    42    1
    65    32    33    1
    66    38    41    1
    67    41    42    1
    68    33    34    1
    69    34    35    1
    70    35    36    1
