@<TRIPOS>MOLECULE
tmp/4xcgA00.pdb
 189 177 0 0 0
SMALL
GASTEIGER

@<TRIPOS>ATOM
      1  N        -98.1000 -148.9960  514.2110 N.3    22  THR22      -0.1203
      2  CA       -97.3990 -148.6280  515.4330 C.3    22  THR22       0.1994
      3  C        -95.9910 -149.2030  515.4720 C.2    22  THR22       0.2618
      4  O        -95.1630 -148.7740  516.2690 O.2    22  THR22      -0.2717
      5  CB       -98.1410 -149.1200  516.6690 C.3    22  THR22       0.1784
      6  OG1      -98.2500 -150.5450  516.6200 O.3    22  THR22      -0.2211
      7  CG2      -99.5280 -148.5180  516.7330 C.3    22  THR22       0.0376
      8  N        -95.7310 -150.1770  514.6060 N.am   23  TYR23      -0.1961
      9  CA       -94.4800 -150.9330  514.6190 C.3    23  TYR23       0.1771
     10  C        -93.2790 -150.0990  514.2100 C.2    23  TYR23       0.2620
     11  O        -93.3970 -149.1590  513.4300 O.2    23  TYR23      -0.2715
     12  CB       -94.5960 -152.1380  513.6810 C.3    23  TYR23       0.0574
     13  CG       -93.6060 -153.2580  513.9230 C.ar   23  TYR23      -0.0198
     14  CD1      -93.1590 -153.5660  515.2010 C.ar   23  TYR23      -0.0009
     15  CD2      -93.1320 -154.0200  512.8660 C.ar   23  TYR23      -0.0009
     16  CE1      -92.2670 -154.5940  515.4150 C.ar   23  TYR23       0.0417
     17  CE2      -92.2390 -155.0480  513.0710 C.ar   23  TYR23       0.0417
     18  CZ       -91.8110 -155.3300  514.3440 C.ar   23  TYR23       0.1957
     19  OH       -90.9200 -156.3540  514.5460 O.3    23  TYR23      -0.2866
     20  N        -92.1170 -150.4600  514.7380 N.am   24  GLY24      -0.1940
     21  CA       -90.8690 -149.8510  514.3280 C.3    24  GLY24       0.1998
     22  C        -90.4680 -148.6620  515.1740 C.2    24  GLY24       0.2480
     23  O        -91.2210 -148.2320  516.0450 O.2    24  GLY24      -0.2729
     24  N        -89.2630 -148.1300  514.9220 N.am   25  PRO25      -0.2726
     25  CA       -88.7130 -146.9470  515.5830 C.3    25  PRO25       0.1402
     26  C        -89.1460 -145.6560  514.8880 C.2    25  PRO25       0.2269
     27  O        -88.5130 -144.6150  515.0620 O.2    25  PRO25      -0.2865
     28  CB       -87.2120 -147.1620  515.4550 C.3    25  PRO25       0.0296
     29  CG       -87.0920 -147.7660  514.1090 C.3    25  PRO25       0.0237
     30  CD       -88.2850 -148.7030  513.9830 C.3    25  PRO25       0.0939
     31  N        -98.3630 -144.9840  521.3070 N.3    43  ASN43      -0.1240
     32  CA       -97.6380 -145.8230  520.3650 C.3    43  ASN43       0.1653
     33  C        -97.5600 -147.2540  520.8640 C.2    43  ASN43       0.2266
     34  O        -97.6910 -148.1940  520.0850 O.2    43  ASN43      -0.2867
     35  CB       -96.2260 -145.2880  520.1340 C.3    43  ASN43       0.1155
     36  CG       -95.3770 -146.2270  519.2950 C.2    43  ASN43       0.2627
     37  OD1      -94.6670 -147.0800  519.8260 O.2    43  ASN43      -0.2716
     38  ND2      -95.4510 -146.0770  517.9790 N.am   43  ASN43      -0.0877
     39  N        -93.0100 -154.9260  525.7350 N.3    72  ASP72      -0.1225
     40  CA       -92.8670 -154.8980  524.2840 C.3    72  ASP72       0.1805
     41  C        -92.5790 -156.2930  523.7520 C.2    72  ASP72       0.2598
     42  O        -92.3280 -157.2190  524.5220 O.2    72  ASP72      -0.2718
     43  CB       -91.7520 -153.9350  523.8620 C.3    72  ASP72       0.1424
     44  CG       -92.2290 -152.4910  523.7450 C.2    72  ASP72       0.3668
     45  OD1      -93.4540 -152.2580  523.6230 O.co2  72  ASP72      -0.2456
     46  OD2      -91.3670 -151.5860  523.7520 O.co2  72  ASP72      -0.2456
     47  N        -92.6050 -156.4290  522.4300 N.am   73  GLY73      -0.1957
     48  CA       -92.5130 -157.7240  521.7850 C.3    73  GLY73       0.1869
     49  C        -93.9030 -158.1760  521.3900 C.2    73  GLY73       0.2309
     50  O        -94.0790 -158.9130  520.4210 O.2    73  GLY73      -0.2863
     51  N        -96.1400 -156.2660  520.1150 N.3    75  LYS75      -0.1231
     52  CA       -96.2300 -155.6940  518.7760 C.3    75  LYS75       0.1693
     53  C        -95.8270 -156.7300  517.7240 C.2    75  LYS75       0.2592
     54  O        -96.6220 -157.1020  516.8360 O.2    75  LYS75      -0.2718
     55  CB       -95.3340 -154.4490  518.6920 C.3    75  LYS75       0.0285
     56  CG       -96.0310 -153.1430  519.0730 C.3    75  LYS75       0.0035
     57  CD       -95.2320 -151.9290  518.6200 C.3    75  LYS75       0.0206
     58  CE       -95.9870 -150.6270  518.8410 C.3    75  LYS75       0.1093
     59  NZ       -95.7790 -150.0740  520.2030 N.3    75  LYS75      -0.1314
     60  N        -94.6070 -157.2370  517.8850 N.am   76  THR76      -0.1953
     61  CA       -94.0050 -158.1600  516.9360 C.3    76  THR76       0.1897
     62  C        -94.8410 -159.4120  516.8240 C.2    76  THR76       0.2313
     63  O        -95.1540 -159.8620  515.7280 O.2    76  THR76      -0.2863
     64  CB       -92.5730 -158.5480  517.3480 C.3    76  THR76       0.1794
     65  OG1      -91.8100 -157.3680  517.6320 O.3    76  THR76      -0.2208
     66  CG2      -91.8960 -159.3390  516.2420 C.3    76  THR76       0.0378
     67  N        -83.1310 -148.6080  522.0570 N.3   137  THR137     -0.1203
     68  CA       -83.8300 -149.2420  520.9460 C.3   137  THR137      0.1994
     69  C        -85.3380 -149.0420  521.0300 C.2   137  THR137      0.2618
     70  O        -85.9450 -148.4520  520.1380 O.2   137  THR137     -0.2717
     71  CB       -83.5400 -150.7400  520.8970 C.3   137  THR137      0.1784
     72  OG1      -82.1240 -150.9480  520.8590 O.3   137  THR137     -0.2211
     73  CG2      -84.1890 -151.3700  519.6720 C.3   137  THR137      0.0376
     74  N        -85.9370 -149.5340  522.1070 N.am  138  SER138     -0.1951
     75  CA       -87.3740 -149.4160  522.2950 C.3   138  SER138      0.1924
     76  C        -87.8070 -147.9730  522.5280 C.2   138  SER138      0.2314
     77  O        -88.9340 -147.5980  522.2080 O.2   138  SER138     -0.2863
     78  CB       -87.8170 -150.2760  523.4710 C.3   138  SER138      0.2116
     79  OG       -87.1070 -149.9210  524.6440 O.3   138  SER138     -0.2180
     80  N        -86.8020 -145.2950  521.0600 N.3   140  GLY140     -0.1225
     81  CA       -87.0220 -144.6030  519.8070 C.3   140  GLY140      0.1811
     82  C        -88.4780 -144.7210  519.3960 C.2   140  GLY140      0.2280
     83  O        -89.0880 -145.7740  519.5880 O.2   140  GLY140     -0.2866
     84  N        -91.0050 -143.3140  520.6820 N.3   142  LYS142     -0.1245
     85  CA       -91.9190 -143.1840  521.8090 C.3   142  LYS142      0.1561
     86  C        -92.5030 -141.7830  521.9190 C.2   142  LYS142      0.2260
     87  O        -93.4540 -141.5610  522.6670 O.2   142  LYS142     -0.2867
     88  CB       -91.2060 -143.5400  523.1110 C.3   142  LYS142      0.0271
     89  CG       -90.9140 -145.0160  523.2680 C.3   142  LYS142      0.0035
     90  CD       -92.2000 -145.8110  523.3820 C.3   142  LYS142      0.0206
     91  CE       -91.9290 -147.2850  523.5620 C.3   142  LYS142      0.1093
     92  NZ       -93.1950 -148.0640  523.5650 N.3   142  LYS142     -0.1314
     93  N        -81.5170 -155.3970  515.5170 N.3   356  GLY356     -0.1210
     94  CA       -82.8380 -155.0980  515.0060 C.3   356  GLY356      0.1956
     95  C        -82.7740 -154.7950  513.5220 C.2   356  GLY356      0.2612
     96  O        -81.9070 -155.3050  512.8150 O.2   356  GLY356     -0.2717
     97  N        -83.6960 -153.9660  513.0470 N.am  357  GLY357     -0.1942
     98  CA       -83.7440 -153.6050  511.6430 C.3   357  GLY357      0.2014
     99  C        -84.1940 -154.7490  510.7550 C.2   357  GLY357      0.2639
    100  O        -84.2150 -154.6200  509.5340 O.2   357  GLY357     -0.2714
    101  N        -84.5560 -155.8730  511.3650 N.am  358  GLY358     -0.1954
    102  CA       -85.0310 -157.0190  510.6170 C.3   358  GLY358      0.1869
    103  C        -83.9170 -157.9140  510.1120 C.2   358  GLY358      0.2309
    104  O        -84.1230 -158.7030  509.1900 O.2   358  GLY358     -0.2863
    105  N        -84.6570 -161.4190  511.0850 N.3   361  GLU361     -0.1245
    106  CA       -85.7980 -161.8600  510.3010 C.3   361  GLU361      0.1567
    107  C        -85.3540 -162.3930  508.9500 C.2   361  GLU361      0.2260
    108  O        -85.6610 -163.5300  508.5980 O.2   361  GLU361     -0.2867
    109  CB       -86.7940 -160.7180  510.1170 C.3   361  GLU361      0.0388
    110  CG       -87.6440 -160.4200  511.3470 C.3   361  GLU361      0.1160
    111  CD       -86.8660 -159.7610  512.4720 C.2   361  GLU361      0.3649
    112  OE1      -85.6210 -159.8310  512.4590 O.co2 361  GLU361     -0.2457
    113  OE2      -87.4980 -159.1660  513.3720 O.co2 361  GLU361     -0.2457
    114  N        -92.0990 -152.6700  508.4970 N.3   397  LEU397     -0.1245
    115  CA       -91.1360 -151.7900  509.1350 C.3   397  LEU397      0.1561
    116  C        -90.6580 -150.7380  508.1450 C.2   397  LEU397      0.2260
    117  O        -90.4980 -149.5740  508.4960 O.2   397  LEU397     -0.2867
    118  CB       -89.9600 -152.5990  509.6800 C.3   397  LEU397      0.0270
    119  CG       -88.8770 -151.8190  510.4190 C.3   397  LEU397      0.0019
    120  CD1      -89.4750 -150.9920  511.5430 C.3   397  LEU397      0.0001
    121  CD2      -87.8300 -152.7720  510.9630 C.3   397  LEU397      0.0001
    122  N        -82.1630 -152.3490  508.3500 N.3   426  LEU426     -0.1231
    123  CA       -82.6590 -151.1790  507.6490 C.3   426  LEU426      0.1693
    124  C        -82.5610 -149.9260  508.5060 C.2   426  LEU426      0.2592
    125  O        -83.2210 -149.8230  509.5330 O.2   426  LEU426     -0.2718
    126  CB       -84.1100 -151.4130  507.2280 C.3   426  LEU426      0.0284
    127  CG       -84.6850 -150.4620  506.1820 C.3   426  LEU426      0.0019
    128  CD1      -84.0210 -150.7020  504.8450 C.3   426  LEU426      0.0001
    129  CD2      -86.1840 -150.6280  506.0640 C.3   426  LEU426      0.0001
    130  N        -81.7320 -148.9780  508.0860 N.am  427  ASN427     -0.1960
    131  CA       -81.6840 -147.6660  508.7210 C.3   427  ASN427      0.1819
    132  C        -82.8190 -146.8060  508.1910 C.2   427  ASN427      0.2621
    133  O        -82.7780 -146.3470  507.0510 O.2   427  ASN427     -0.2715
    134  CB       -80.3410 -146.9900  508.4660 C.3   427  ASN427      0.1195
    135  CG       -80.1410 -145.7560  509.3100 C.2   427  ASN427      0.2630
    136  OD1      -81.0950 -145.0760  509.6720 O.2   427  ASN427     -0.2716
    137  ND2      -78.8910 -145.4570  509.6270 N.am  427  ASN427     -0.0877
    138  N        -83.8270 -146.5800  509.0250 N.am  428  LEU428     -0.1963
    139  CA       -85.0690 -145.9670  508.5740 C.3   428  LEU428      0.1728
    140  C        -84.9320 -144.4720  508.3490 C.2   428  LEU428      0.2616
    141  O        -85.5700 -143.9080  507.4640 O.2   428  LEU428     -0.2715
    142  CB       -86.1760 -146.2310  509.5860 C.3   428  LEU428      0.0311
    143  CG       -86.3030 -147.6780  510.0580 C.3   428  LEU428      0.0022
    144  CD1      -87.6220 -147.8750  510.7540 C.3   428  LEU428      0.0001
    145  CD2      -86.1790 -148.6650  508.9180 C.3   428  LEU428      0.0001
    146  N        -84.1090 -143.8250  509.1600 N.am  429  PHE429     -0.1974
    147  CA       -83.8920 -142.3980  509.0170 C.3   429  PHE429      0.1639
    148  C        -83.0140 -142.1370  507.8020 C.2   429  PHE429      0.2290
    149  O        -83.3130 -141.2730  506.9830 O.2   429  PHE429     -0.2864
    150  CB       -83.2620 -141.8280  510.2830 C.3   429  PHE429      0.0560
    151  CG       -84.0770 -142.0690  511.5180 C.ar  429  PHE429     -0.0200
    152  CD1      -83.9640 -143.2600  512.2130 C.ar  429  PHE429     -0.0042
    153  CD2      -84.9550 -141.1090  511.9830 C.ar  429  PHE429     -0.0042
    154  CE1      -84.7110 -143.4870  513.3490 C.ar  429  PHE429     -0.0003
    155  CE2      -85.7040 -141.3300  513.1180 C.ar  429  PHE429     -0.0003
    156  CZ       -85.5820 -142.5200  513.8040 C.ar  429  PHE429     -0.0000
    157  N        -76.6860 -152.9670  511.6620 N.3   436  MET436     -0.1245
    158  CA       -77.5050 -152.4610  512.7480 C.3   436  MET436      0.1570
    159  C        -76.8330 -152.5830  514.1070 C.2   436  MET436      0.2261
    160  O        -77.3100 -152.0120  515.0850 O.2   436  MET436     -0.2867
    161  CB       -78.8420 -153.1970  512.7760 C.3   436  MET436      0.0387
    162  CG       -79.8020 -152.8040  511.6630 C.3   436  MET436      0.0595
    163  SD       -80.3010 -151.0690  511.6880 S.3   436  MET436     -0.1393
    164  CE       -79.2370 -150.3870  510.4220 C.3   436  MET436      0.0692
    165  N        -78.6570 -150.5990  517.3710 N.3   441  VAL441     -0.1245
    166  CA       -79.9740 -151.1930  517.2070 C.3   441  VAL441      0.1561
    167  C        -79.8960 -152.6440  517.6540 C.2   441  VAL441      0.2260
    168  O        -79.7880 -153.5560  516.8360 O.2   441  VAL441     -0.2867
    169  CB       -80.4620 -151.1120  515.7580 C.3   441  VAL441      0.0252
    170  CG1      -81.8870 -151.6200  515.6520 C.3   441  VAL441      0.0019
    171  CG2      -80.3640 -149.6880  515.2490 C.3   441  VAL441      0.0019
    172  N        -81.3940 -155.7780  520.3640 N.3   443  GLU443     -0.1245
    173  CA       -82.5580 -156.2540  521.1050 C.3   443  GLU443      0.1567
    174  C        -82.2850 -157.6160  521.7290 C.2   443  GLU443      0.2260
    175  O        -81.3860 -158.3270  521.3000 O.2   443  GLU443     -0.2867
    176  CB       -83.7760 -156.3290  520.1900 C.3   443  GLU443      0.0388
    177  CG       -84.2050 -154.9810  519.6530 C.3   443  GLU443      0.1160
    178  CD       -85.4070 -155.0740  518.7450 C.2   443  GLU443      0.3649
    179  OE1      -85.3550 -155.8660  517.7790 O.co2 443  GLU443     -0.2457
    180  OE2      -86.4010 -154.3600  519.0020 O.co2 443  GLU443     -0.2457
    181  N        -87.2300 -161.7840  520.7590 N.3   448  LYS448     -0.1245
    182  CA       -87.4870 -162.2600  519.4120 C.3   448  LYS448      0.1561
    183  C        -88.0250 -163.6930  519.4580 C.2   448  LYS448      0.2260
    184  O        -89.0760 -164.0000  518.8770 O.2   448  LYS448     -0.2867
    185  CB       -86.2060 -162.1830  518.5810 C.3   448  LYS448      0.0271
    186  CG       -86.4140 -161.8780  517.1030 C.3   448  LYS448      0.0035
    187  CD       -86.9800 -160.4890  516.8550 C.3   448  LYS448      0.0206
    188  CE       -86.0410 -159.3960  517.3340 C.3   448  LYS448      0.1093
    189  NZ       -86.6000 -158.0460  517.0620 N.3   448  LYS448     -0.1314
@<TRIPOS>BOND
     1   128   127    1
     2   129   127    1
     3   127   126    1
     4   149   148    2
     5   133   132    2
     6   126   123    1
     7   141   140    2
     8   123   122    1
     9   123   124    1
    10   148   147    1
    11   130   124   am
    12   130   131    1
    13   116   117    2
    14   116   115    1
    15   132   131    1
    16   132   138   am
    17   140   139    1
    18   140   146   am
    19   134   131    1
    20   134   135    1
    21   114   115    1
    22   124   125    2
    23   139   138    1
    24   139   142    1
    25   108   107    2
    26   145   143    1
    27   107   106    1
    28   147   146    1
    29   147   150    1
    30   115   118    1
    31   104   103    2
    32   135   137   am
    33   135   136    2
    34   100    99    2
    35   142   143    1
    36   118   119    1
    37   143   144    1
    38   103   102    1
    39   109   106    1
    40   109   110    1
    41   150   151    1
    42   106   105    1
    43   119   121    1
    44   119   120    1
    45   164   163    1
    46   102   101    1
    47    99   101   am
    48    99    98    1
    49   110   111    1
    50   151   153   ar
    51   151   152   ar
    52    98    97    1
    53   157   158    1
    54   162   163    1
    55   162   161    1
    56   153   155   ar
    57   152   154   ar
    58   112   111   ar
    59   111   113   ar
    60   158   161    1
    61   158   159    1
    62    96    95    2
    63    15    17   ar
    64    15    13   ar
    65    97    95   am
    66    17    18   ar
    67   155   156   ar
    68   154   156   ar
    69    11    10    2
    70    95    94    1
    71    12    13    1
    72    12     9    1
    73    13    14   ar
    74    30    29    1
    75    30    24    1
    76   159   160    2
    77    29    28    1
    78    10     9    1
    79    10    20   am
    80     1     2    1
    81    21    20    1
    82    21    22    1
    83    18    19    1
    84    18    16   ar
    85     8     9    1
    86     8     3   am
    87    26    27    2
    88    26    25    1
    89    24    22   am
    90    24    25    1
    91    94    93    1
    92    22    23    2
    93    14    16   ar
    94   171   169    1
    95     2     3    1
    96     2     5    1
    97    28    25    1
    98     3     4    2
    99   170   169    1
   100    63    62    2
   101   169   166    1
   102    66    64    1
   103     6     5    1
   104     5     7    1
   105    62    61    1
   106    54    53    2
   107   168   167    2
   108   187   186    1
   109   187   188    1
   110    61    64    1
   111    61    60    1
   112   189   188    1
   113   186   185    1
   114   166   165    1
   115   166   167    1
   116    64    65    1
   117    53    60   am
   118    53    52    1
   119   179   178   ar
   120    38    36   am
   121   185   182    1
   122    57    58    1
   123    57    56    1
   124    55    52    1
   125    55    56    1
   126   178   180   ar
   127   178   177    1
   128    52    51    1
   129    58    59    1
   130   184   183    2
   131    36    37    2
   132    36    35    1
   133    82    83    2
   134    82    81    1
   135   182   183    1
   136   182   181    1
   137   177   176    1
   138    73    71    1
   139    81    80    1
   140    34    33    2
   141    35    32    1
   142    70    69    2
   143   176   173    1
   144   172   173    1
   145    32    33    1
   146    32    31    1
   147    50    49    2
   148    84    85    1
   149    72    71    1
   150    71    68    1
   151    68    69    1
   152    68    67    1
   153    69    74   am
   154   173   174    1
   155   175   174    2
   156    49    48    1
   157    48    47    1
   158    85    86    1
   159    85    88    1
   160    86    87    2
   161    74    75    1
   162    77    76    2
   163    75    76    1
   164    75    78    1
   165    47    41   am
   166    88    89    1
   167    89    90    1
   168    90    91    1
   169    78    79    1
   170    91    92    1
   171    45    44   ar
   172    44    46   ar
   173    44    43    1
   174    41    40    1
   175    41    42    2
   176    43    40    1
   177    40    39    1
