@<TRIPOS>MOLECULE
tmp/4xckA01.pdb
 133 124 0 0 0
SMALL
GASTEIGER

@<TRIPOS>ATOM
      1  N         -3.7530    3.0450   -8.0490 N.3   184  ASN184     -0.1225
      2  CA        -3.8790    2.2110   -9.2350 C.3   184  ASN184      0.1785
      3  C         -4.7360    3.0000  -10.2190 C.2   184  ASN184      0.2597
      4  O         -4.9360    4.1990  -10.0310 O.2   184  ASN184     -0.2718
      5  CB        -4.4570    0.8220   -8.9110 C.3   184  ASN184      0.1169
      6  CG        -5.9240    0.8520   -8.4870 C.2   184  ASN184      0.2627
      7  OD1       -6.5800    1.8920   -8.5040 O.2   184  ASN184     -0.2716
      8  ND2       -6.4420   -0.3150   -8.1170 N.am  184  ASN184     -0.0877
      9  N         -5.2560    2.3640  -11.2540 N.am  185  GLU185     -0.1979
     10  CA        -5.9810    3.1520  -12.2410 C.3   185  GLU185      0.1602
     11  C         -7.3980    3.4890  -11.7240 C.2   185  GLU185      0.2287
     12  O         -7.8220    4.6420  -11.7930 O.2   185  GLU185     -0.2864
     13  CB        -5.9980    2.4220  -13.5930 C.3   185  GLU185      0.0415
     14  CG        -4.6240    1.8500  -13.9430 C.3   185  GLU185      0.1163
     15  CD        -4.5630    1.1560  -15.2920 C.2   185  GLU185      0.3649
     16  OE1       -4.6650    1.8470  -16.3350 O.co2 185  GLU185     -0.2457
     17  OE2       -4.3860   -0.0840  -15.3070 O.co2 185  GLU185     -0.2457
     18  N          0.0250    3.4500  -10.7600 N.3   220  THR220     -0.1218
     19  CA         0.3440    2.0840  -11.1310 C.3   220  THR220      0.1862
     20  C         -0.6460    1.6000  -12.1800 C.2   220  THR220      0.2287
     21  O         -1.8350    1.9150  -12.1130 O.2   220  THR220     -0.2866
     22  CB         0.3250    1.1490   -9.9110 C.3   220  THR220      0.1770
     23  OG1       -1.0130    1.0390   -9.4250 O.3   220  THR220     -0.2211
     24  CG2        1.2250    1.6970   -8.8040 C.3   220  THR220      0.0375
     25  N         -0.8500   -1.8210  -13.4480 N.3   222  GLY222     -0.1210
     26  CA        -0.7740   -3.2640  -13.5480 C.3   222  GLY222      0.1956
     27  C          0.4760   -3.7000  -14.2870 C.2   222  GLY222      0.2612
     28  O          1.5580   -3.2000  -14.0170 O.2   222  GLY222     -0.2717
     29  N          0.3110   -4.6180  -15.2310 N.am  223  SER223     -0.1952
     30  CA         1.4120   -5.1210  -16.0470 C.3   223  SER223      0.1924
     31  C          2.0910   -4.0300  -16.8850 C.2   223  SER223      0.2314
     32  O          3.2060   -4.2110  -17.3640 O.2   223  SER223     -0.2863
     33  CB         0.9080   -6.2330  -16.9720 C.3   223  SER223      0.2116
     34  OG        -0.0740   -5.7430  -17.8760 O.3   223  SER223     -0.2180
     35  N          3.1610   -1.3490  -15.7800 N.3   225  GLY225     -0.1210
     36  CA         4.0940   -0.6480  -14.9100 C.3   225  GLY225      0.1956
     37  C          3.4400    0.5070  -14.1800 C.2   225  GLY225      0.2611
     38  O          2.3040    0.3890  -13.7340 O.2   225  GLY225     -0.2717
     39  N          4.1570    1.6180  -14.0460 N.am  226  VAL226     -0.1979
     40  CA         3.5750    2.8210  -13.4620 C.3   226  VAL226      0.1595
     41  C          3.8150    4.0590  -14.3090 C.2   226  VAL226      0.2287
     42  O          4.6380    4.0550  -15.2060 O.2   226  VAL226     -0.2864
     43  CB         4.1230    3.1180  -12.0430 C.3   226  VAL226      0.0276
     44  CG1        4.0230    1.8940  -11.1630 C.3   226  VAL226      0.0022
     45  CG2        5.5570    3.6500  -12.1100 C.3   226  VAL226      0.0022
     46  N          7.1550   -1.7940  -15.7690 N.3   239  GLY239     -0.1210
     47  CA         7.4630   -2.8590  -14.8320 C.3   239  GLY239      0.1956
     48  C          8.1740   -4.0110  -15.5220 C.2   239  GLY239      0.2612
     49  O          8.8160   -3.8250  -16.5560 O.2   239  GLY239     -0.2717
     50  N          8.0640   -5.2020  -14.9490 N.am  240  PHE240     -0.1962
     51  CA         8.6180   -6.4050  -15.5510 C.3   240  PHE240      0.1771
     52  C          7.4740   -7.3410  -15.8810 C.2   240  PHE240      0.2619
     53  O          6.4750   -7.3500  -15.1960 O.2   240  PHE240     -0.2715
     54  CB         9.6270   -7.0730  -14.6200 C.3   240  PHE240      0.0574
     55  CG        10.7890   -6.1950  -14.2820 C.ar  240  PHE240     -0.0200
     56  CD1       10.7650   -5.3990  -13.1430 C.ar  240  PHE240     -0.0042
     57  CD2       11.9020   -6.1420  -15.1170 C.ar  240  PHE240     -0.0042
     58  CE1       11.8360   -4.5800  -12.8360 C.ar  240  PHE240     -0.0003
     59  CE2       12.9730   -5.3250  -14.8130 C.ar  240  PHE240     -0.0003
     60  CZ        12.9480   -4.5430  -13.6750 C.ar  240  PHE240     -0.0000
     61  N          7.5940   -8.1130  -16.9460 N.am  241  VAL241     -0.1963
     62  CA         6.4610   -8.9180  -17.3600 C.3   241  VAL241      0.1727
     63  C          6.5720  -10.3270  -16.8080 C.2   241  VAL241      0.2616
     64  O          7.5590  -11.0140  -17.0260 O.2   241  VAL241     -0.2715
     65  CB         6.3310   -8.9500  -18.8860 C.3   241  VAL241      0.0290
     66  CG1        5.1420   -8.1070  -19.3190 C.3   241  VAL241      0.0023
     67  CG2        7.6290   -8.4500  -19.5390 C.3   241  VAL241      0.0023
     68  N          5.5550  -10.7320  -16.0610 N.am  242  VAL242     -0.1977
     69  CA         5.4960  -12.0630  -15.4930 C.3   242  VAL242      0.1596
     70  C          4.1070  -12.6060  -15.7680 C.2   242  VAL242      0.2287
     71  O          3.1830  -11.8330  -16.0130 O.2   242  VAL242     -0.2864
     72  CB         5.7490  -12.0610  -13.9770 C.3   242  VAL242      0.0276
     73  CG1        7.0090  -11.2930  -13.6220 C.3   242  VAL242      0.0022
     74  CG2        4.5940  -11.4200  -13.2720 C.3   242  VAL242      0.0022
     75  N          0.7340  -14.0940  -14.3590 N.3   244  ALA244     -0.1245
     76  CA         0.0980  -13.7960  -13.0780 C.3   244  ALA244      0.1562
     77  C         -0.6290  -14.9950  -12.5000 C.2   244  ALA244      0.2260
     78  O         -1.6210  -15.4460  -13.0640 O.2   244  ALA244     -0.2867
     79  CB        -0.8600  -12.6270  -13.2300 C.3   244  ALA244      0.0290
     80  N         -2.7760  -11.6600   -8.2450 N.3   247  THR247     -0.1218
     81  CA        -2.2800  -10.2980   -8.2430 C.3   247  THR247      0.1862
     82  C         -2.6280   -9.5890   -6.9570 C.2   247  THR247      0.2287
     83  O         -2.2980   -8.4080   -6.7870 O.2   247  THR247     -0.2866
     84  CB        -2.8470   -9.4960   -9.4100 C.3   247  THR247      0.1770
     85  OG1       -4.2640   -9.3850   -9.2540 O.3   247  THR247     -0.2211
     86  CG2       -2.5140  -10.1660  -10.7440 C.3   247  THR247      0.0375
     87  N          0.0870   -7.0920   -5.3590 N.3   250  ALA250     -0.1231
     88  CA         1.1280   -6.6140   -6.2660 C.3   250  ALA250      0.1694
     89  C          1.4320   -5.1540   -5.9530 C.2   250  ALA250      0.2592
     90  O          2.5880   -4.7510   -5.8410 O.2   250  ALA250     -0.2718
     91  CB         0.6990   -6.7790   -7.7100 C.3   250  ALA250      0.0304
     92  N          0.3760   -4.3670   -5.7890 N.am  251  GLY251     -0.1957
     93  CA         0.5230   -2.9540   -5.5020 C.3   251  GLY251      0.1869
     94  C          1.0370   -2.7090   -4.0990 C.2   251  GLY251      0.2309
     95  O          1.7860   -1.7690   -3.8610 O.2   251  GLY251     -0.2863
     96  N          4.6010   -3.3920   -4.2910 N.3   254  PHE254     -0.1241
     97  CA         5.2180   -2.2710   -5.0010 C.3   254  PHE254      0.1605
     98  C          5.4750   -1.0990   -4.0680 C.2   254  PHE254      0.2264
     99  O          6.5850   -0.5780   -4.0020 O.2   254  PHE254     -0.2867
    100  CB         4.3400   -1.8210   -6.1790 C.3   254  PHE254      0.0534
    101  CG         4.8370   -0.5760   -6.8600 C.ar  254  PHE254     -0.0203
    102  CD1        5.8720   -0.6360   -7.7740 C.ar  254  PHE254     -0.0042
    103  CD2        4.2800    0.6570   -6.5760 C.ar  254  PHE254     -0.0042
    104  CE1        6.3440    0.5080   -8.3900 C.ar  254  PHE254     -0.0003
    105  CE2        4.7450    1.8050   -7.1990 C.ar  254  PHE254     -0.0003
    106  CZ         5.7770    1.7270   -8.1020 C.ar  254  PHE254     -0.0000
    107  N          9.1000   -2.2670   -8.9560 N.3   276  HIS276     -0.1241
    108  CA         8.5810   -3.0900  -10.0380 C.3   276  HIS276      0.1621
    109  C          9.0370   -4.5430   -9.9050 C.2   276  HIS276      0.2264
    110  O          8.2320   -5.4710   -9.9850 O.2   276  HIS276     -0.2867
    111  CB         9.0140   -2.5200  -11.3900 C.3   276  HIS276      0.0745
    112  CG         8.1330   -1.4140  -11.8920 C.ar  276  HIS276      0.0817
    113  ND1        6.7620   -1.4210  -11.7360 N.ar  276  HIS276     -0.2268
    114  CD2        8.4360   -0.2700  -12.5530 C.ar  276  HIS276      0.1154
    115  CE1        6.2570   -0.3200  -12.2660 C.ar  276  HIS276      0.1986
    116  NE2        7.2490    0.3900  -12.7720 N.ar  276  HIS276     -0.2212
    117  N          7.1910   -6.3510   -6.9990 N.3   279  ALA279     -0.1231
    118  CA         5.7920   -6.5720   -7.3100 C.3   279  ALA279      0.1694
    119  C          5.5810   -7.6430   -8.3930 C.2   279  ALA279      0.2591
    120  O          4.6670   -8.4700   -8.2940 O.2   279  ALA279     -0.2718
    121  CB         5.1520   -5.2610   -7.7190 C.3   279  ALA279      0.0304
    122  N          6.4300   -7.6290   -9.4200 N.am  280  ALA280     -0.1980
    123  CA         6.3700   -8.6290  -10.4800 C.3   280  ALA280      0.1597
    124  C          6.6290  -10.0360   -9.9370 C.2   280  ALA280      0.2287
    125  O          5.9420  -10.9930  -10.3030 O.2   280  ALA280     -0.2864
    126  CB         7.3740   -8.2940  -11.5800 C.3   280  ALA280      0.0319
    127  N          3.3230  -11.0010   -8.1130 N.3   283  VAL283     -0.1245
    128  CA         2.1180  -11.4430   -8.8260 C.3   283  VAL283      0.1561
    129  C          2.2530  -12.8820   -9.3360 C.2   283  VAL283      0.2260
    130  O          1.2590  -13.5120   -9.7070 O.2   283  VAL283     -0.2867
    131  CB         1.6980  -10.5140  -10.0140 C.3   283  VAL283      0.0252
    132  CG1        2.3190   -9.1450   -9.9260 C.3   283  VAL283      0.0019
    133  CG2        1.9660  -11.1370  -11.3350 C.3   283  VAL283      0.0019
@<TRIPOS>BOND
     1    67    65    1
     2    66    65    1
     3    65    62    1
     4    34    33    1
     5    32    31    2
     6    62    61    1
     7    62    63    1
     8    64    63    2
     9    33    30    1
    10    61    52   am
    11    31    30    1
    12    63    68   am
    13    49    48    2
    14    16    15   ar
    15    68    69    1
    16    30    29    1
    17    71    70    2
    18    52    51    1
    19    52    53    2
    20    35    36    1
    21    46    47    1
    22    70    69    1
    23    51    50    1
    24    51    54    1
    25    48    50   am
    26    48    47    1
    27    69    72    1
    28    17    15   ar
    29    15    14    1
    30    29    27   am
    31    42    41    2
    32    57    59   ar
    33    57    55   ar
    34    36    37    1
    35    59    60   ar
    36    54    55    1
    37    75    76    1
    38    41    40    1
    39    27    28    2
    40    27    26    1
    41    55    56   ar
    42    37    39   am
    43    37    38    2
    44    39    40    1
    45    72    73    1
    46    72    74    1
    47    14    13    1
    48    60    58   ar
    49    13    10    1
    50    26    25    1
    51    40    43    1
    52    79    76    1
    53    56    58   ar
    54    76    77    1
    55    78    77    2
    56   116   114   ar
    57   116   115   ar
    58   114   112   ar
    59   115   113   ar
    60    10    11    1
    61    10     9    1
    62    20    21    2
    63    20    19    1
    64    45    43    1
    65    43    44    1
    66   112   113   ar
    67   112   111    1
    68    12    11    2
    69   126   123    1
    70   111   108    1
    71   133   131    1
    72     9     3   am
    73    19    18    1
    74    19    22    1
    75    86    84    1
    76   123   124    1
    77   123   122    1
    78   125   124    2
    79     3     4    2
    80     3     2    1
    81   108   109    1
    82   108   107    1
    83   131   132    1
    84   131   128    1
    85   110   109    2
    86    22    23    1
    87    22    24    1
    88   130   129    2
    89   122   119   am
    90    84    85    1
    91    84    81    1
    92   129   128    1
    93     2     5    1
    94     2     1    1
    95     5     6    1
    96   128   127    1
    97     7     6    2
    98     6     8   am
    99   119   120    2
   100   119   118    1
   101   104   106   ar
   102   104   102   ar
   103    80    81    1
   104    81    82    1
   105   106   105   ar
   106   102   101   ar
   107   121   118    1
   108    91    88    1
   109   118   117    1
   110   105   103   ar
   111    82    83    2
   112   101   103   ar
   113   101   100    1
   114    88    89    1
   115    88    87    1
   116   100    97    1
   117    89    90    2
   118    89    92   am
   119    92    93    1
   120    93    94    1
   121    97    96    1
   122    97    98    1
   123    94    95    2
   124    98    99    2
