@<TRIPOS>MOLECULE
tmp/4xckA00.pdb
 100 88 0 0 0
SMALL
GASTEIGER

@<TRIPOS>ATOM
      1  N         -5.8330   -8.1910    7.5800 N.3    11  ASN11      -0.1240
      2  CA        -6.9930   -9.0190    7.2870 C.3    11  ASN11       0.1653
      3  C         -6.6020  -10.4710    7.2730 C.2    11  ASN11       0.2266
      4  O         -5.4790  -10.7960    6.8940 O.2    11  ASN11      -0.2867
      5  CB        -7.6230   -8.6990    5.9210 C.3    11  ASN11       0.1155
      6  CG        -8.2540   -7.3340    5.8610 C.2    11  ASN11       0.2627
      7  OD1       -8.5140   -6.7110    6.8850 O.2    11  ASN11      -0.2716
      8  ND2       -8.5180   -6.8620    4.6530 N.am   11  ASN11      -0.0877
      9  N         -7.3710  -13.4680    4.9910 N.3    13  ASP13      -0.1239
     10  CA        -7.8880  -13.5710    3.6350 C.3    13  ASP13       0.1674
     11  C         -8.5490  -14.9300    3.4520 C.2    13  ASP13       0.2266
     12  O         -7.8910  -15.9630    3.4820 O.2    13  ASP13      -0.2867
     13  CB        -6.7690  -13.3440    2.6020 C.3    13  ASP13       0.1410
     14  CG        -6.3890  -11.8760    2.4630 C.2    13  ASP13       0.3668
     15  OD1       -6.9600  -11.0510    3.1970 O.co2  13  ASP13      -0.2456
     16  OD2       -5.5110  -11.5390    1.6330 O.co2  13  ASP13      -0.2456
     17  N         -4.2890   -8.0010    3.9720 N.3    39  GLY39      -0.1210
     18  CA        -4.5760   -6.6410    4.3680 C.3    39  GLY39       0.1956
     19  C         -3.4750   -5.7820    3.8060 C.2    39  GLY39       0.2611
     20  O         -2.3020   -6.1010    3.9890 O.2    39  GLY39      -0.2717
     21  N         -3.8510   -4.7030    3.1270 N.am   40  LYS40      -0.1979
     22  CA        -2.8870   -3.8550    2.4370 C.3    40  LYS40       0.1596
     23  C         -1.8240   -3.3020    3.3900 C.2    40  LYS40       0.2287
     24  O         -0.6550   -3.1770    3.0150 O.2    40  LYS40      -0.2864
     25  CB        -3.6120   -2.7050    1.7130 C.3    40  LYS40       0.0298
     26  CG        -4.5080   -3.1920    0.5810 C.3    40  LYS40       0.0038
     27  CD        -5.4660   -2.1280    0.0670 C.3    40  LYS40       0.0206
     28  CE        -6.0450   -2.5490   -1.2720 C.3    40  LYS40       0.1093
     29  NZ        -6.6810   -3.8930   -1.2500 N.3    40  LYS40      -0.1314
     30  N          0.4650   -6.0880    4.3080 N.3    43  ASN43      -0.1240
     31  CA         1.1690   -6.4710    3.0860 C.3    43  ASN43       0.1653
     32  C          2.3420   -5.5410    2.7740 C.2    43  ASN43       0.2266
     33  O          3.4460   -6.0060    2.5210 O.2    43  ASN43      -0.2867
     34  CB         0.2060   -6.5120    1.9080 C.3    43  ASN43       0.1155
     35  CG        -0.8240   -7.6280    2.0290 C.2    43  ASN43       0.2627
     36  OD1       -0.6440   -8.5810    2.7890 O.2    43  ASN43      -0.2716
     37  ND2       -1.9100   -7.5080    1.2780 N.am   43  ASN43      -0.0877
     38  N        -10.9640  -10.6600    4.5480 N.3    95  ALA95      -0.1245
     39  CA       -11.2190  -10.4700    3.1410 C.3    95  ALA95       0.1562
     40  C        -11.7680  -11.7700    2.5850 C.2    95  ALA95       0.2260
     41  O        -11.2390  -12.8520    2.8340 O.2    95  ALA95      -0.2867
     42  CB        -9.9770  -10.0470    2.4210 C.3    95  ALA95       0.0290
     43  N        -12.0420  -13.6000   -0.7040 N.3    97  ILE97      -0.1245
     44  CA       -11.2870  -13.4380   -1.9290 C.3    97  ILE97       0.1561
     45  C        -11.5070  -14.5930   -2.8790 C.2    97  ILE97       0.2260
     46  O        -11.3810  -15.7660   -2.5070 O.2    97  ILE97      -0.2867
     47  CB        -9.7660  -13.2960   -1.6550 C.3    97  ILE97       0.0252
     48  CG1       -9.5000  -12.1670   -0.6540 C.3    97  ILE97       0.0019
     49  CG2       -8.9900  -13.0850   -2.9760 C.3    97  ILE97       0.0019
     50  CD1       -8.1000  -11.5970   -0.7140 C.3    97  ILE97       0.0001
     51  N        -12.0450   -8.9730   -4.3320 N.3   107  ILE107     -0.1245
     52  CA       -11.8310   -8.8980   -2.8990 C.3   107  ILE107      0.1561
     53  C        -12.9680   -8.1310   -2.2500 C.2   107  ILE107      0.2260
     54  O        -13.2810   -7.0060   -2.6490 O.2   107  ILE107     -0.2867
     55  CB       -10.4980   -8.2120   -2.5300 C.3   107  ILE107      0.0252
     56  CG1       -9.3240   -8.8240   -3.2950 C.3   107  ILE107      0.0019
     57  CG2      -10.2610   -8.3170   -1.0310 C.3   107  ILE107      0.0019
     58  CD1       -7.9530   -8.3170   -2.8310 C.3   107  ILE107      0.0001
     59  N        -13.7830   -6.8430    1.6000 N.3   109  ILE109     -0.1245
     60  CA       -13.2130   -6.7800    2.9380 C.3   109  ILE109      0.1561
     61  C        -14.2470   -6.4400    4.0100 C.2   109  ILE109      0.2260
     62  O        -15.2170   -5.7480    3.7580 O.2   109  ILE109     -0.2867
     63  CB       -12.0600   -5.7510    3.0300 C.3   109  ILE109      0.0252
     64  CG1      -12.5420   -4.3420    2.6900 C.3   109  ILE109      0.0019
     65  CG2      -10.8680   -6.1800    2.1730 C.3   109  ILE109      0.0019
     66  CD1      -11.5300   -3.2820    3.0730 C.3   109  ILE109      0.0001
     67  N         -7.4370    1.1290    4.2580 N.3   140  GLU140     -0.1245
     68  CA        -8.3150    0.1000    4.8180 C.3   140  GLU140      0.1567
     69  C         -8.5720    0.3050    6.2990 C.2   140  GLU140      0.2260
     70  O         -9.1030   -0.5740    6.9760 O.2   140  GLU140     -0.2867
     71  CB        -7.7310   -1.2910    4.6110 C.3   140  GLU140      0.0388
     72  CG        -7.4570   -1.6360    3.1960 C.3   140  GLU140      0.1160
     73  CD        -7.3120   -3.1170    2.9890 C.2   140  GLU140      0.3649
     74  OE1       -6.4830   -3.7480    3.6870 O.co2 140  GLU140     -0.2457
     75  OE2       -8.0170   -3.6570    2.1090 O.co2 140  GLU140     -0.2457
     76  N         -3.3240  -10.3040   -6.0690 N.3   248  THR248     -0.1203
     77  CA        -3.5190   -9.8600   -4.6900 C.3   248  THR248      0.1994
     78  C         -2.1680   -9.4630   -4.0980 C.2   248  THR248      0.2617
     79  O         -1.3190  -10.3270   -3.9410 O.2   248  THR248     -0.2717
     80  CB        -4.1380  -10.9790   -3.7950 C.3   248  THR248      0.1784
     81  OG1       -5.3940  -11.4340   -4.3290 O.3   248  THR248     -0.2211
     82  CG2       -4.3110  -10.4970   -2.3620 C.3   248  THR248      0.0376
     83  N         -1.9810   -8.1760   -3.7980 N.am  249  ALA249     -0.1979
     84  CA        -0.7850   -7.6160   -3.1280 C.3   249  ALA249      0.1597
     85  C          0.3690   -7.2690   -4.0750 C.2   249  ALA249      0.2287
     86  O          1.5110   -7.1490   -3.6380 O.2   249  ALA249     -0.2864
     87  CB        -0.2680   -8.5500   -2.0300 C.3   249  ALA249      0.0319
     88  N          0.6220   -3.5580   -3.1690 N.3   252  ASP252     -0.1239
     89  CA         1.1260   -3.4880   -1.8090 C.3   252  ASP252      0.1674
     90  C          2.6210   -3.7580   -1.7810 C.2   252  ASP252      0.2266
     91  O          3.3940   -3.0540   -1.1280 O.2   252  ASP252     -0.2867
     92  CB         0.3810   -4.4830   -0.9130 C.3   252  ASP252      0.1410
     93  CG        -1.0780   -4.1020   -0.7270 C.2   252  ASP252      0.3668
     94  OD1       -1.3570   -2.8870   -0.7330 O.co2 252  ASP252     -0.2456
     95  OD2       -1.9400   -5.0020   -0.5850 O.co2 252  ASP252     -0.2456
     96  N         -1.8870  -13.1160   -0.4170 N.3   288  ALA288     -0.1245
     97  CA        -1.3000  -11.8200   -0.0930 C.3   288  ALA288      0.1562
     98  C          0.1670  -11.8850    0.4240 C.2   288  ALA288      0.2260
     99  O          1.1030  -11.7050   -0.3480 O.2   288  ALA288     -0.2867
    100  CB        -2.1740  -11.1070    0.9120 C.3   288  ALA288      0.0290
@<TRIPOS>BOND
     1    76    77    1
     2    77    78    1
     3    77    80    1
     4    51    52    1
     5    81    80    1
     6    78    79    2
     7    78    83   am
     8    85    86    2
     9    85    84    1
    10    83    84    1
    11    80    82    1
    12    56    58    1
    13    56    55    1
    14    88    89    1
    15    84    87    1
    16    49    47    1
    17    52    55    1
    18    52    53    1
    19    45    46    2
    20    45    44    1
    21    54    53    2
    22    55    57    1
    23    44    47    1
    24    44    43    1
    25    89    90    1
    26    89    92    1
    27    90    91    2
    28    47    48    1
    29    28    29    1
    30    28    27    1
    31    92    93    1
    32    94    93   ar
    33    93    95   ar
    34    50    48    1
    35    96    97    1
    36    99    98    2
    37    97    98    1
    38    97   100    1
    39    27    26    1
    40    26    25    1
    41    37    35   am
    42    59    60    1
    43    16    14   ar
    44    25    22    1
    45    34    35    1
    46    34    31    1
    47    35    36    2
    48    75    73   ar
    49    65    63    1
    50    42    39    1
    51    22    21    1
    52    22    23    1
    53    14    13    1
    54    14    15   ar
    55    33    32    2
    56    40    41    2
    57    40    39    1
    58    13    10    1
    59    64    63    1
    60    64    66    1
    61    32    31    1
    62    60    63    1
    63    60    61    1
    64    73    72    1
    65    73    74   ar
    66    24    23    2
    67    31    30    1
    68    21    19   am
    69    39    38    1
    70    72    71    1
    71    11    12    2
    72    11    10    1
    73    10     9    1
    74    62    61    2
    75    19    20    2
    76    19    18    1
    77    17    18    1
    78    67    68    1
    79    71    68    1
    80     8     6   am
    81    68    69    1
    82     6     5    1
    83     6     7    2
    84     5     2    1
    85    69    70    2
    86     4     3    2
    87     3     2    1
    88     2     1    1
