@<TRIPOS>MOLECULE
tmp/4xcnD01.pdb
 84 85 0 0 0
SMALL
GASTEIGER

@<TRIPOS>ATOM
      1  N        -56.7310   52.5910   31.6770 N.3    27  GLY27      -0.1210
      2  CA       -56.6610   53.5590   30.5900 C.3    27  GLY27       0.1956
      3  C        -57.3430   54.9010   30.8300 C.2    27  GLY27       0.2613
      4  O        -57.6820   55.2550   31.9600 O.2    27  GLY27      -0.2717
      5  N        -57.4950   55.6860   29.7700 N.am   28  SER28      -0.1938
      6  CA       -58.2120   56.9520   29.8700 C.3    28  SER28       0.2055
      7  C        -59.6520   56.8090   29.3730 C.2    28  SER28       0.2643
      8  O        -59.9390   56.0000   28.4910 O.2    28  SER28      -0.2714
      9  CB       -57.4840   58.0580   29.1090 C.3    28  SER28       0.2130
     10  OG       -57.7950   58.0150   27.7340 O.3    28  SER28      -0.2179
     11  N        -60.5500   57.5920   29.9580 N.am   29  PHE29      -0.1959
     12  CA       -61.9770   57.5590   29.6370 C.3    29  PHE29       0.1771
     13  C        -62.4350   58.6860   28.7050 C.2    29  PHE29       0.2620
     14  O        -63.1110   58.4460   27.7040 O.2    29  PHE29      -0.2715
     15  CB       -62.8010   57.5960   30.9280 C.3    29  PHE29       0.0574
     16  CG       -64.2900   57.6360   30.7030 C.ar   29  PHE29      -0.0200
     17  CD1      -64.9740   56.5120   30.2670 C.ar   29  PHE29      -0.0042
     18  CD2      -65.0080   58.7930   30.9580 C.ar   29  PHE29      -0.0042
     19  CE1      -66.3480   56.5480   30.0720 C.ar   29  PHE29      -0.0003
     20  CE2      -66.3820   58.8340   30.7670 C.ar   29  PHE29      -0.0003
     21  CZ       -67.0520   57.7100   30.3230 C.ar   29  PHE29      -0.0000
     22  N        -62.0610   59.9120   29.0550 N.am   30  SER30      -0.1950
     23  CA       -62.6020   61.1210   28.4390 C.3    30  SER30       0.1924
     24  C        -62.4180   61.3240   26.9300 C.2    30  SER30       0.2314
     25  O        -63.3240   61.8350   26.2710 O.2    30  SER30      -0.2863
     26  CB       -61.9950   62.3360   29.1520 C.3    30  SER30       0.2116
     27  OG       -62.2630   62.3180   30.5470 O.3    30  SER30      -0.2180
     28  N        -68.1390   61.4560   33.2170 N.3    74  ARG74      -0.1245
     29  CA       -66.6980   61.4850   33.4250 C.3    74  ARG74       0.1563
     30  C        -66.3490   61.4430   34.9110 C.2    74  ARG74       0.2260
     31  O        -65.2140   61.1370   35.2750 O.2    74  ARG74      -0.2867
     32  CB       -66.0820   62.7210   32.7710 C.3    74  ARG74       0.0307
     33  CG       -66.2200   62.7660   31.2570 C.3    74  ARG74       0.0489
     34  CD       -65.6770   64.0740   30.7120 C.3    74  ARG74       0.2205
     35  NE       -64.2940   64.2920   31.1220 N.pl3  74  ARG74      -0.0865
     36  CZ       -63.7310   65.4900   31.2410 C.cat  74  ARG74       0.5346
     37  NH1      -62.4660   65.5980   31.6260 N.pl3  74  ARG74       0.1354
     38  NH2      -64.4380   66.5830   30.9820 N.pl3  74  ARG74       0.1354
     39  N        -66.4940   57.7260   35.1790 N.3    77  SER77      -0.1217
     40  CA       -66.0040   57.0170   33.9940 C.3    77  SER77       0.1889
     41  C        -67.0050   55.9510   33.5530 C.2    77  SER77       0.2288
     42  O        -66.6350   54.8020   33.3020 O.2    77  SER77      -0.2866
     43  CB       -64.6350   56.3780   34.2540 C.3    77  SER77       0.2089
     44  OG       -63.6580   57.3570   34.5590 O.3    77  SER77      -0.2183
     45  N        -51.1800   56.2630   24.9700 N.3   104  TRP104     -0.1227
     46  CA       -51.8460   56.2050   26.2600 C.3   104  TRP104      0.1737
     47  C        -52.3100   57.5820   26.7290 C.2   104  TRP104      0.2596
     48  O        -51.6860   58.5970   26.4210 O.2   104  TRP104     -0.2718
     49  CB       -50.9060   55.5630   27.2860 C.3   104  TRP104      0.0564
     50  CG       -51.5930   55.0180   28.4990 C.ar  104  TRP104      0.0003
     51  CD1      -52.1650   53.7850   28.6300 C.ar  104  TRP104      0.0946
     52  CD2      -51.7530   55.6720   29.7650 C.ar  104  TRP104      0.0152
     53  NE1      -52.6880   53.6380   29.8920 N.ar  104  TRP104     -0.2442
     54  CE2      -52.4470   54.7810   30.6090 C.ar  104  TRP104      0.0810
     55  CE3      -51.3840   56.9270   30.2640 C.ar  104  TRP104      0.0012
     56  CZ2      -52.7800   55.1050   31.9240 C.ar  104  TRP104      0.0191
     57  CZ3      -51.7160   57.2460   31.5710 C.ar  104  TRP104      0.0001
     58  CH2      -52.4070   56.3390   32.3850 C.ar  104  TRP104      0.0015
     59  N        -53.4040   57.5990   27.4830 N.am  105  GLY105     -0.1942
     60  CA       -53.9480   58.8210   28.0480 C.3   105  GLY105      0.2014
     61  C        -54.7720   59.6610   27.0890 C.2   105  GLY105      0.2639
     62  O        -55.5060   59.1280   26.2580 O.2   105  GLY105     -0.2714
     63  N        -54.6220   60.9790   27.1770 N.am  106  TRP106     -0.1959
     64  CA       -55.4210   61.8940   26.3670 C.3   106  TRP106      0.1771
     65  C        -54.7010   62.2410   25.0780 C.2   106  TRP106      0.2619
     66  O        -55.3140   62.7030   24.1180 O.2   106  TRP106     -0.2715
     67  CB       -55.7230   63.1910   27.1260 C.3   106  TRP106      0.0590
     68  CG       -56.7710   63.1020   28.1940 C.ar  106  TRP106      0.0006
     69  CD1      -57.3440   61.9720   28.6990 C.ar  106  TRP106      0.0946
     70  CD2      -57.3880   64.2020   28.8730 C.ar  106  TRP106      0.0152
     71  NE1      -58.2720   62.3000   29.6590 N.ar  106  TRP106     -0.2442
     72  CE2      -58.3180   63.6640   29.7840 C.ar  106  TRP106      0.0810
     73  CE3      -57.2400   65.5910   28.8020 C.ar  106  TRP106      0.0012
     74  CZ2      -59.0950   64.4640   30.6190 C.ar  106  TRP106      0.0191
     75  CZ3      -58.0130   66.3840   29.6320 C.ar  106  TRP106      0.0001
     76  CH2      -58.9280   65.8190   30.5280 C.ar  106  TRP106      0.0015
     77  N        -53.3970   61.9980   25.0610 N.am  107  LEU107     -0.1977
     78  CA       -52.5710   62.3590   23.9230 C.3   107  LEU107      0.1596
     79  C        -52.4450   61.1590   22.9980 C.2   107  LEU107      0.2287
     80  O        -51.8790   61.2520   21.9100 O.2   107  LEU107     -0.2864
     81  CB       -51.1970   62.8310   24.3960 C.3   107  LEU107      0.0297
     82  CG       -51.2030   64.1650   25.1480 C.3   107  LEU107      0.0022
     83  CD1      -49.8180   64.4930   25.6890 C.3   107  LEU107      0.0001
     84  CD2      -51.7310   65.2830   24.2710 C.3   107  LEU107      0.0001
@<TRIPOS>BOND
     1    80    79    2
     2    79    78    1
     3    78    81    1
     4    78    77    1
     5    66    65    2
     6    84    82    1
     7    81    82    1
     8    45    46    1
     9    77    65   am
    10    65    64    1
    11    82    83    1
    12    62    61    2
    13    46    47    1
    14    46    49    1
    15    25    24    2
    16    64    67    1
    17    64    63    1
    18    48    47    2
    19    47    59   am
    20    24    23    1
    21    61    63   am
    22    61    60    1
    23    67    68    1
    24    49    50    1
    25    59    60    1
    26    14    13    2
    27    10     9    1
    28    68    69   ar
    29    68    70   ar
    30    23    22    1
    31    23    26    1
    32     8     7    2
    33    50    51   ar
    34    50    52   ar
    35    51    53   ar
    36    69    71   ar
    37    13    22   am
    38    13    12    1
    39    73    70   ar
    40    73    75   ar
    41    70    72   ar
    42     9     6    1
    43    26    27    1
    44     7     6    1
    45     7    11   am
    46    75    76   ar
    47    12    11    1
    48    12    15    1
    49    71    72   ar
    50    52    55   ar
    51    52    54   ar
    52     5     6    1
    53     5     3   am
    54    72    74   ar
    55    53    54   ar
    56    19    17   ar
    57    19    21   ar
    58    55    57   ar
    59    17    16   ar
    60    21    20   ar
    61    76    74   ar
    62     2     3    1
    63     2     1    1
    64    54    56   ar
    65    16    15    1
    66    16    18   ar
    67    34    35    1
    68    34    33    1
    69    20    18   ar
    70     3     4    2
    71    38    36    1
    72    35    36    2
    73    36    37    1
    74    33    32    1
    75    57    58   ar
    76    56    58   ar
    77    32    29    1
    78    28    29    1
    79    42    41    2
    80    29    30    1
    81    41    40    1
    82    40    43    1
    83    40    39    1
    84    43    44    1
    85    30    31    2
