@<TRIPOS>MOLECULE
tmp/4xcnB01.pdb
 84 85 0 0 0
SMALL
GASTEIGER

@<TRIPOS>ATOM
      1  N        -96.5270   50.8720  -31.6250 N.3    27  GLY27      -0.1210
      2  CA       -96.6520   52.0270  -30.7500 C.3    27  GLY27       0.1956
      3  C        -96.2110   53.3780  -31.3010 C.2    27  GLY27       0.2613
      4  O        -96.0140   53.5550  -32.5060 O.2    27  GLY27      -0.2717
      5  N        -96.1080   54.3580  -30.4100 N.am   28  SER28      -0.1938
      6  CA       -95.5910   55.6710  -30.7760 C.3    28  SER28       0.2055
      7  C        -94.1120   55.7530  -30.3880 C.2    28  SER28       0.2643
      8  O        -93.6740   55.1100  -29.4340 O.2    28  SER28      -0.2714
      9  CB       -96.3920   56.7940  -30.1190 C.3    28  SER28       0.2130
     10  OG       -95.9440   57.0390  -28.8020 O.3    28  SER28      -0.2179
     11  N        -93.3460   56.5400  -31.1330 N.am   29  PHE29      -0.1959
     12  CA       -91.9060   56.6550  -30.9140 C.3    29  PHE29       0.1771
     13  C        -91.4880   57.8830  -30.1020 C.2    29  PHE29       0.2620
     14  O        -90.7410   57.7710  -29.1310 O.2    29  PHE29      -0.2715
     15  CB       -91.1680   56.6810  -32.2540 C.3    29  PHE29       0.0574
     16  CG       -89.6820   56.8430  -32.1180 C.ar   29  PHE29      -0.0200
     17  CD1      -88.8920   55.7880  -31.6930 C.ar   29  PHE29      -0.0042
     18  CD2      -89.0760   58.0550  -32.3980 C.ar   29  PHE29      -0.0042
     19  CE1      -87.5230   55.9330  -31.5660 C.ar   29  PHE29      -0.0003
     20  CE2      -87.7060   58.2070  -32.2690 C.ar   29  PHE29      -0.0003
     21  CZ       -86.9300   57.1420  -31.8540 C.ar   29  PHE29      -0.0000
     22  N        -91.9720   59.0480  -30.5180 N.am   30  SER30      -0.1950
     23  CA       -91.5090   60.3400  -30.0090 C.3    30  SER30       0.1924
     24  C        -91.6670   60.6340  -28.5130 C.2    30  SER30       0.2314
     25  O        -90.8150   61.3040  -27.9350 O.2    30  SER30      -0.2863
     26  CB       -92.2140   61.4500  -30.7900 C.3    30  SER30       0.2116
     27  OG       -91.9600   61.3360  -32.1800 O.3    30  SER30      -0.2180
     28  N        -86.4960   60.8040  -35.1510 N.3    74  ARG74      -0.1245
     29  CA       -87.9430   60.6690  -35.2760 C.3    74  ARG74       0.1563
     30  C        -88.3760   60.4280  -36.7180 C.2    74  ARG74       0.2260
     31  O        -89.4830   59.9530  -36.9630 O.2    74  ARG74      -0.2867
     32  CB       -88.6530   61.9120  -34.7310 C.3    74  ARG74       0.0307
     33  CG       -88.4580   62.1640  -33.2450 C.3    74  ARG74       0.0489
     34  CD       -89.0970   63.4850  -32.8330 C.3    74  ARG74       0.2205
     35  NE       -90.5140   63.5490  -33.1810 N.pl3  74  ARG74      -0.0865
     36  CZ       -91.1790   64.6800  -33.4030 C.cat  74  ARG74       0.5346
     37  NH1      -92.4670   64.6460  -33.7160 N.pl3  74  ARG74       0.1354
     38  NH2      -90.5530   65.8450  -33.3220 N.pl3  74  ARG74       0.1354
     39  N        -87.9090   56.7130  -36.7030 N.3    77  SER77      -0.1217
     40  CA       -88.3030   56.0760  -35.4470 C.3    77  SER77       0.1889
     41  C        -87.1860   55.1670  -34.9590 C.2    77  SER77       0.2288
     42  O        -87.4250   54.0170  -34.5930 O.2    77  SER77      -0.2866
     43  CB       -89.6030   55.2810  -35.6090 C.3    77  SER77       0.2089
     44  OG       -90.6780   56.1260  -35.9790 O.3    77  SER77      -0.2183
     45  N       -102.2400   54.3000  -25.9120 N.3   104  TRP104     -0.1227
     46  CA      -101.5130   54.3780  -27.1720 C.3   104  TRP104      0.1737
     47  C       -101.3250   55.8020  -27.6880 C.2   104  TRP104      0.2596
     48  O       -102.1260   56.6990  -27.4200 O.2   104  TRP104     -0.2718
     49  CB      -102.2090   53.5410  -28.2490 C.3   104  TRP104      0.0564
     50  CG      -101.2950   53.2050  -29.3910 C.ar  104  TRP104      0.0003
     51  CD1     -100.4380   52.1470  -29.4650 C.ar  104  TRP104      0.0946
     52  CD2     -101.1280   53.9420  -30.6130 C.ar  104  TRP104      0.0152
     53  NE1      -99.7580   52.1710  -30.6560 N.ar  104  TRP104     -0.2442
     54  CE2     -100.1560   53.2650  -31.3770 C.ar  104  TRP104      0.0810
     55  CE3     -101.7060   55.1040  -31.1340 C.ar  104  TRP104      0.0012
     56  CZ2      -99.7530   53.7080  -32.6380 C.ar  104  TRP104      0.0191
     57  CZ3     -101.3010   55.5460  -32.3850 C.ar  104  TRP104      0.0001
     58  CH2     -100.3350   54.8470  -33.1230 C.ar  104  TRP104      0.0015
     59  N       -100.2450   55.9780  -28.4380 N.am  105  GLY105     -0.1942
     60  CA       -99.8980   57.2380  -29.0630 C.3   105  GLY105      0.2014
     61  C        -99.1860   58.2230  -28.1620 C.2   105  GLY105      0.2639
     62  O        -98.3820   57.8370  -27.3130 O.2   105  GLY105     -0.2714
     63  N        -99.5260   59.4960  -28.3070 N.am  106  TRP106     -0.1959
     64  CA       -98.8160   60.5530  -27.6040 C.3   106  TRP106      0.1771
     65  C        -99.4770   60.8980  -26.2780 C.2   106  TRP106      0.2619
     66  O        -98.8730   61.5610  -25.4390 O.2   106  TRP106     -0.2715
     67  CB       -98.6850   61.7940  -28.4910 C.3   106  TRP106      0.0590
     68  CG       -97.6600   61.6240  -29.5880 C.ar  106  TRP106      0.0006
     69  CD1      -97.0430   60.4640  -29.9610 C.ar  106  TRP106      0.0946
     70  CD2      -97.1190   62.6520  -30.4310 C.ar  106  TRP106      0.0152
     71  NE1      -96.1650   60.7020  -30.9900 N.ar  106  TRP106     -0.2442
     72  CE2      -96.1910   62.0350  -31.2960 C.ar  106  TRP106      0.0810
     73  CE3      -97.3320   64.0300  -30.5390 C.ar  106  TRP106      0.0012
     74  CZ2      -95.4790   62.7510  -32.2580 C.ar  106  TRP106      0.0191
     75  CZ3      -96.6240   64.7370  -31.4950 C.ar  106  TRP106      0.0001
     76  CH2      -95.7090   64.0970  -32.3420 C.ar  106  TRP106      0.0015
     77  N       -100.6990   60.4200  -26.0720 N.am  107  LEU107     -0.1977
     78  CA      -101.4260   60.7290  -24.8480 C.3   107  LEU107      0.1596
     79  C       -101.5360   59.4390  -24.0630 C.2   107  LEU107      0.2287
     80  O       -102.2890   59.3310  -23.0960 O.2   107  LEU107     -0.2864
     81  CB      -102.8180   61.2920  -25.1440 C.3   107  LEU107      0.0297
     82  CG      -102.9580   62.7000  -25.7270 C.3   107  LEU107      0.0022
     83  CD1     -104.4140   62.9880  -26.0750 C.3   107  LEU107      0.0001
     84  CD2     -102.4270   63.7300  -24.7460 C.3   107  LEU107      0.0001
@<TRIPOS>BOND
     1    31    30    2
     2    30    29    1
     3    39    40    1
     4    44    43    1
     5    43    40    1
     6    40    41    1
     7    29    28    1
     8    29    32    1
     9    41    42    2
    10    32    33    1
    11    37    36    1
    12    36    38    1
    13    36    35    2
    14    33    34    1
    15    35    34    1
    16    58    56   ar
    17    58    57   ar
    18    56    54   ar
    19     4     3    2
    20    18    20   ar
    21    18    16   ar
    22    57    55   ar
    23    76    74   ar
    24    76    75   ar
    25    20    21   ar
    26    74    72   ar
    27    15    16    1
    28    15    12    1
    29    27    26    1
    30    16    17   ar
    31    21    19   ar
    32    17    19   ar
    33     1     2    1
    34    75    73   ar
    35    54    53   ar
    36    54    52   ar
    37     3     2    1
    38     3     5   am
    39    72    71   ar
    40    72    70   ar
    41    55    52   ar
    42    11    12    1
    43    11     7   am
    44    71    69   ar
    45    12    13    1
    46    26    23    1
    47     6     5    1
    48     6     7    1
    49     6     9    1
    50    53    51   ar
    51    52    50   ar
    52    73    70   ar
    53    22    13   am
    54    22    23    1
    55    70    68   ar
    56     7     8    2
    57     9    10    1
    58    13    14    2
    59    23    24    1
    60    69    68   ar
    61    68    67    1
    62    51    50   ar
    63    50    49    1
    64    60    59    1
    65    60    61    1
    66    24    25    2
    67    67    64    1
    68    59    47   am
    69    63    61   am
    70    63    64    1
    71    49    46    1
    72    61    62    2
    73    47    48    2
    74    47    46    1
    75    64    65    1
    76    46    45    1
    77    65    77   am
    78    65    66    2
    79    83    82    1
    80    77    78    1
    81    82    81    1
    82    82    84    1
    83    81    78    1
    84    78    79    1
    85    79    80    2
