@<TRIPOS>MOLECULE
tmp/4xcpA01.pdb
 168 156 0 0 0
SMALL
GASTEIGER

@<TRIPOS>ATOM
      1  N         25.0300   34.3560   15.5830 N.3    32  LEU32      -0.1245
      2  CA        26.1110   34.4000   14.5860 C.3    32  LEU32       0.1561
      3  C         25.5600   34.2220   13.1730 C.2    32  LEU32       0.2260
      4  O         25.9040   35.0000   12.2740 O.2    32  LEU32      -0.2867
      5  CB        27.2150   33.3640   14.8940 C.3    32  LEU32       0.0270
      6  CG        28.0660   33.6590   16.1470 C.3    32  LEU32       0.0019
      7  CD1       28.9390   32.4700   16.4970 C.3    32  LEU32       0.0001
      8  CD2       28.9350   34.9220   15.9680 C.3    32  LEU32       0.0001
      9  N         23.5000   37.3980   12.1490 N.3    35  VAL35      -0.1245
     10  CA        24.4180   38.4830   11.7850 C.3    35  VAL35       0.1561
     11  C         25.0270   38.1810   10.3930 C.2    35  VAL35       0.2260
     12  O         25.0290   39.0460    9.5320 O.2    35  VAL35      -0.2867
     13  CB        25.5010   38.7530   12.8760 C.3    35  VAL35       0.0252
     14  CG1       26.5920   39.7060   12.3600 C.3    35  VAL35       0.0019
     15  CG2       24.8580   39.3250   14.1330 C.3    35  VAL35       0.0019
     16  N         30.9290   45.9510    5.1970 N.3    42  LYS42      -0.1231
     17  CA        32.0710   46.6770    4.6260 C.3    42  LYS42       0.1693
     18  C         33.3850   45.9820    5.0000 C.2    42  LYS42       0.2592
     19  O         34.2770   45.8400    4.1690 O.2    42  LYS42      -0.2718
     20  CB        32.0710   48.1410    5.1250 C.3    42  LYS42       0.0285
     21  CG        33.2460   48.9870    4.6150 C.3    42  LYS42       0.0035
     22  CD        33.3220   50.3340    5.3210 C.3    42  LYS42       0.0206
     23  CE        34.6430   51.0370    5.0660 C.3    42  LYS42       0.1093
     24  NZ        34.7500   51.5840    3.6850 N.3    42  LYS42      -0.1314
     25  N         33.4800   45.5120    6.2480 N.am   43  ASN43      -0.1960
     26  CA        34.6880   44.8840    6.7810 C.3    43  ASN43       0.1819
     27  C         34.3120   44.0800    8.0280 C.2    43  ASN43       0.2622
     28  O         33.1440   44.0760    8.4320 O.2    43  ASN43      -0.2715
     29  CB        35.7550   45.9860    7.0940 C.3    43  ASN43       0.1195
     30  CG        35.2590   47.1880    7.8940 C.2    43  ASN43       0.2630
     31  OD1       34.4310   47.0870    8.7920 O.2    43  ASN43      -0.2716
     32  ND2       35.7970   48.3650    7.6240 N.am   43  ASN43      -0.0877
     33  N         35.2950   43.3910    8.6190 N.am   44  THR44      -0.1937
     34  CA        35.1380   42.5680    9.8230 C.3    44  THR44       0.2028
     35  C         34.6410   43.3900   11.0080 C.2    44  THR44       0.2642
     36  O         33.7200   42.9520   11.6980 O.2    44  THR44      -0.2714
     37  CB        36.4270   41.7890   10.1150 C.3    44  THR44       0.1808
     38  OG1       36.8140   41.1430    8.9070 O.3    44  THR44      -0.2208
     39  CG2       36.2420   40.7280   11.1970 C.3    44  THR44       0.0379
     40  N         35.2160   44.5850   11.2060 N.am   45  GLU45      -0.1976
     41  CA        34.8700   45.5110   12.2860 C.3    45  GLU45       0.1602
     42  C         33.3610   45.8620   12.2960 C.2    45  GLU45       0.2287
     43  O         32.7540   45.9130   13.3700 O.2    45  GLU45      -0.2864
     44  CB        35.7540   46.7720   12.2120 C.3    45  GLU45       0.0415
     45  CG        37.2330   46.5310   12.5220 C.3    45  GLU45       0.1163
     46  CD        38.1090   45.8350   11.4870 C.2    45  GLU45       0.3649
     47  OE1       37.7510   45.8260   10.2840 O.co2  45  GLU45      -0.2457
     48  OE2       39.1760   45.3120   11.8860 O.co2  45  GLU45      -0.2457
     49  N         30.9210   43.9440   10.8960 N.3    47  SER47      -0.1202
     50  CA        30.2780   42.6690   11.2070 C.3    47  SER47       0.2020
     51  C         30.2580   42.4610   12.7510 C.2    47  SER47       0.2618
     52  O         29.2340   42.0690   13.3040 O.2    47  SER47      -0.2717
     53  CB        31.0320   41.5310   10.5220 C.3    47  SER47       0.2103
     54  OG        30.3220   40.3210   10.7230 O.3    47  SER47      -0.2182
     55  N         31.3790   42.7710   13.4370 N.am   48  ILE48      -0.1979
     56  CA        31.5120   42.6730   14.9090 C.3    48  ILE48       0.1595
     57  C         30.5920   43.7070   15.6100 C.2    48  ILE48       0.2287
     58  O         29.9260   43.3800   16.5970 O.2    48  ILE48      -0.2864
     59  CB        33.0070   42.7930   15.3370 C.3    48  ILE48       0.0276
     60  CG1       33.8350   41.6270   14.7410 C.3    48  ILE48       0.0022
     61  CG2       33.1700   42.8660   16.8870 C.3    48  ILE48       0.0022
     62  CD1       35.3640   41.7620   14.9440 C.3    48  ILE48       0.0001
     63  N         27.1710   42.4000   15.4760 N.3    51  LEU51      -0.1245
     64  CA        27.1030   41.3230   16.4540 C.3    51  LEU51       0.1561
     65  C         26.9310   41.8730   17.8970 C.2    51  LEU51       0.2260
     66  O         26.0780   41.3840   18.6390 O.2    51  LEU51      -0.2867
     67  CB        28.3460   40.3960   16.3390 C.3    51  LEU51       0.0270
     68  CG        28.4350   39.2660   17.3820 C.3    51  LEU51       0.0019
     69  CD1       27.2370   38.3140   17.2930 C.3    51  LEU51       0.0001
     70  CD2       29.7160   38.5140   17.2540 C.3    51  LEU51       0.0001
     71  N         34.0710   37.7580   20.3580 N.3    62  VAL62      -0.1245
     72  CA        34.5500   37.7930   18.9730 C.3    62  VAL62       0.1561
     73  C         35.6020   38.9020   18.8120 C.2    62  VAL62       0.2260
     74  O         36.6380   38.6850   18.1820 O.2    62  VAL62      -0.2867
     75  CB        33.3720   37.9380   17.9700 C.3    62  VAL62       0.0252
     76  CG1       33.8730   38.2980   16.5570 C.3    62  VAL62       0.0019
     77  CG2       32.5200   36.6650   17.9380 C.3    62  VAL62       0.0019
     78  N         39.1430   37.9230   20.2630 N.3    65  LEU65      -0.1231
     79  CA        39.8690   37.0650   19.3180 C.3    65  LEU65       0.1693
     80  C         40.4080   37.8820   18.1440 C.2    65  LEU65       0.2592
     81  O         41.5840   37.7510   17.7970 O.2    65  LEU65      -0.2718
     82  CB        38.9570   35.9820   18.7410 C.3    65  LEU65       0.0284
     83  CG        38.6060   34.7650   19.5820 C.3    65  LEU65       0.0019
     84  CD1       37.8340   33.8080   18.7290 C.3    65  LEU65       0.0001
     85  CD2       39.8500   34.0310   20.0700 C.3    65  LEU65       0.0001
     86  N         39.5350   38.7070   17.5310 N.am   66  HIS66      -0.1976
     87  CA        39.8540   39.5320   16.3700 C.3    66  HIS66       0.1656
     88  C         40.9890   40.5100   16.6260 C.2    66  HIS66       0.2291
     89  O         41.8780   40.6030   15.7880 O.2    66  HIS66      -0.2864
     90  CB        38.6010   40.2470   15.8330 C.3    66  HIS66       0.0771
     91  CG        38.8710   41.2640   14.7610 C.ar   66  HIS66       0.0820
     92  ND1       39.0590   40.8930   13.4450 N.ar   66  HIS66      -0.2267
     93  CD2       38.9130   42.6150   14.8400 C.ar   66  HIS66       0.1154
     94  CE1       39.2380   42.0180   12.7730 C.ar   66  HIS66       0.1986
     95  NE2       39.1420   43.0790   13.5650 N.ar   66  HIS66      -0.2212
     96  N         44.3860   38.7150   16.7310 N.3    68  VAL68      -0.1231
     97  CA        44.8340   38.3290   15.3990 C.3    68  VAL68       0.1692
     98  C         45.2910   39.5760   14.6380 C.2    68  VAL68       0.2591
     99  O         46.3610   39.5540   14.0400 O.2    68  VAL68      -0.2718
    100  CB        43.7730   37.5010   14.6270 C.3    68  VAL68       0.0266
    101  CG1       44.1930   37.2860   13.1680 C.3    68  VAL68       0.0020
    102  CG2       43.5250   36.1580   15.3180 C.3    68  VAL68       0.0020
    103  N         44.4960   40.6640   14.7030 N.am   69  LYS69      -0.1980
    104  CA        44.7780   41.9480   14.0570 C.3    69  LYS69       0.1596
    105  C         46.1290   42.5240   14.5130 C.2    69  LYS69       0.2287
    106  O         46.8820   43.0030   13.6660 O.2    69  LYS69      -0.2864
    107  CB        43.6210   42.9460   14.3040 C.3    69  LYS69       0.0298
    108  CG        43.6660   44.2040   13.4620 C.3    69  LYS69       0.0038
    109  CD        42.4600   45.0880   13.7340 C.3    69  LYS69       0.0206
    110  CE        42.4490   46.3090   12.8440 C.3    69  LYS69       0.1093
    111  NZ        41.1520   47.0320   12.9090 N.3    69  LYS69      -0.1314
    112  N         49.0620   40.3320   13.0410 N.3    72  ILE72      -0.1245
    113  CA        49.2210   40.6570   11.6110 C.3    72  ILE72       0.1561
    114  C         49.9670   41.9940   11.4570 C.2    72  ILE72       0.2260
    115  O         50.8700   42.0830   10.6280 O.2    72  ILE72      -0.2867
    116  CB        47.8590   40.6660   10.8440 C.3    72  ILE72       0.0252
    117  CG1       47.0620   39.3400   10.9610 C.3    72  ILE72       0.0019
    118  CG2       47.9960   41.0750    9.3650 C.3    72  ILE72       0.0019
    119  CD1       47.7100   38.1380   10.6180 C.3    72  ILE72       0.0001
    120  N         46.9410   37.1280    5.6210 N.3    84  GLU84      -0.1245
    121  CA        45.7110   37.7110    5.0820 C.3    84  GLU84       0.1567
    122  C         45.0470   36.8140    4.0330 C.2    84  GLU84       0.2260
    123  O         43.8350   36.6450    4.0750 O.2    84  GLU84      -0.2867
    124  CB        45.9570   39.1310    4.5720 C.3    84  GLU84       0.0388
    125  CG        46.0780   40.0840    5.7490 C.3    84  GLU84       0.1160
    126  CD        46.5350   41.4940    5.4540 C.2    84  GLU84       0.3649
    127  OE1       47.0710   41.7300    4.3480 O.co2  84  GLU84      -0.2457
    128  OE2       46.3860   42.3580    6.3480 O.co2  84  GLU84      -0.2457
    129  N         43.5150   33.8320    5.9710 N.3    87  ILE87      -0.1245
    130  CA        42.2880   34.2940    6.6170 C.3    87  ILE87       0.1561
    131  C         41.1400   34.3330    5.6200 C.2    87  ILE87       0.2260
    132  O         40.0520   33.8840    5.9460 O.2    87  ILE87      -0.2867
    133  CB        42.5150   35.6270    7.3600 C.3    87  ILE87       0.0252
    134  CG1       43.2530   35.3470    8.6950 C.3    87  ILE87       0.0019
    135  CG2       41.1620   36.3690    7.6040 C.3    87  ILE87       0.0019
    136  CD1       43.9740   36.5510    9.3070 C.3    87  ILE87       0.0001
    137  N         37.7980   32.1100    5.9570 N.3    91  ARG91      -0.1245
    138  CA        36.5060   32.7920    5.9780 C.3    91  ARG91       0.1563
    139  C         35.5090   32.2030    4.9600 C.2    91  ARG91       0.2260
    140  O         34.3160   32.1560    5.2410 O.2    91  ARG91      -0.2867
    141  CB        36.6680   34.3160    5.8260 C.3    91  ARG91       0.0307
    142  CG        37.3410   34.9540    7.0530 C.3    91  ARG91       0.0489
    143  CD        36.7650   36.3010    7.4200 C.3    91  ARG91       0.2205
    144  NE        37.4630   37.4220    6.7920 N.pl3  91  ARG91      -0.0865
    145  CZ        38.1950   38.3200    7.4500 C.cat  91  ARG91       0.5346
    146  NH1       38.3800   38.2090    8.7610 N.pl3  91  ARG91       0.1354
    147  NH2       38.7700   39.3170    6.8000 N.pl3  91  ARG91       0.1354
    148  N         34.3170   29.0420    6.6210 N.3    94  LYS94      -0.1245
    149  CA        33.3860   29.4870    7.6610 C.3    94  LYS94       0.1561
    150  C         32.0210   29.8730    7.0480 C.2    94  LYS94       0.2260
    151  O         30.9930   29.4270    7.5510 O.2    94  LYS94      -0.2867
    152  CB        34.0070   30.6670    8.4140 C.3    94  LYS94       0.0271
    153  CG        33.2720   31.0370    9.6880 C.3    94  LYS94       0.0035
    154  CD        34.0240   32.0970   10.5050 C.3    94  LYS94       0.0206
    155  CE        35.2300   31.5550   11.2350 C.3    94  LYS94       0.1093
    156  NZ        34.8670   30.4580   12.1620 N.3    94  LYS94      -0.1314
    157  N         27.6360   28.5360    7.6580 N.3    98  TYR98      -0.1241
    158  CA        26.5210   29.4540    7.9210 C.3    98  TYR98       0.1605
    159  C         25.4360   29.2590    6.8970 C.2    98  TYR98       0.2264
    160  O         24.2640   29.1880    7.2550 O.2    98  TYR98      -0.2867
    161  CB        26.9850   30.9040    7.8430 C.3    98  TYR98       0.0534
    162  CG        27.7430   31.4170    9.0440 C.ar   98  TYR98      -0.0201
    163  CD1       27.2360   31.2610   10.3340 C.ar   98  TYR98      -0.0009
    164  CD2       28.9100   32.1570    8.8870 C.ar   98  TYR98      -0.0009
    165  CE1       27.9080   31.7780   11.4410 C.ar   98  TYR98       0.0417
    166  CE2       29.5730   32.7060    9.9820 C.ar   98  TYR98       0.0417
    167  CZ        29.0720   32.5100   11.2570 C.ar   98  TYR98       0.1957
    168  OH        29.7270   33.0720   12.3190 O.3    98  TYR98      -0.2866
@<TRIPOS>BOND
     1    24    23    1
     2   122   123    2
     3   122   121    1
     4    19    18    2
     5   127   126   ar
     6   124   121    1
     7   124   125    1
     8    21    20    1
     9    21    22    1
    10    17    18    1
    11    17    20    1
    12    17    16    1
    13   139   140    2
    14   139   138    1
    15    18    25   am
    16    23    22    1
    17   121   120    1
    18   126   125    1
    19   126   128   ar
    20   131   132    2
    21   131   130    1
    22   141   138    1
    23   141   142    1
    24   137   138    1
    25   129   130    1
    26    25    26    1
    27   130   133    1
    28   148   149    1
    29    26    29    1
    30    26    27    1
    31   144   143    1
    32   144   145    2
    33   147   145    1
    34   159   160    2
    35   159   158    1
    36   150   151    2
    37   150   149    1
    38   142   143    1
    39    29    30    1
    40   133   135    1
    41   133   134    1
    42   145   146    1
    43    32    30   am
    44   157   158    1
    45   149   152    1
    46   161   158    1
    47   161   162    1
    48    30    31    2
    49    27    28    2
    50    27    33   am
    51   152   153    1
    52    33    34    1
    53   134   136    1
    54   164   162   ar
    55   164   166   ar
    56    38    37    1
    57   162   163   ar
    58   118   116    1
    59    12    11    2
    60   153   154    1
    61    34    37    1
    62    34    35    1
    63   166   167   ar
    64    37    39    1
    65    47    46   ar
    66   163   165   ar
    67    11    10    1
    68   154   155    1
    69    53    54    1
    70    53    50    1
    71   119   117    1
    72   115   114    2
    73   116   117    1
    74   116   113    1
    75    49    50    1
    76    35    40   am
    77    35    36    2
    78    40    41    1
    79    50    51    1
    80   155   156    1
    81   167   165   ar
    82   167   168    1
    83   114   113    1
    84    46    48   ar
    85    46    45    1
    86   113   112    1
    87    10     9    1
    88    10    13    1
    89    44    41    1
    90    44    45    1
    91     4     3    2
    92    41    42    1
    93    42    43    2
    94    14    13    1
    95    51    52    2
    96    51    55   am
    97    94    92   ar
    98    94    95   ar
    99   110   111    1
   100   110   109    1
   101    13    15    1
   102   101   100    1
   103     3     2    1
   104    55    56    1
   105    92    91   ar
   106   108   109    1
   107   108   107    1
   108    95    93   ar
   109   106   105    2
   110    99    98    2
   111   104   107    1
   112   104   105    1
   113   104   103    1
   114     2     5    1
   115     2     1    1
   116   100   102    1
   117   100    97    1
   118    98   103   am
   119    98    97    1
   120    60    62    1
   121    60    59    1
   122    91    93   ar
   123    91    90    1
   124     5     6    1
   125    56    59    1
   126    56    57    1
   127    59    61    1
   128    97    96    1
   129    63    64    1
   130    57    58    2
   131    89    88    2
   132    90    87    1
   133     8     6    1
   134     6     7    1
   135    67    64    1
   136    67    68    1
   137    87    88    1
   138    87    86    1
   139    64    65    1
   140    76    75    1
   141    70    68    1
   142    69    68    1
   143    86    80   am
   144    81    80    2
   145    65    66    2
   146    77    75    1
   147    75    72    1
   148    80    79    1
   149    74    73    2
   150    84    83    1
   151    82    79    1
   152    82    83    1
   153    73    72    1
   154    72    71    1
   155    79    78    1
   156    83    85    1
