@<TRIPOS>MOLECULE
tmp/4xcpA00.pdb
 132 125 0 0 0
SMALL
GASTEIGER

@<TRIPOS>ATOM
      1  N         24.4770   24.4780   12.9180 N.3     1  PHE1       -0.1241
      2  CA        25.8500   24.0010   12.9040 C.3     1  PHE1        0.1605
      3  C         26.1820   23.3930   14.2790 C.2     1  PHE1        0.2264
      4  O         25.7390   23.9050   15.3130 O.2     1  PHE1       -0.2867
      5  CB        26.8010   25.1750   12.5650 C.3     1  PHE1        0.0534
      6  CG        28.1820   25.0990   13.1640 C.ar    1  PHE1       -0.0203
      7  CD1       29.1770   24.3370   12.5630 C.ar    1  PHE1       -0.0042
      8  CD2       28.4820   25.7680   14.3470 C.ar    1  PHE1       -0.0042
      9  CE1       30.4500   24.2440   13.1350 C.ar    1  PHE1       -0.0003
     10  CE2       29.7520   25.6650   14.9250 C.ar    1  PHE1       -0.0003
     11  CZ        30.7260   24.9030   14.3180 C.ar    1  PHE1       -0.0000
     12  N         32.5960   19.5860   12.1300 N.3     6  ILE6       -0.1245
     13  CA        33.9850   19.8140   11.7270 C.3     6  ILE6        0.1561
     14  C         34.7830   18.5670   12.0960 C.2     6  ILE6        0.2260
     15  O         34.8030   18.2040   13.2700 O.2     6  ILE6       -0.2867
     16  CB        34.6000   21.0780   12.3910 C.3     6  ILE6        0.0252
     17  CG1       33.6620   22.3060   12.3360 C.3     6  ILE6        0.0019
     18  CG2       35.9740   21.3880   11.7800 C.3     6  ILE6        0.0019
     19  CD1       34.0210   23.4400   13.3820 C.3     6  ILE6        0.0001
     20  N         40.6580   18.2580   11.6230 N.3    10  TYR10      -0.1241
     21  CA        40.7270   19.6300   11.1020 C.3    10  TYR10       0.1605
     22  C         40.7220   20.5730   12.3160 C.2    10  TYR10       0.2264
     23  O         41.4480   21.5550   12.3140 O.2    10  TYR10      -0.2867
     24  CB        39.5820   19.9570   10.1290 C.3    10  TYR10       0.0534
     25  CG        39.6160   21.3900    9.6200 C.ar   10  TYR10      -0.0201
     26  CD1       40.4170   21.7520    8.5390 C.ar   10  TYR10      -0.0009
     27  CD2       38.8550   22.3840   10.2290 C.ar   10  TYR10      -0.0009
     28  CE1       40.4530   23.0670    8.0730 C.ar   10  TYR10       0.0417
     29  CE2       38.8820   23.7000    9.7750 C.ar   10  TYR10       0.0417
     30  CZ        39.6700   24.0350    8.6850 C.ar   10  TYR10       0.1957
     31  OH        39.6830   25.3310    8.2470 O.3    10  TYR10      -0.2866
     32  N         40.8410   29.5750   19.0980 N.3    17  ALA17      -0.1245
     33  CA        39.8100   29.4810   18.0610 C.3    17  ALA17       0.1562
     34  C         38.9280   28.2480   18.3110 C.2    17  ALA17       0.2260
     35  O         37.7070   28.3550   18.2860 O.2    17  ALA17      -0.2867
     36  CB        40.4670   29.3970   16.6780 C.3    17  ALA17       0.0290
     37  N         36.7890   28.9000   21.3830 N.3    20  PHE20      -0.1227
     38  CA        35.7200   29.8560   21.0720 C.3    20  PHE20       0.1736
     39  C         34.5240   29.1100   20.4660 C.2    20  PHE20       0.2595
     40  O         33.3880   29.3200   20.8920 O.2    20  PHE20      -0.2718
     41  CB        36.2100   30.9480   20.0840 C.3    20  PHE20       0.0547
     42  CG        35.0660   31.8100   19.5990 C.ar   20  PHE20      -0.0202
     43  CD1       34.5960   32.8690   20.3690 C.ar   20  PHE20      -0.0042
     44  CD2       34.4130   31.5200   18.4060 C.ar   20  PHE20      -0.0042
     45  CE1       33.5050   33.6250   19.9510 C.ar   20  PHE20      -0.0003
     46  CE2       33.3300   32.2900   17.9800 C.ar   20  PHE20      -0.0003
     47  CZ        32.8760   33.3290   18.7600 C.ar   20  PHE20      -0.0000
     48  N         34.7870   28.2600   19.4470 N.am   21  LEU21      -0.1980
     49  CA        33.7450   27.4900   18.7600 C.3    21  LEU21       0.1596
     50  C         33.1020   26.4370   19.6560 C.2    21  LEU21       0.2287
     51  O         31.8820   26.2810   19.6410 O.2    21  LEU21      -0.2864
     52  CB        34.3070   26.8080   17.4850 C.3    21  LEU21       0.0297
     53  CG        34.6920   27.7190   16.2950 C.3    21  LEU21       0.0022
     54  CD1       35.3120   26.8810   15.1610 C.3    21  LEU21       0.0001
     55  CD2       33.4850   28.4810   15.7420 C.3    21  LEU21       0.0001
     56  N         30.3320   27.7240   22.1110 N.3    24  LEU24      -0.1245
     57  CA        29.0810   28.2950   21.5980 C.3    24  LEU24       0.1561
     58  C         27.8140   27.5750   22.0590 C.2    24  LEU24       0.2260
     59  O         27.6730   26.3510   21.9020 O.2    24  LEU24      -0.2867
     60  CB        29.0970   28.4180   20.0620 C.3    24  LEU24       0.0270
     61  CG        30.2070   29.3080   19.4670 C.3    24  LEU24       0.0019
     62  CD1       30.2430   29.1990   17.9190 C.3    24  LEU24       0.0001
     63  CD2       30.0730   30.7880   19.9220 C.3    24  LEU24       0.0001
     64  N         25.0300   34.3560   15.5830 N.3    32  LEU32      -0.1245
     65  CA        26.1110   34.4000   14.5860 C.3    32  LEU32       0.1561
     66  C         25.5600   34.2220   13.1730 C.2    32  LEU32       0.2260
     67  O         25.9040   35.0000   12.2740 O.2    32  LEU32      -0.2867
     68  CB        27.2150   33.3640   14.8940 C.3    32  LEU32       0.0270
     69  CG        28.0660   33.6590   16.1470 C.3    32  LEU32       0.0019
     70  CD1       28.9390   32.4700   16.4970 C.3    32  LEU32       0.0001
     71  CD2       28.9350   34.9220   15.9680 C.3    32  LEU32       0.0001
     72  N         34.0710   37.7580   20.3580 N.3    62  VAL62      -0.1245
     73  CA        34.5500   37.7930   18.9730 C.3    62  VAL62       0.1561
     74  C         35.6020   38.9020   18.8120 C.2    62  VAL62       0.2260
     75  O         36.6380   38.6850   18.1820 O.2    62  VAL62      -0.2867
     76  CB        33.3720   37.9380   17.9700 C.3    62  VAL62       0.0252
     77  CG1       33.8730   38.2980   16.5570 C.3    62  VAL62       0.0019
     78  CG2       32.5200   36.6650   17.9380 C.3    62  VAL62       0.0019
     79  N         39.1430   37.9230   20.2630 N.3    65  LEU65      -0.1245
     80  CA        39.8690   37.0650   19.3180 C.3    65  LEU65       0.1561
     81  C         40.4080   37.8820   18.1440 C.2    65  LEU65       0.2260
     82  O         41.5840   37.7510   17.7970 O.2    65  LEU65      -0.2867
     83  CB        38.9570   35.9820   18.7410 C.3    65  LEU65       0.0270
     84  CG        38.6060   34.7650   19.5820 C.3    65  LEU65       0.0019
     85  CD1       37.8340   33.8080   18.7290 C.3    65  LEU65       0.0001
     86  CD2       39.8500   34.0310   20.0700 C.3    65  LEU65       0.0001
     87  N         40.0900   30.7130    5.1010 N.3    90  ALA90      -0.1245
     88  CA        39.4000   30.2520    6.2960 C.3    90  ALA90       0.1562
     89  C         37.9820   30.8450    6.3890 C.2    90  ALA90       0.2260
     90  O         37.0640   30.1350    6.7900 O.2    90  ALA90      -0.2867
     91  CB        40.2120   30.5810    7.5450 C.3    90  ALA90       0.0290
     92  N         35.5610   29.0300    4.1080 N.3    93  ILE93      -0.1231
     93  CA        35.1890   27.7540    4.7410 C.3    93  ILE93       0.1692
     94  C         34.0970   28.0240    5.7790 C.2    93  ILE93       0.2591
     95  O         33.0750   27.3330    5.8020 O.2    93  ILE93      -0.2718
     96  CB        36.4370   27.0410    5.3500 C.3    93  ILE93       0.0266
     97  CG1       37.3540   26.4370    4.2330 C.3    93  ILE93       0.0019
     98  CG2       36.0530   26.0000    6.4360 C.3    93  ILE93       0.0020
     99  CD1       36.6570   25.3500    3.2180 C.3    93  ILE93       0.0001
    100  N         34.3170   29.0420    6.6210 N.am   94  LYS94      -0.1980
    101  CA        33.3860   29.4870    7.6610 C.3    94  LYS94       0.1596
    102  C         32.0210   29.8730    7.0480 C.2    94  LYS94       0.2287
    103  O         30.9930   29.4270    7.5510 O.2    94  LYS94      -0.2864
    104  CB        34.0070   30.6670    8.4140 C.3    94  LYS94       0.0298
    105  CG        33.2720   31.0370    9.6880 C.3    94  LYS94       0.0038
    106  CD        34.0240   32.0970   10.5050 C.3    94  LYS94       0.0206
    107  CE        35.2300   31.5550   11.2350 C.3    94  LYS94       0.1093
    108  NZ        34.8670   30.4580   12.1620 N.3    94  LYS94      -0.1314
    109  N         29.6180   27.0110    6.5530 N.3    97  TYR97      -0.1227
    110  CA        28.9590   26.4540    7.7450 C.3    97  TYR97       0.1736
    111  C         27.7120   27.2710    8.1260 C.2    97  TYR97       0.2595
    112  O         26.8520   26.7680    8.8560 O.2    97  TYR97      -0.2718
    113  CB        29.9170   26.3740    8.9480 C.3    97  TYR97       0.0548
    114  CG        30.9050   25.2290    8.8790 C.ar   97  TYR97      -0.0200
    115  CD1       30.5240   23.9300    9.2100 C.ar   97  TYR97      -0.0009
    116  CD2       32.2200   25.4400    8.4700 C.ar   97  TYR97      -0.0009
    117  CE1       31.4120   22.8610    9.0810 C.ar   97  TYR97       0.0417
    118  CE2       33.1360   24.3880    8.4060 C.ar   97  TYR97       0.0417
    119  CZ        32.7260   23.1010    8.7060 C.ar   97  TYR97       0.1957
    120  OH        33.6250   22.0700    8.6040 O.3    97  TYR97      -0.2866
    121  N         27.6360   28.5360    7.6580 N.am   98  TYR98      -0.1976
    122  CA        26.5210   29.4540    7.9210 C.3    98  TYR98       0.1639
    123  C         25.4360   29.2590    6.8970 C.2    98  TYR98       0.2290
    124  O         24.2640   29.1880    7.2550 O.2    98  TYR98      -0.2864
    125  CB        26.9850   30.9040    7.8430 C.3    98  TYR98       0.0560
    126  CG        27.7430   31.4170    9.0440 C.ar   98  TYR98      -0.0198
    127  CD1       27.2360   31.2610   10.3340 C.ar   98  TYR98      -0.0009
    128  CD2       28.9100   32.1570    8.8870 C.ar   98  TYR98      -0.0009
    129  CE1       27.9080   31.7780   11.4410 C.ar   98  TYR98       0.0417
    130  CE2       29.5730   32.7060    9.9820 C.ar   98  TYR98       0.0417
    131  CZ        29.0720   32.5100   11.2570 C.ar   98  TYR98       0.1957
    132  OH        29.7270   33.0720   12.3190 O.3    98  TYR98      -0.2866
@<TRIPOS>BOND
     1    99    97    1
     2    92    93    1
     3    97    96    1
     4    93    96    1
     5    93    94    1
     6    87    88    1
     7    96    98    1
     8    94    95    2
     9    94   100   am
    10    88    89    1
    11    88    91    1
    12    89    90    2
    13   109   110    1
    14   100   101    1
    15   123   124    2
    16   123   122    1
    17   102   103    2
    18   102   101    1
    19   121   122    1
    20   121   111   am
    21   101   104    1
    22   110   111    1
    23   110   113    1
    24   125   122    1
    25   125   126    1
    26    28    26   ar
    27    28    30   ar
    28   111   112    2
    29    31    30    1
    30   118   116   ar
    31   118   119   ar
    32   104   105    1
    33   116   114   ar
    34    26    25   ar
    35   120   119    1
    36    30    29   ar
    37   119   117   ar
    38   114   113    1
    39   114   115   ar
    40   128   126   ar
    41   128   130   ar
    42   126   127   ar
    43   117   115   ar
    44    25    24    1
    45    25    27   ar
    46   105   106    1
    47    29    27   ar
    48   130   131   ar
    49    24    21    1
    50   127   129   ar
    51   106   107    1
    52    21    20    1
    53    21    22    1
    54   107   108    1
    55   131   129   ar
    56   131   132    1
    57    13    14    1
    58    13    12    1
    59    13    16    1
    60    18    16    1
    61    14    15    2
    62    67    66    2
    63    23    22    2
    64    17    16    1
    65    17    19    1
    66     7     9   ar
    67     7     6   ar
    68     5     2    1
    69     5     6    1
    70     2     1    1
    71     2     3    1
    72     9    11   ar
    73     6     8   ar
    74    66    65    1
    75     3     4    2
    76    11    10   ar
    77     8    10   ar
    78    65    68    1
    79    65    64    1
    80    68    69    1
    81    54    53    1
    82    55    53    1
    83    71    69    1
    84    69    70    1
    85    53    52    1
    86    77    76    1
    87    36    33    1
    88    52    49    1
    89    82    81    2
    90    62    61    1
    91    78    76    1
    92    76    73    1
    93    46    44   ar
    94    46    47   ar
    95    33    34    1
    96    33    32    1
    97    81    80    1
    98    75    74    2
    99    35    34    2
   100    44    42   ar
   101    85    84    1
   102    83    80    1
   103    83    84    1
   104    47    45   ar
   105    49    48    1
   106    49    50    1
   107    74    73    1
   108    73    72    1
   109    80    79    1
   110    48    39   am
   111    61    63    1
   112    61    60    1
   113    84    86    1
   114    42    41    1
   115    42    43   ar
   116    51    50    2
   117    45    43   ar
   118    60    57    1
   119    41    38    1
   120    39    40    2
   121    39    38    1
   122    38    37    1
   123    57    58    1
   124    57    56    1
   125    59    58    2
