@<TRIPOS>MOLECULE
tmp/4xcqA00.pdb
 172 159 0 0 0
SMALL
GASTEIGER

@<TRIPOS>ATOM
      1  N         14.6190   -1.1620   10.2190 N.3    11  ILE11      -0.1231
      2  CA        14.9510   -1.8370   11.4660 C.3    11  ILE11       0.1692
      3  C         15.2080   -0.8050   12.5650 C.2    11  ILE11       0.2593
      4  O         16.0880    0.0490   12.4370 O.2    11  ILE11      -0.2718
      5  CB        16.1820   -2.7560   11.2930 C.3    11  ILE11       0.0266
      6  CG1       15.9600   -3.7360   10.1320 C.3    11  ILE11       0.0019
      7  CG2       16.4900   -3.4990   12.5820 C.3    11  ILE11       0.0020
      8  CD1       17.1160   -4.7010    9.9020 C.3    11  ILE11       0.0001
      9  N         14.4210   -0.8710   13.6350 N.am   12  GLY12      -0.1942
     10  CA        14.5510    0.0800   14.7280 C.3    12  GLY12       0.2014
     11  C         13.6370    1.2820   14.5970 C.2    12  GLY12       0.2639
     12  O         13.0040    1.4840   13.5590 O.2    12  GLY12      -0.2714
     13  N         13.5790    2.0880   15.6560 N.am   13  GLN13      -0.1963
     14  CA        12.6500    3.2120   15.7300 C.3    13  GLN13       0.1733
     15  C         12.9170    4.2660   14.6560 C.2    13  GLN13       0.2616
     16  O         12.0020    4.6820   13.9490 O.2    13  GLN13      -0.2715
     17  CB        12.7050    3.8550   17.1210 C.3    13  GLN13       0.0408
     18  CG        11.7770    5.0500   17.2900 C.3    13  GLN13       0.0908
     19  CD        11.7250    5.5740   18.7220 C.2    13  GLN13       0.2608
     20  OE1       12.4570    5.1130   19.5970 O.2    13  GLN13      -0.2717
     21  NE2       10.8560    6.5460   18.9600 N.am   13  GLN13      -0.0878
     22  N         14.1700    4.6940   14.5390 N.am   14  GLY14      -0.1955
     23  CA        14.5340    5.7250   13.5810 C.3    14  GLY14       0.1869
     24  C         14.3130    5.3270   12.1300 C.2    14  GLY14       0.2309
     25  O         13.7850    6.1060   11.3340 O.2    14  GLY14      -0.2863
     26  N         10.6910    5.3160   11.4140 N.3    17  ASN17      -0.1225
     27  CA        10.1820    6.6730   11.2140 C.3    17  ASN17       0.1785
     28  C         10.3720    7.1560    9.7770 C.2    17  ASN17       0.2597
     29  O          9.4800    7.7680    9.1800 O.2    17  ASN17      -0.2718
     30  CB        10.8710    7.6500   12.1690 C.3    17  ASN17       0.1169
     31  CG        10.5840    7.3500   13.6290 C.2    17  ASN17       0.2627
     32  OD1        9.5910    6.7000   13.9620 O.2    17  ASN17      -0.2716
     33  ND2       11.4500    7.8390   14.5110 N.am   17  ASN17      -0.0877
     34  N         11.5510    6.8810    9.2320 N.am   18  ILE18      -0.1980
     35  CA        11.8940    7.3270    7.8920 C.3    18  ILE18       0.1595
     36  C         10.9910    6.6740    6.8540 C.2    18  ILE18       0.2287
     37  O         10.3930    7.3630    6.0290 O.2    18  ILE18      -0.2864
     38  CB        13.3710    7.0360    7.5810 C.3    18  ILE18       0.0276
     39  CG1       14.2540    7.9170    8.4740 C.3    18  ILE18       0.0022
     40  CG2       13.6640    7.2620    6.1050 C.3    18  ILE18       0.0022
     41  CD1       15.7320    7.6190    8.3870 C.3    18  ILE18       0.0001
     42  N         11.3250   -4.5130   14.3320 N.3    35  ASN35      -0.1240
     43  CA        11.7200   -3.8610   15.5770 C.3    35  ASN35       0.1653
     44  C         11.6040   -4.7740   16.7950 C.2    35  ASN35       0.2266
     45  O         10.7340   -5.6420   16.8640 O.2    35  ASN35      -0.2867
     46  CB        10.8780   -2.6040   15.8050 C.3    35  ASN35       0.1155
     47  CG        11.6100   -1.5510   16.6160 C.2    35  ASN35       0.2627
     48  OD1       12.4820   -1.8680   17.4240 O.2    35  ASN35      -0.2716
     49  ND2       11.2540   -0.2880   16.4030 N.am   35  ASN35      -0.0877
     50  N          6.9130    0.7680   19.3320 N.3    40  ASP40      -0.1239
     51  CA         7.2790    1.5500   18.1520 C.3    40  ASP40       0.1674
     52  C          6.5010    1.0880   16.9250 C.2    40  ASP40       0.2266
     53  O          6.0450    1.9080   16.1290 O.2    40  ASP40      -0.2867
     54  CB         8.7830    1.4510   17.8630 C.3    40  ASP40       0.1410
     55  CG         9.6430    2.0770   18.9480 C.2    40  ASP40       0.3668
     56  OD1        9.1490    2.9410   19.7040 O.co2  40  ASP40      -0.2456
     57  OD2       10.8320    1.7040   19.0400 O.co2  40  ASP40      -0.2456
     58  N         15.8090   -1.6940   23.2760 N.3    59  CYS59      -0.1221
     59  CA        17.1170   -2.0660   23.7990 C.3    59  CYS59       0.1808
     60  C         17.9230   -0.8800   24.3080 C.2    59  CYS59       0.2602
     61  O         19.0760   -1.0430   24.6960 O.2    59  CYS59      -0.2717
     62  CB        17.9140   -2.8160   22.7300 C.3    59  CYS59       0.0970
     63  SG        17.1470   -4.3660   22.2300 S.3    59  CYS59      -0.0800
     64  N         17.3120    0.3030   24.3120 N.am   60  GLY60      -0.1942
     65  CA        17.9360    1.4960   24.8650 C.3    60  GLY60       0.2014
     66  C         19.3360    1.7480   24.3400 C.2    60  GLY60       0.2638
     67  O         20.2560    2.0030   25.1230 O.2    60  GLY60      -0.2714
     68  N         19.4840    1.6460   23.0170 N.am   61  LYS61      -0.1977
     69  CA        20.7510    1.8620   22.3110 C.3    61  LYS61       0.1596
     70  C         21.8120    0.8060   22.6240 C.2    61  LYS61       0.2287
     71  O         22.9970    1.0170   22.3660 O.2    61  LYS61      -0.2864
     72  CB        21.3070    3.2550   22.6200 C.3    61  LYS61       0.0298
     73  CG        20.4090    4.3940   22.1730 C.3    61  LYS61       0.0038
     74  CD        20.9670    5.7190   22.6530 C.3    61  LYS61       0.0206
     75  CE        20.1260    6.8920   22.2010 C.3    61  LYS61       0.1093
     76  NZ        20.7220    8.1540   22.7160 N.3    61  LYS61      -0.1314
     77  N         18.9530    3.7040   11.5870 N.3    96  THR96      -0.1218
     78  CA        19.8410    4.6350   12.2580 C.3    96  THR96       0.1862
     79  C         21.0260    3.8450   12.8010 C.2    96  THR96       0.2287
     80  O         20.9120    2.6530   13.0890 O.2    96  THR96      -0.2866
     81  CB        19.1310    5.3880   13.3890 C.3    96  THR96       0.1770
     82  OG1       18.5940    4.4490   14.3310 O.3    96  THR96      -0.2211
     83  CG2       18.0030    6.2520   12.8240 C.3    96  THR96       0.0375
     84  N         23.3170    4.9220   15.3480 N.3    98  ALA98      -0.1231
     85  CA        23.6620    5.1440   16.7520 C.3    98  ALA98       0.1694
     86  C         22.7350    4.3840   17.7050 C.2    98  ALA98       0.2593
     87  O         22.9770    4.3450   18.9120 O.2    98  ALA98      -0.2718
     88  CB        23.6340    6.6320   17.0710 C.3    98  ALA98       0.0304
     89  N         21.6810    3.7810   17.1650 N.am   99  GLY99      -0.1942
     90  CA        20.7160    3.0570   17.9730 C.3    99  GLY99       0.2014
     91  C         21.1770    1.6730   18.4000 C.2    99  GLY99       0.2639
     92  O         22.3500    1.3280   18.2610 O.2    99  GLY99      -0.2714
     93  N         20.2500    0.8770   18.9270 N.am  100  GLY100     -0.1939
     94  CA        20.5700   -0.4650   19.3790 C.3   100  GLY100      0.2014
     95  C         20.1340   -1.5510   18.4080 C.2   100  GLY100      0.2640
     96  O         20.9160   -2.4310   18.0430 O.2   100  GLY100     -0.2714
     97  N         18.8810   -1.5000   17.9800 N.am  101  THR101     -0.1936
     98  CA        18.3640   -2.5480   17.1120 C.3   101  THR101      0.2028
     99  C         18.6200   -2.2390   15.6390 C.2   101  THR101      0.2642
    100  O         18.8720   -3.1430   14.8440 O.2   101  THR101     -0.2714
    101  CB        16.8700   -2.7720   17.3580 C.3   101  THR101      0.1808
    102  OG1       16.1180   -1.7340   16.7260 O.3   101  THR101     -0.2208
    103  CG2       16.5950   -2.7560   18.8440 C.3   101  THR101      0.0379
    104  N         18.5680   -0.9620   15.2800 N.am  102  GLY102     -0.1954
    105  CA        18.9310   -0.5540   13.9380 C.3   102  GLY102      0.1869
    106  C         20.3990   -0.8310   13.6790 C.2   102  GLY102      0.2309
    107  O         20.7610   -1.4160   12.6560 O.2   102  GLY102     -0.2863
    108  N         21.8630    6.2870    8.9690 N.3   127  VAL127     -0.1245
    109  CA        21.8390    7.6390    9.5060 C.3   127  VAL127      0.1561
    110  C         22.9390    7.8440   10.5430 C.2   127  VAL127      0.2260
    111  O         22.9560    7.1920   11.5900 O.2   127  VAL127     -0.2867
    112  CB        20.4740    7.9720   10.1430 C.3   127  VAL127      0.0252
    113  CG1       20.4030    9.4460   10.4760 C.3   127  VAL127      0.0019
    114  CG2       19.3400    7.5850    9.2100 C.3   127  VAL127      0.0019
    115  N         24.7990    9.7450   13.5070 N.3   129  PRO129     -0.2116
    116  CA        24.3750   10.5490   14.6600 C.3   129  PRO129      0.1372
    117  C         24.9150   11.9720   14.6020 C.2   129  PRO129      0.2244
    118  O         25.8680   12.2230   13.8640 O.2   129  PRO129     -0.2868
    119  CB        24.9810    9.8010   15.8490 C.3   129  PRO129      0.0268
    120  CG        26.1790    9.1080   15.2710 C.3   129  PRO129      0.0207
    121  CD        25.7420    8.6820   13.8980 C.3   129  PRO129      0.0892
    122  N         26.2730   13.7790   20.1570 N.3   133  GLU133     -0.1245
    123  CA        25.8890   12.5430   20.8250 C.3   133  GLU133      0.1567
    124  C         27.1290   11.8990   21.4360 C.2   133  GLU133      0.2260
    125  O         28.2510   12.2480   21.0730 O.2   133  GLU133     -0.2867
    126  CB        25.1930   11.6000   19.8510 C.3   133  GLU133      0.0388
    127  CG        23.9980   12.2360   19.1630 C.3   133  GLU133      0.1160
    128  CD        23.1440   11.2260   18.4200 C.2   133  GLU133      0.3649
    129  OE1       23.0320   10.0800   18.9030 O.co2 133  GLU133     -0.2457
    130  OE2       22.5820   11.5790   17.3580 O.co2 133  GLU133     -0.2457
    131  N         26.9320    6.0630   21.4360 N.3   137  GLU137     -0.1245
    132  CA        26.1830    6.3420   20.2180 C.3   137  GLU137      0.1567
    133  C         27.1020    6.3630   18.9960 C.2   137  GLU137      0.2260
    134  O         26.7600    5.8390   17.9350 O.2   137  GLU137     -0.2867
    135  CB        25.4360    7.6750   20.3410 C.3   137  GLU137      0.0388
    136  CG        24.2020    7.6240   21.2230 C.3   137  GLU137      0.1160
    137  CD        24.5030    7.8670   22.6900 C.2   137  GLU137      0.3649
    138  OE1       25.6750    7.7120   23.1050 O.co2 137  GLU137     -0.2457
    139  OE2       23.5560    8.2090   23.4330 O.co2 137  GLU137     -0.2457
    140  N         22.7440   13.3460   10.4310 N.3   165  ASN165     -0.1240
    141  CA        21.9040   14.1170   11.3440 C.3   165  ASN165      0.1653
    142  C         22.5320   15.4400   11.7730 C.2   165  ASN165      0.2266
    143  O         21.8680   16.2810   12.3780 O.2   165  ASN165     -0.2867
    144  CB        21.5660   13.2770   12.5830 C.3   165  ASN165      0.1155
    145  CG        20.3630   12.3890   12.3640 C.2   165  ASN165      0.2627
    146  OD1       19.7570   12.4020   11.2870 O.2   165  ASN165     -0.2716
    147  ND2       20.0170   11.5960   13.3720 N.am  165  ASN165     -0.0877
    148  N         15.7310   15.8590   13.6020 N.3   171  GLU171     -0.1245
    149  CA        15.8280   14.5690   12.9270 C.3   171  GLU171      0.1567
    150  C         14.6280   14.3510   12.0090 C.2   171  GLU171      0.2260
    151  O         14.7270   13.6540   10.9970 O.2   171  GLU171     -0.2867
    152  CB        15.9250   13.4330   13.9480 C.3   171  GLU171      0.0388
    153  CG        17.1540   13.5010   14.8390 C.3   171  GLU171      0.1160
    154  CD        17.0980   12.5070   15.9810 C.2   171  GLU171      0.3649
    155  OE1       16.0670   11.8140   16.1200 O.co2 171  GLU171     -0.2457
    156  OE2       18.0840   12.4180   16.7430 O.co2 171  GLU171     -0.2457
    157  N         15.2900   15.6050    8.5330 N.3   174  ILE174     -0.1231
    158  CA        16.0590   14.6160    7.7910 C.3   174  ILE174      0.1692
    159  C         15.1100   13.5830    7.1970 C.2   174  ILE174      0.2592
    160  O         15.2200   13.2230    6.0260 O.2   174  ILE174     -0.2718
    161  CB        17.1040   13.9140    8.6860 C.3   174  ILE174      0.0266
    162  CG1       18.1370   14.9210    9.2010 C.3   174  ILE174      0.0019
    163  CG2       17.7920   12.7770    7.9340 C.3   174  ILE174      0.0020
    164  CD1       19.2180   15.2600    8.1960 C.3   174  ILE174      0.0001
    165  N         14.1650   13.1330    8.0150 N.am  175  ASN175     -0.1974
    166  CA        13.1560   12.1720    7.5890 C.3   175  ASN175      0.1688
    167  C         12.3140   12.6820    6.4190 C.2   175  ASN175      0.2292
    168  O         12.1630   12.0040    5.4030 O.2   175  ASN175     -0.2864
    169  CB        12.2420   11.8160    8.7660 C.3   175  ASN175      0.1181
    170  CG        12.9960   11.1920    9.9270 C.2   175  ASN175      0.2629
    171  OD1       14.2180   11.0520    9.8860 O.2   175  ASN175     -0.2716
    172  ND2       12.2670   10.8210   10.9750 N.am  175  ASN175     -0.0877
@<TRIPOS>BOND
     1   168   167    2
     2   160   159    2
     3    37    36    2
     4    40    38    1
     5   167   166    1
     6    36    35    1
     7   159   158    1
     8   159   165   am
     9    38    35    1
    10    38    39    1
    11   166   165    1
    12   166   169    1
    13   158   157    1
    14   158   161    1
    15    35    34    1
    16   163   161    1
    17   164   162    1
    18    41    39    1
    19   161   162    1
    20   169   170    1
    21   108   109    1
    22    29    28    2
    23   114   112    1
    24    34    28   am
    25   109   112    1
    26   109   110    1
    27    28    27    1
    28   171   170    2
    29     8     6    1
    30   170   172   am
    31     6     5    1
    32   112   113    1
    33     1     2    1
    34   140   141    1
    35   110   111    2
    36   151   150    2
    37    27    26    1
    38    27    30    1
    39   146   145    2
    40     5     2    1
    41     5     7    1
    42    25    24    2
    43   141   142    1
    44   141   144    1
    45     2     3    1
    46    77    78    1
    47   142   143    2
    48   150   149    1
    49    24    23    1
    50    30    31    1
    51    78    79    1
    52    78    81    1
    53   145   144    1
    54   145   147   am
    55     4     3    2
    56     3     9   am
    57   107   106    2
    58    79    80    2
    59    83    81    1
    60   149   148    1
    61   149   152    1
    62    81    82    1
    63   115   121    1
    64   115   116    1
    65    12    11    2
    66    23    22    1
    67    31    32    2
    68    31    33   am
    69     9    10    1
    70   106   105    1
    71   118   117    2
    72   121   120    1
    73   105   104    1
    74   152   153    1
    75    16    15    2
    76    42    43    1
    77    22    15   am
    78    11    10    1
    79    11    13   am
    80   117   116    1
    81    15    14    1
    82   116   119    1
    83   153   154    1
    84   100    99    2
    85   120   119    1
    86   104    99   am
    87    84    85    1
    88    43    46    1
    89    43    44    1
    90    99    98    1
    91    13    14    1
    92    14    17    1
    93    46    47    1
    94   154   155   ar
    95   154   156   ar
    96    53    52    2
    97    49    47   am
    98    47    48    2
    99   102   101    1
   100    85    88    1
   101    85    86    1
   102    44    45    2
   103    52    51    1
   104    98   101    1
   105    98    97    1
   106    17    18    1
   107    89    86   am
   108    89    90    1
   109    18    19    1
   110   130   128   ar
   111   101   103    1
   112    86    87    2
   113    54    51    1
   114    54    55    1
   115   134   133    2
   116    90    91    1
   117    97    95   am
   118    96    95    2
   119    51    50    1
   120    92    91    2
   121    91    93   am
   122    95    94    1
   123   128   129   ar
   124   128   127    1
   125    19    21   am
   126    19    20    2
   127    93    94    1
   128    55    57   ar
   129    55    56   ar
   130   133   132    1
   131   127   126    1
   132   126   123    1
   133   122   123    1
   134   132   135    1
   135   132   131    1
   136   135   136    1
   137   123   124    1
   138   125   124    2
   139   136   137    1
   140    73    72    1
   141    73    74    1
   142    75    74    1
   143    75    76    1
   144    63    62    1
   145    69    72    1
   146    69    70    1
   147    69    68    1
   148    71    70    2
   149   137   138   ar
   150   137   139   ar
   151    62    59    1
   152    68    66   am
   153    58    59    1
   154    59    60    1
   155    60    64   am
   156    60    61    2
   157    64    65    1
   158    66    65    1
   159    66    67    2
