@<TRIPOS>MOLECULE
tmp/4xcsA00.pdb
 89 84 0 0 0
SMALL
GASTEIGER

@<TRIPOS>ATOM
      1  N        -30.4290  -19.6290  -14.7570 N.3    52  THR52      -0.1218
      2  CA       -31.3650  -20.7750  -14.6600 C.3    52  THR52       0.1862
      3  C        -32.5320  -20.4790  -13.7720 C.2    52  THR52       0.2287
      4  O        -33.6190  -21.0530  -13.9750 O.2    52  THR52      -0.2866
      5  CB       -30.7330  -22.0990  -14.1760 C.3    52  THR52       0.1770
      6  OG1      -30.2570  -21.9840  -12.8330 O.3    52  THR52      -0.2211
      7  CG2      -29.6280  -22.5870  -15.1110 C.3    52  THR52       0.0375
      8  N        -37.7250  -14.6370  -20.5500 N.3    57  THR57      -0.1218
      9  CA       -38.6000  -13.7120  -21.2970 C.3    57  THR57       0.1862
     10  C        -38.5360  -12.2970  -20.7450 C.2    57  THR57       0.2287
     11  O        -38.6280  -11.3410  -21.5100 O.2    57  THR57      -0.2866
     12  CB       -40.0530  -14.2180  -21.4050 C.3    57  THR57       0.1770
     13  OG1      -40.5290  -14.4970  -20.1250 O.3    57  THR57      -0.2211
     14  CG2      -40.0950  -15.5000  -22.1050 C.3    57  THR57       0.0375
     15  N        -35.2660  -10.9420  -22.2930 N.3    60  ILE60      -0.1245
     16  CA       -35.5640  -10.8770  -23.7280 C.3    60  ILE60       0.1561
     17  C        -36.4340   -9.6890  -24.1570 C.2    60  ILE60       0.2260
     18  O        -36.0770   -8.9780  -25.1410 O.2    60  ILE60      -0.2867
     19  CB       -36.1440  -12.2050  -24.2370 C.3    60  ILE60       0.0252
     20  CG1      -35.0590  -13.3030  -24.1430 C.3    60  ILE60       0.0019
     21  CG2      -36.6190  -12.0290  -25.6910 C.3    60  ILE60       0.0019
     22  CD1      -35.6200  -14.7230  -24.1630 C.3    60  ILE60       0.0001
     23  N        -20.6000  -18.3040  -18.8960 N.3    86  SER86      -0.1217
     24  CA       -21.9410  -18.7260  -18.7090 C.3    86  SER86       0.1889
     25  C        -22.8440  -17.8110  -19.5290 C.2    86  SER86       0.2288
     26  O        -23.7080  -18.2610  -20.2740 O.2    86  SER86      -0.2866
     27  CB       -22.3280  -18.7440  -17.2120 C.3    86  SER86       0.2089
     28  OG       -23.7260  -19.0190  -17.1200 O.3    86  SER86      -0.2183
     29  N        -22.5900  -18.6420  -23.1200 N.3    89  ALA89      -0.1231
     30  CA       -23.2940  -19.8410  -23.4270 C.3    89  ALA89       0.1694
     31  C        -24.7830  -19.5860  -23.5310 C.2    89  ALA89       0.2592
     32  O        -25.4910  -20.1300  -24.4150 O.2    89  ALA89      -0.2718
     33  CB       -22.9630  -20.8860  -22.3800 C.3    89  ALA89       0.0304
     34  N        -25.3060  -18.7260  -22.6440 N.am   90  TRP90      -0.1976
     35  CA       -26.7530  -18.4670  -22.6570 C.3    90  TRP90       0.1640
     36  C        -27.1660  -17.7250  -23.9260 C.2    90  TRP90       0.2290
     37  O        -28.2220  -18.0200  -24.5200 O.2    90  TRP90      -0.2864
     38  CB       -27.1670  -17.6400  -21.4280 C.3    90  TRP90       0.0576
     39  CG       -27.5870  -18.4340  -20.2500 C.ar   90  TRP90       0.0006
     40  CD1      -26.8070  -18.8000  -19.2060 C.ar   90  TRP90       0.0946
     41  CD2      -28.9000  -18.9460  -19.9650 C.ar   90  TRP90       0.0152
     42  NE1      -27.5360  -19.5640  -18.2810 N.ar   90  TRP90      -0.2442
     43  CE2      -28.8400  -19.5980  -18.7070 C.ar   90  TRP90       0.0810
     44  CE3      -30.1200  -18.9010  -20.6380 C.ar   90  TRP90       0.0012
     45  CZ2      -29.9290  -20.2170  -18.1470 C.ar   90  TRP90       0.0191
     46  CZ3      -31.2350  -19.4380  -20.0400 C.ar   90  TRP90       0.0001
     47  CH2      -31.1390  -20.1030  -18.8150 C.ar   90  TRP90       0.0015
     48  N        -27.2710  -19.8810  -27.0070 N.3    93  THR93      -0.1218
     49  CA       -28.3430  -20.8620  -27.0200 C.3    93  THR93       0.1862
     50  C        -29.5750  -20.1260  -27.5040 C.2    93  THR93       0.2287
     51  O        -30.0350  -19.1680  -26.8650 O.2    93  THR93      -0.2866
     52  CB       -28.6370  -21.4370  -25.6180 C.3    93  THR93       0.1770
     53  OG1      -27.4220  -21.9030  -25.0010 O.3    93  THR93      -0.2211
     54  CG2      -29.6410  -22.5780  -25.6920 C.3    93  THR93       0.0375
     55  N        -33.4510  -18.9740  -28.2970 N.3    95  LYS95      -0.1231
     56  CA       -34.6070  -18.8990  -27.4240 C.3    95  LYS95       0.1693
     57  C        -35.4490  -20.1310  -27.5160 C.2    95  LYS95       0.2592
     58  O        -35.9970  -20.6120  -26.5450 O.2    95  LYS95      -0.2718
     59  CB       -35.4740  -17.7340  -27.8140 C.3    95  LYS95       0.0285
     60  CG       -34.8010  -16.4070  -27.7840 C.3    95  LYS95       0.0035
     61  CD       -35.8700  -15.3290  -27.9900 C.3    95  LYS95       0.0206
     62  CE       -36.1910  -15.1720  -29.4640 C.3    95  LYS95       0.1093
     63  NZ       -36.9360  -13.9220  -29.8340 N.3    95  LYS95      -0.1314
     64  N        -35.4910  -20.6840  -28.7080 N.am   96  LYS96      -0.1966
     65  CA       -36.3160  -21.7970  -29.0420 C.3    96  LYS96       0.1731
     66  C        -35.8520  -23.0030  -28.2720 C.2    96  LYS96       0.2616
     67  O        -36.6490  -23.9020  -27.9970 O.2    96  LYS96      -0.2715
     68  CB       -36.2590  -22.0250  -30.5790 C.3    96  LYS96       0.0358
     69  CG       -36.5540  -20.7610  -31.4710 C.3    96  LYS96       0.0298
     70  CD       -35.8150  -19.3660  -31.1820 C.2    96  LYS96      -0.0067
     71  CE       -34.2890  -19.2590  -31.3120 C.2    96  LYS96       0.1012
     72  NZ       -33.4720  -17.9490  -30.9230 N.pl3  96  LYS96      -0.1270
     73  N        -34.5710  -23.0550  -27.9270 N.am   97  GLN97      -0.1963
     74  CA       -34.0420  -24.1180  -27.1000 C.3    97  GLN97       0.1733
     75  C        -34.0540  -23.7530  -25.5860 C.2    97  GLN97       0.2617
     76  O        -33.5060  -24.4500  -24.7690 O.2    97  GLN97      -0.2715
     77  CB       -32.6160  -24.4330  -27.5660 C.3    97  GLN97       0.0408
     78  CG       -32.5100  -24.9920  -28.9840 C.3    97  GLN97       0.0908
     79  CD       -32.7940  -26.4750  -29.0160 C.2    97  GLN97       0.2608
     80  OE1      -33.9390  -26.8870  -28.9380 O.2    97  GLN97      -0.2717
     81  NE2      -31.7400  -27.2870  -29.1010 N.am   97  GLN97      -0.0878
     82  N        -34.6980  -22.6570  -25.2220 N.am   98  GLY98      -0.1940
     83  CA       -34.7390  -22.1580  -23.8410 C.3    98  GLY98       0.2014
     84  C        -33.6370  -21.1610  -23.3970 C.2    98  GLY98       0.2639
     85  O        -33.6190  -20.7110  -22.2250 O.2    98  GLY98      -0.2714
     86  N        -32.7380  -20.8060  -24.3220 N.am   99  GLY99      -0.1954
     87  CA       -31.7270  -19.7910  -24.0710 C.3    99  GLY99       0.1869
     88  C        -32.2170  -18.3670  -24.2380 C.2    99  GLY99       0.2309
     89  O        -33.3830  -18.1140  -24.4290 O.2    99  GLY99      -0.2863
@<TRIPOS>BOND
     1    69    70    1
     2    69    68    1
     3    71    70    2
     4    71    72    1
     5    68    65    1
     6    63    62    1
     7    62    61    1
     8    81    79   am
     9    65    64    1
    10    65    66    1
    11    79    78    1
    12    79    80    2
    13    78    77    1
    14    64    57   am
    15    55    56    1
    16    66    67    2
    17    66    73   am
    18    61    60    1
    19    73    74    1
    20    59    60    1
    21    59    56    1
    22    77    74    1
    23    57    56    1
    24    57    58    2
    25    50    49    1
    26    50    51    2
    27    74    75    1
    28    49    48    1
    29    49    52    1
    30    54    52    1
    31    21    19    1
    32    52    53    1
    33    75    82   am
    34    75    76    2
    35    82    83    1
    36    18    17    2
    37    37    36    2
    38    89    88    2
    39    32    31    2
    40    86    87    1
    41    86    84   am
    42    88    87    1
    43    19    20    1
    44    19    16    1
    45    22    20    1
    46    17    16    1
    47    36    35    1
    48    83    84    1
    49    16    15    1
    50    31    30    1
    51    31    34   am
    52    30    29    1
    53    30    33    1
    54    84    85    2
    55    35    34    1
    56    35    38    1
    57    14    12    1
    58    11    10    2
    59    38    39    1
    60    12     9    1
    61    12    13    1
    62     9    10    1
    63     9     8    1
    64    44    46   ar
    65    44    41   ar
    66    26    25    2
    67    39    41   ar
    68    39    40   ar
    69    46    47   ar
    70    41    43   ar
    71    25    24    1
    72    40    42   ar
    73    23    24    1
    74    47    45   ar
    75    24    27    1
    76    43    42   ar
    77    43    45   ar
    78    27    28    1
    79     7     5    1
    80     1     2    1
    81     2     5    1
    82     2     3    1
    83     5     6    1
    84     4     3    2
