@<TRIPOS>MOLECULE
tmp/4xctA00.pdb
 157 157 0 0 0
SMALL
GASTEIGER

@<TRIPOS>ATOM
      1  N          9.3850  -21.8880   17.6480 N.3    74  GLY74      -0.1210
      2  CA        10.6580  -22.5440   17.4260 C.3    74  GLY74       0.1956
      3  C         11.7220  -21.5110   17.0750 C.2    74  GLY74       0.2612
      4  O         11.8680  -20.5140   17.7820 O.2    74  GLY74      -0.2717
      5  N         12.4550  -21.7390   15.9850 N.am   75  LEU75      -0.1965
      6  CA        13.4670  -20.7910   15.5110 C.3    75  LEU75       0.1728
      7  C         12.8240  -19.4570   15.2190 C.2    75  LEU75       0.2616
      8  O         11.7750  -19.4140   14.5980 O.2    75  LEU75      -0.2715
      9  CB        14.1450  -21.3080   14.2460 C.3    75  LEU75       0.0311
     10  CG        14.8910  -22.6280   14.3730 C.3    75  LEU75       0.0022
     11  CD1       15.4660  -23.0480   13.0240 C.3    75  LEU75       0.0001
     12  CD2       15.9670  -22.4880   15.4130 C.3    75  LEU75       0.0001
     13  N         13.4680  -18.3770   15.6520 N.am   76  LEU76      -0.1963
     14  CA        12.9570  -17.0260   15.4380 C.3    76  LEU76       0.1728
     15  C         13.7280  -16.2660   14.3730 C.2    76  LEU76       0.2616
     16  O         13.1600  -15.4960   13.6030 O.2    76  LEU76      -0.2715
     17  CB        13.0190  -16.2240   16.7360 C.3    76  LEU76       0.0311
     18  CG        12.3280  -16.8330   17.9490 C.3    76  LEU76       0.0022
     19  CD1       12.5300  -15.9420   19.1600 C.3    76  LEU76       0.0001
     20  CD2       10.8640  -17.0120   17.6490 C.3    76  LEU76       0.0001
     21  N         15.0390  -16.4680   14.3580 N.am   77  ALA77      -0.1963
     22  CA        15.9250  -15.6460   13.5440 C.3    77  ALA77       0.1728
     23  C         17.3160  -16.2220   13.6230 C.2    77  ALA77       0.2616
     24  O         17.6250  -16.9660   14.5540 O.2    77  ALA77      -0.2715
     25  CB        15.9350  -14.1740   14.0200 C.3    77  ALA77       0.0334
     26  N         18.1530  -15.8740   12.6570 N.am   78  HIS78      -0.1959
     27  CA        19.5660  -16.2110   12.7690 C.3    78  HIS78       0.1787
     28  C         20.4250  -15.1850   12.0640 C.2    78  HIS78       0.2620
     29  O         19.9480  -14.4110   11.2360 O.2    78  HIS78      -0.2715
     30  CB        19.8530  -17.6490   12.2660 C.3    78  HIS78       0.0785
     31  CG        19.4810  -17.9250   10.8360 C.ar   78  HIS78       0.0821
     32  ND1       19.0130  -19.1580   10.4360 N.ar   78  HIS78      -0.2267
     33  CD2       19.5760  -17.1800    9.7070 C.ar   78  HIS78       0.1154
     34  CE1       18.7970  -19.1500    9.1330 C.ar   78  HIS78       0.1986
     35  NE2       19.1290  -17.9600    8.6650 N.ar   78  HIS78      -0.2212
     36  N         21.7020  -15.1660   12.4330 N.am   79  ALA79      -0.1977
     37  CA        22.6440  -14.2160   11.8660 C.3    79  ALA79       0.1597
     38  C         24.0250  -14.8380   11.7370 C.2    79  ALA79       0.2287
     39  O         24.4570  -15.6150   12.5840 O.2    79  ALA79      -0.2864
     40  CB        22.7180  -12.9520   12.7120 C.3    79  ALA79       0.0319
     41  N         14.0580   -6.6570   20.3470 N.3   110  LEU110     -0.1231
     42  CA        14.9210   -7.5140   21.1640 C.3   110  LEU110      0.1693
     43  C         15.5740   -8.6050   20.3300 C.2   110  LEU110      0.2591
     44  O         16.7500   -8.9130   20.4950 O.2   110  LEU110     -0.2718
     45  CB        14.1350   -8.1560   22.3050 C.3   110  LEU110      0.0284
     46  CG        13.6740   -7.2160   23.4220 C.3   110  LEU110      0.0019
     47  CD1       12.7540   -7.9380   24.3990 C.3   110  LEU110      0.0001
     48  CD2       14.8720   -6.6200   24.1520 C.3   110  LEU110      0.0001
     49  N         14.8190   -9.2030   19.4240 N.am  111  VAL111     -0.1980
     50  CA        15.3750  -10.2970   18.6370 C.3   111  VAL111      0.1595
     51  C         16.4130   -9.7270   17.6930 C.2   111  VAL111      0.2287
     52  O         17.4830  -10.3060   17.5470 O.2   111  VAL111     -0.2864
     53  CB        14.3000  -11.0920   17.8520 C.3   111  VAL111      0.0276
     54  CG1       14.9610  -12.1670   16.9850 C.3   111  VAL111      0.0022
     55  CG2       13.3480  -11.7730   18.8180 C.3   111  VAL111      0.0022
     56  N         19.6320   -9.1170   19.6620 N.3   114  HIS114     -0.1226
     57  CA        20.3270  -10.3940   19.8300 C.3   114  HIS114      0.1752
     58  C         21.0130  -10.7960   18.5320 C.2   114  HIS114      0.2595
     59  O         22.1800  -11.1960   18.5470 O.2   114  HIS114     -0.2718
     60  CB        19.3060  -11.4470   20.2780 C.3   114  HIS114      0.0759
     61  CG        19.8540  -12.8370   20.3810 C.ar  114  HIS114      0.0818
     62  ND1       20.2700  -13.3840   21.5760 N.ar  114  HIS114     -0.2268
     63  CD2       20.0280  -13.8020   19.4460 C.ar  114  HIS114      0.1154
     64  CE1       20.6940  -14.6210   21.3690 C.ar  114  HIS114      0.1986
     65  NE2       20.5560  -14.8990   20.0850 N.ar  114  HIS114     -0.2212
     66  N         20.3170  -10.7140   17.4040 N.am  115  GLU115     -0.1979
     67  CA        20.8870  -11.1570   16.1400 C.3   115  GLU115      0.1602
     68  C         22.0350  -10.2650   15.7120 C.2   115  GLU115      0.2287
     69  O         23.0360  -10.7490   15.1730 O.2   115  GLU115     -0.2864
     70  CB        19.8420  -11.1940   15.0240 C.3   115  GLU115      0.0415
     71  CG        18.7280  -12.1910   15.2170 C.3   115  GLU115      0.1163
     72  CD        19.2450  -13.5590   15.6100 C.2   115  GLU115      0.3649
     73  OE1       20.2360  -14.0180   15.0090 O.co2 115  GLU115     -0.2457
     74  OE2       18.6460  -14.1770   16.5140 O.co2 115  GLU115     -0.2457
     75  N         25.1460  -11.4700   17.2250 N.3   118  HIS118     -0.1241
     76  CA        25.7820  -12.5520   16.4690 C.3   118  HIS118      0.1621
     77  C         26.5150  -11.9770   15.2690 C.2   118  HIS118      0.2264
     78  O         27.6260  -12.4180   14.9430 O.2   118  HIS118     -0.2867
     79  CB        24.7680  -13.5840   15.9730 C.3   118  HIS118      0.0745
     80  CG        24.2040  -14.4740   17.0370 C.ar  118  HIS118      0.0817
     81  ND1       24.9840  -15.1750   17.9290 N.ar  118  HIS118     -0.2268
     82  CD2       22.9220  -14.8060   17.3200 C.ar  118  HIS118      0.1154
     83  CE1       24.2080  -15.8930   18.7240 C.ar  118  HIS118      0.1986
     84  NE2       22.9510  -15.6830   18.3770 N.ar  118  HIS118     -0.2212
     85  N         26.5360  -17.2640   22.1250 N.3   124  HIS124     -0.1241
     86  CA        25.5400  -17.2640   23.1870 C.3   124  HIS124      0.1621
     87  C         26.1710  -17.1930   24.5710 C.2   124  HIS124      0.2264
     88  O         27.1810  -17.8390   24.8480 O.2   124  HIS124     -0.2867
     89  CB        24.6480  -18.4900   23.0790 C.3   124  HIS124      0.0745
     90  CG        23.6500  -18.4030   21.9730 C.ar  124  HIS124      0.0817
     91  ND1       23.1720  -19.5110   21.3090 N.ar  124  HIS124     -0.2268
     92  CD2       23.0200  -17.3360   21.4290 C.ar  124  HIS124      0.1154
     93  CE1       22.3010  -19.1300   20.3930 C.ar  124  HIS124      0.1986
     94  NE2       22.1880  -17.8150   20.4480 N.ar  124  HIS124     -0.2212
     95  N         21.4420  -11.8210   30.2510 N.3   130  ALA130     -0.1231
     96  CA        22.1560  -11.2000   29.1430 C.3   130  ALA130      0.1694
     97  C         21.3610  -11.2850   27.8490 C.2   130  ALA130      0.2591
     98  O         20.5520  -12.1960   27.6550 O.2   130  ALA130     -0.2718
     99  CB        23.5170  -11.8370   28.9610 C.3   130  ALA130      0.0304
    100  N         21.6030  -10.3280   26.9650 N.am  131  LEU131     -0.1980
    101  CA        20.8980  -10.2720   25.6980 C.3   131  LEU131      0.1596
    102  C         21.2570  -11.4730   24.8420 C.2   131  LEU131      0.2287
    103  O         20.4180  -11.9920   24.1060 O.2   131  LEU131     -0.2864
    104  CB        21.2280   -8.9840   24.9580 C.3   131  LEU131      0.0297
    105  CG        20.6550   -8.8680   23.5480 C.3   131  LEU131      0.0022
    106  CD1       19.1340   -8.8930   23.5660 C.3   131  LEU131      0.0001
    107  CD2       21.1650   -7.5980   22.8990 C.3   131  LEU131      0.0001
    108  N         21.9060  -14.4640   25.7330 N.3   133  TYR133     -0.1228
    109  CA        21.4020  -15.7420   26.2320 C.3   133  TYR133      0.1721
    110  C         20.5030  -16.4010   25.1860 C.2   133  TYR133      0.2437
    111  O         19.6880  -15.7320   24.5660 O.2   133  TYR133     -0.2733
    112  CB        20.6340  -15.5380   27.5360 C.3   133  TYR133      0.0547
    113  CG        20.6000  -16.7550   28.4200 C.ar  133  TYR133     -0.0200
    114  CD1       21.7700  -17.2740   28.9550 C.ar  133  TYR133     -0.0009
    115  CD2       19.4020  -17.3870   28.7250 C.ar  133  TYR133     -0.0009
    116  CE1       21.7510  -18.3810   29.7690 C.ar  133  TYR133      0.0417
    117  CE2       19.3740  -18.5010   29.5420 C.ar  133  TYR133      0.0417
    118  CZ        20.5530  -18.9910   30.0590 C.ar  133  TYR133      0.1957
    119  OH        20.5460  -20.0950   30.8750 O.3   133  TYR133     -0.2866
    120  N         20.6400  -17.7200   24.9930 N.am  134  PRO134     -0.2718
    121  CA        19.9860  -18.4190   23.8770 C.3   134  PRO134      0.1535
    122  C         18.4800  -18.6780   24.0060 C.2   134  PRO134      0.2598
    123  O         17.9520  -19.5420   23.3060 O.2   134  PRO134     -0.2715
    124  CB        20.7420  -19.7500   23.8280 C.3   134  PRO134      0.0310
    125  CG        21.1940  -19.9630   25.2180 C.3   134  PRO134      0.0237
    126  CD        21.5480  -18.6070   25.7390 C.3   134  PRO134      0.0939
    127  N         17.7860  -17.9660   24.8830 N.am  135  MET135     -0.1964
    128  CA        16.3360  -18.1000   24.9000 C.3   135  MET135      0.1736
    129  C         15.6360  -16.7700   25.1120 C.2   135  MET135      0.2616
    130  O         16.0150  -15.9670   25.9650 O.2   135  MET135     -0.2715
    131  CB        15.8860  -19.1170   25.9540 C.3   135  MET135      0.0427
    132  CG        16.6460  -19.1000   27.2610 C.3   135  MET135      0.0599
    133  SD        16.6490  -20.7470   28.0010 S.3   135  MET135     -0.1393
    134  CE        14.9640  -21.2680   27.6810 C.3   135  MET135      0.0692
    135  N         14.6100  -16.5560   24.3010 N.am  136  TYR136     -0.1960
    136  CA        13.8730  -15.3100   24.2810 C.3   136  TYR136      0.1771
    137  C         12.9790  -15.1570   25.4900 C.2   136  TYR136      0.2619
    138  O         12.2120  -16.0550   25.8350 O.2   136  TYR136     -0.2715
    139  CB        13.0230  -15.2140   23.0140 C.3   136  TYR136      0.0574
    140  CG        12.1200  -13.9960   22.9550 C.ar  136  TYR136     -0.0198
    141  CD1       10.8100  -14.0440   23.4430 C.ar  136  TYR136     -0.0009
    142  CD2       12.5650  -12.8090   22.3900 C.ar  136  TYR136     -0.0009
    143  CE1        9.9840  -12.9410   23.3810 C.ar  136  TYR136      0.0417
    144  CE2       11.7340  -11.6990   22.3200 C.ar  136  TYR136      0.0417
    145  CZ        10.4480  -11.7780   22.8180 C.ar  136  TYR136      0.1957
    146  OH         9.6260  -10.6840   22.7570 O.3   136  TYR136     -0.2866
    147  N         13.0900  -14.0210   26.1610 N.am  137  ARG137     -0.1977
    148  CA        12.0900  -13.6480   27.1430 C.3   137  ARG137      0.1597
    149  C         11.8950  -12.1460   27.0520 C.2   137  ARG137      0.2287
    150  O         12.8580  -11.3790   27.0030 O.2   137  ARG137     -0.2864
    151  CB        12.4790  -14.0830   28.5610 C.3   137  ARG137      0.0334
    152  CG        13.7150  -13.4240   29.1370 C.3   137  ARG137      0.0492
    153  CD        13.4390  -12.8990   30.5400 C.3   137  ARG137      0.2205
    154  NE        14.0850  -13.6960   31.5780 N.pl3 137  ARG137     -0.0865
    155  CZ        14.8980  -13.1980   32.5040 C.cat 137  ARG137      0.5346
    156  NH1       15.1620  -11.8990   32.5300 N.pl3 137  ARG137      0.1354
    157  NH2       15.4430  -13.9970   33.4110 N.pl3 137  ARG137      0.1354
@<TRIPOS>BOND
     1    35    34   ar
     2    35    33   ar
     3    34    32   ar
     4    33    31   ar
     5    32    31   ar
     6    31    30    1
     7    29    28    2
     8    38    37    1
     9    38    39    2
    10    37    36    1
    11    37    40    1
    12    28    36   am
    13    28    27    1
    14    30    27    1
    15    26    27    1
    16    26    23   am
    17    11    10    1
    18    22    23    1
    19    22    25    1
    20    22    21    1
    21    16    15    2
    22    23    24    2
    23     9    10    1
    24     9     6    1
    25    21    15   am
    26    15    14    1
    27    10    12    1
    28     8     7    2
    29    78    77    2
    30    73    72   ar
    31    70    71    1
    32    70    67    1
    33    69    68    2
    34    71    72    1
    35     7     6    1
    36     7    13   am
    37    77    76    1
    38    14    13    1
    39    14    17    1
    40     6     5    1
    41    72    74   ar
    42    68    67    1
    43    79    76    1
    44    79    80    1
    45     5     3   am
    46    67    66    1
    47    76    75    1
    48    17    18    1
    49    54    53    1
    50    80    82   ar
    51    80    81   ar
    52     3     2    1
    53     3     4    2
    54    82    84   ar
    55    66    58   am
    56     2     1    1
    57    52    51    2
    58    20    18    1
    59    51    50    1
    60    53    50    1
    61    53    55    1
    62    81    83   ar
    63    18    19    1
    64    84    83   ar
    65    58    59    2
    66    58    57    1
    67    50    49    1
    68    49    43   am
    69    63    65   ar
    70    63    61   ar
    71    56    57    1
    72    57    60    1
    73    65    64   ar
    74    60    61    1
    75    43    44    2
    76    43    42    1
    77    41    42    1
    78    61    62   ar
    79    93    94   ar
    80    93    91   ar
    81    94    92   ar
    82    42    45    1
    83    91    90   ar
    84    64    62   ar
    85    92    90   ar
    86    90    89    1
    87    85    86    1
    88    45    46    1
    89   144   142   ar
    90   144   145   ar
    91   142   140   ar
    92   146   145    1
    93   145   143   ar
    94   107   105    1
    95   140   139    1
    96   140   141   ar
    97   139   136    1
    98    89    86    1
    99    86    87    1
   100   123   122    2
   101   143   141   ar
   102    46    48    1
   103    46    47    1
   104   105   106    1
   105   105   104    1
   106   124   121    1
   107   124   125    1
   108   121   122    1
   109   121   120    1
   110   122   127   am
   111   103   102    2
   112   136   135    1
   113   136   137    1
   114   135   129   am
   115   111   110    2
   116    87    88    2
   117   102   101    1
   118   127   128    1
   119   128   129    1
   120   128   131    1
   121   104   101    1
   122   120   110   am
   123   120   126    1
   124   129   130    2
   125   110   109    1
   126   125   126    1
   127   137   138    2
   128   137   147   am
   129   101   100    1
   130   108   109    1
   131   131   132    1
   132   147   148    1
   133   109   112    1
   134   100    97   am
   135   150   149    2
   136   149   148    1
   137   148   151    1
   138   132   133    1
   139   112   113    1
   140    98    97    2
   141   134   133    1
   142    97    96    1
   143   113   115   ar
   144   113   114   ar
   145   151   152    1
   146   115   117   ar
   147   114   116   ar
   148    99    96    1
   149   152   153    1
   150    96    95    1
   151   117   118   ar
   152   116   118   ar
   153   118   119    1
   154   153   154    1
   155   154   155    2
   156   155   156    1
   157   155   157    1
