@<TRIPOS>MOLECULE
tmp/4xcuA00.pdb
 184 169 0 0 0
SMALL
GASTEIGER

@<TRIPOS>ATOM
      1  N        -12.9090   -1.9820  -31.5760 N.3    19  LYS19      -0.1245
      2  CA       -11.6010   -2.1640  -30.9270 C.3    19  LYS19       0.1561
      3  C        -11.6550   -2.2690  -29.4020 C.2    19  LYS19       0.2260
      4  O        -12.2500   -1.4200  -28.7410 O.2    19  LYS19      -0.2867
      5  CB       -10.7030   -0.9770  -31.2980 C.3    19  LYS19       0.0271
      6  CG        -9.2340   -1.0870  -30.9180 C.3    19  LYS19       0.0035
      7  CD        -8.5790    0.2880  -30.9610 C.3    19  LYS19       0.0206
      8  CE        -7.0700    0.2010  -31.1160 C.3    19  LYS19       0.1093
      9  NZ        -6.4810    1.4350  -31.7140 N.3    19  LYS19      -0.1314
     10  N        -10.6340   -1.5130  -25.7660 N.3    21  LEU21      -0.1245
     11  CA       -10.0380   -0.3070  -25.1720 C.3    21  LEU21       0.1561
     12  C         -9.0400   -0.6610  -24.0600 C.2    21  LEU21       0.2260
     13  O         -7.8840   -0.2310  -24.0940 O.2    21  LEU21      -0.2867
     14  CB       -11.1190    0.6510  -24.6710 C.3    21  LEU21       0.0270
     15  CG       -12.0620    1.2040  -25.7460 C.3    21  LEU21       0.0019
     16  CD1      -13.0340    2.2390  -25.1880 C.3    21  LEU21       0.0001
     17  CD2      -11.2630    1.8180  -26.8790 C.3    21  LEU21       0.0001
     18  N        -13.4410   -3.7410  -21.8730 N.3    26  VAL26      -0.1245
     19  CA       -14.0980   -2.5920  -22.4960 C.3    26  VAL26       0.1561
     20  C        -13.7810   -2.5410  -23.9590 C.2    26  VAL26       0.2260
     21  O        -12.6110   -2.7130  -24.3270 O.2    26  VAL26      -0.2867
     22  CB       -13.6260   -1.2780  -21.8510 C.3    26  VAL26       0.0252
     23  CG1      -14.2280   -0.0880  -22.5580 C.3    26  VAL26       0.0019
     24  CG2      -13.9630   -1.2920  -20.3730 C.3    26  VAL26       0.0019
     25  N        -14.7230   -0.2280  -27.6440 N.3    28  ARG28      -0.1245
     26  CA       -15.3670    0.7950  -28.4370 C.3    28  ARG28       0.1563
     27  C        -16.4870    0.1730  -29.2720 C.2    28  ARG28       0.2260
     28  O        -16.3820   -0.9730  -29.7140 O.2    28  ARG28      -0.2867
     29  CB       -14.3600    1.4370  -29.4050 C.3    28  ARG28       0.0307
     30  CG       -14.7640    2.8320  -29.8400 C.3    28  ARG28       0.0489
     31  CD       -14.6170    3.0950  -31.3300 C.3    28  ARG28       0.2205
     32  NE       -13.4070    3.8260  -31.6680 N.pl3  28  ARG28      -0.0865
     33  CZ       -12.2320    3.2740  -31.9620 C.cat  28  ARG28       0.5346
     34  NH1      -12.0660    1.9570  -31.9510 N.pl3  28  ARG28       0.1354
     35  NH2      -11.2000    4.0520  -32.2640 N.pl3  28  ARG28       0.1354
     36  N        -20.4900    7.0510  -31.2960 N.3    44  THR44      -0.1218
     37  CA       -19.5060    6.1850  -30.7410 C.3    44  THR44       0.1862
     38  C        -19.6030    6.0890  -29.2370 C.2    44  THR44       0.2287
     39  O        -19.6320    7.1130  -28.5580 O.2    44  THR44      -0.2866
     40  CB       -18.1390    6.6970  -31.1390 C.3    44  THR44       0.1770
     41  OG1      -18.1750    6.9120  -32.5450 O.3    44  THR44      -0.2211
     42  CG2      -17.0500    5.6790  -30.7880 C.3    44  THR44       0.0375
     43  N        -18.6230    3.4340  -25.4840 N.3    46  ALA46      -0.1245
     44  CA       -17.7540    2.4660  -24.8570 C.3    46  ALA46       0.1562
     45  C        -18.5990    1.4410  -24.2090 C.2    46  ALA46       0.2260
     46  O        -19.5540    1.7830  -23.5180 O.2    46  ALA46      -0.2867
     47  CB       -16.8640    3.1030  -23.8540 C.3    46  ALA46       0.0290
     48  N        -18.7770   -1.8750  -21.6740 N.3    48  LYS48      -0.1245
     49  CA       -18.1700   -2.7660  -20.6790 C.3    48  LYS48       0.1561
     50  C        -18.9620   -4.0720  -20.4980 C.2    48  LYS48       0.2260
     51  O        -20.2260   -4.0870  -20.4280 O.2    48  LYS48      -0.2867
     52  CB       -17.9780   -2.0690  -19.3510 C.3    48  LYS48       0.0271
     53  CG       -17.3060   -2.9010  -18.2880 C.3    48  LYS48       0.0035
     54  CD       -17.1490   -2.1400  -16.9800 C.3    48  LYS48       0.0206
     55  CE       -15.9830   -1.1670  -17.0310 C.3    48  LYS48       0.1093
     56  NZ       -15.5370   -0.8210  -15.6490 N.3    48  LYS48      -0.1314
     57  N        -19.9630   -5.3550  -11.6910 N.3    62  LEU62      -0.1245
     58  CA       -20.3880   -4.6640  -12.9150 C.3    62  LEU62       0.1561
     59  C        -21.8390   -4.1780  -12.7220 C.2    62  LEU62       0.2260
     60  O        -22.2010   -3.0490  -13.0270 O.2    62  LEU62      -0.2867
     61  CB       -20.3180   -5.6090  -14.1080 C.3    62  LEU62       0.0270
     62  CG       -20.5670   -4.9760  -15.4940 C.3    62  LEU62       0.0019
     63  CD1      -19.6370   -3.7860  -15.7250 C.3    62  LEU62       0.0001
     64  CD2      -20.4630   -6.0070  -16.6120 C.3    62  LEU62       0.0001
     65  N        -22.0540   -1.2630  -10.2260 N.3    65  GLU65      -0.1231
     66  CA       -21.6090   -0.0430  -10.8590 C.3    65  GLU65       0.1699
     67  C        -22.6480    0.5800  -11.8060 C.2    65  GLU65       0.2592
     68  O        -22.7800    1.7920  -11.8780 O.2    65  GLU65      -0.2718
     69  CB       -20.3190   -0.3480  -11.6620 C.3    65  GLU65       0.0402
     70  CG       -19.6690    0.8560  -12.2910 C.3    65  GLU65       0.1161
     71  CD       -18.3820    0.5150  -13.0390 C.2    65  GLU65       0.3649
     72  OE1      -18.1970   -0.6530  -13.4740 O.co2  65  GLU65      -0.2457
     73  OE2      -17.5460    1.4300  -13.2240 O.co2  65  GLU65      -0.2457
     74  N        -23.3600   -0.2740  -12.5300 N.am   66  MET66      -0.1979
     75  CA       -24.4180    0.1170  -13.4400 C.3    66  MET66       0.1605
     76  C        -25.5310    0.7460  -12.6090 C.2    66  MET66       0.2287
     77  O        -26.0160    1.8070  -12.9630 O.2    66  MET66      -0.2864
     78  CB       -24.9250   -1.1110  -14.2230 C.3    66  MET66       0.0413
     79  CG       -26.4000   -1.1040  -14.6180 C.3    66  MET66       0.0598
     80  SD       -26.8540   -2.6420  -15.4460 S.3    66  MET66      -0.1393
     81  CE       -27.7540   -3.5470  -14.1920 C.3    66  MET66       0.0692
     82  N        -24.5700    4.1850  -11.3150 N.3    69  MET69      -0.1245
     83  CA       -24.6600    5.1590  -12.3990 C.3    69  MET69       0.1570
     84  C        -26.1130    5.5930  -12.6670 C.2    69  MET69       0.2261
     85  O        -26.3630    6.7940  -12.8720 O.2    69  MET69      -0.2867
     86  CB       -24.0250    4.6570  -13.6700 C.3    69  MET69       0.0387
     87  CG       -22.5170    4.6190  -13.5610 C.3    69  MET69       0.0595
     88  SD       -21.6710    3.9520  -15.0120 S.3    69  MET69      -0.1393
     89  CE       -21.5950    5.4060  -16.0410 C.3    69  MET69       0.0692
     90  N        -18.6550   10.8100  -16.9520 N.3    79  ILE79      -0.1245
     91  CA       -18.9220    9.7870  -17.9510 C.3    79  ILE79       0.1561
     92  C        -20.3340    9.2940  -17.6830 C.2    79  ILE79       0.2260
     93  O        -20.5710    8.7150  -16.6160 O.2    79  ILE79      -0.2867
     94  CB       -17.9510    8.6040  -17.8480 C.3    79  ILE79       0.0252
     95  CG1      -16.5410    9.0310  -18.2740 C.3    79  ILE79       0.0019
     96  CG2      -18.4430    7.4200  -18.6650 C.3    79  ILE79       0.0019
     97  CD1      -16.4370    9.6400  -19.6610 C.3    79  ILE79       0.0001
     98  N        -22.7830   -2.9130  -20.4130 N.3    93  VAL93      -0.1245
     99  CA       -23.0660   -1.5720  -19.8690 C.3    93  VAL93       0.1561
    100  C        -22.4570   -0.5420  -20.8420 C.2    93  VAL93       0.2260
    101  O        -21.2550   -0.5850  -21.0840 O.2    93  VAL93      -0.2867
    102  CB       -22.4200   -1.4270  -18.4870 C.3    93  VAL93       0.0252
    103  CG1      -22.7310   -0.0600  -17.9010 C.3    93  VAL93       0.0019
    104  CG2      -22.8860   -2.5530  -17.5580 C.3    93  VAL93       0.0019
    105  N        -21.4690    3.2930  -22.1610 N.3    95  VAL95      -0.1231
    106  CA       -21.2560    4.6450  -21.6410 C.3    95  VAL95       0.1692
    107  C        -20.6770    5.5670  -22.6730 C.2    95  VAL95       0.2592
    108  O        -20.2530    5.0960  -23.7020 O.2    95  VAL95      -0.2718
    109  CB       -20.3990    4.6890  -20.3430 C.3    95  VAL95       0.0266
    110  CG1      -20.9090    3.7370  -19.3120 C.3    95  VAL95       0.0020
    111  CG2      -18.9140    4.3720  -20.6470 C.3    95  VAL95       0.0020
    112  N        -20.6300    6.8640  -22.3600 N.am   96  GLU96      -0.1966
    113  CA       -20.0570    7.8420  -23.2680 C.3    96  GLU96       0.1733
    114  C        -18.5960    7.4870  -23.5240 C.2    96  GLU96       0.2616
    115  O        -17.8940    6.9870  -22.6100 O.2    96  GLU96      -0.2715
    116  CB       -20.1740    9.2660  -22.7080 C.3    96  GLU96       0.0429
    117  CG       -21.6460    9.6930  -22.5570 C.3    96  GLU96       0.1163
    118  CD       -21.8410   11.0840  -21.9600 C.2    96  GLU96       0.3649
    119  OE1      -21.0970   11.4610  -21.0090 O.co2  96  GLU96      -0.2457
    120  OE2      -22.7730   11.7900  -22.4380 O.co2  96  GLU96      -0.2457
    121  N        -18.1380    7.7760  -24.7360 N.am   97  CYS97      -0.1954
    122  CA       -16.7560    7.4880  -25.1280 C.3    97  CYS97       0.1843
    123  C        -16.0140    8.8030  -25.3900 C.2    97  CYS97       0.2625
    124  O        -16.4880    9.6530  -26.1630 O.2    97  CYS97      -0.2714
    125  CB       -16.7240    6.6180  -26.3810 C.3    97  CYS97       0.0997
    126  SG       -15.1050    5.8580  -26.7050 S.3    97  CYS97      -0.0797
    127  N        -14.8490    8.9640  -24.7530 N.am   98  ALA98      -0.1963
    128  CA       -14.1260   10.2340  -24.7690 C.3    98  ALA98       0.1728
    129  C        -12.9040   10.0150  -25.6310 C.2    98  ALA98       0.2616
    130  O        -12.0610    9.2040  -25.2980 O.2    98  ALA98      -0.2715
    131  CB       -13.7340   10.6210  -23.3550 C.3    98  ALA98       0.0334
    132  N        -12.8310   10.7470  -26.7260 N.am   99  ALA99      -0.1977
    133  CA       -11.9530   10.4100  -27.8230 C.3    99  ALA99       0.1597
    134  C        -10.4610   10.7090  -27.5600 C.2    99  ALA99       0.2287
    135  O         -9.5580   10.0240  -28.1000 O.2    99  ALA99      -0.2864
    136  CB       -12.4590   11.1040  -29.0740 C.3    99  ALA99       0.0319
    137  N         -8.8710   10.3590  -24.6770 N.3   101  GLY101     -0.1210
    138  CA        -8.3000    9.4930  -23.6540 C.3   101  GLY101      0.1956
    139  C         -8.2330   10.1220  -22.2630 C.2   101  GLY101      0.2611
    140  O         -8.9390   11.0780  -21.9610 O.2   101  GLY101     -0.2717
    141  N         -7.3750    9.5890  -21.4070 N.am  102  ASN102     -0.1974
    142  CA        -7.3050   10.0670  -20.0320 C.3   102  ASN102      0.1688
    143  C         -6.4880   11.3420  -19.8990 C.2   102  ASN102      0.2292
    144  O         -5.5740   11.6510  -20.7380 O.2   102  ASN102     -0.2864
    145  CB        -6.9170    8.9290  -19.0450 C.3   102  ASN102      0.1181
    146  CG        -5.4400    8.5880  -19.0390 C.2   102  ASN102      0.2629
    147  OD1       -4.6090    9.4470  -18.8330 O.2   102  ASN102     -0.2716
    148  ND2       -5.1450    7.3040  -19.0260 N.am  102  ASN102     -0.0877
    149  N        -11.3570   11.7450  -18.1260 N.3   155  LEU155     -0.1245
    150  CA       -11.2630   11.5260  -19.5420 C.3   155  LEU155      0.1561
    151  C        -11.6020   12.8160  -20.3140 C.2   155  LEU155      0.2260
    152  O        -12.3040   13.6970  -19.8410 O.2   155  LEU155     -0.2867
    153  CB       -12.1170   10.3290  -19.9970 C.3   155  LEU155      0.0270
    154  CG       -11.9930    9.0300  -19.1950 C.3   155  LEU155      0.0019
    155  CD1      -12.7970    7.9340  -19.8470 C.3   155  LEU155      0.0001
    156  CD2      -10.5310    8.6120  -19.0420 C.3   155  LEU155      0.0001
    157  N        -14.4000    9.7190  -14.4930 N.3   165  ALA165     -0.1231
    158  CA       -14.5930    8.3080  -14.7260 C.3   165  ALA165      0.1694
    159  C        -14.5470    7.5310  -13.4210 C.2   165  ALA165      0.2592
    160  O        -14.0460    8.0170  -12.4170 O.2   165  ALA165     -0.2718
    161  CB       -13.4610    7.8050  -15.6270 C.3   165  ALA165      0.0304
    162  N        -15.0110    6.2850  -13.4780 N.am  166  ASP166     -0.1960
    163  CA       -14.9030    5.3370  -12.3460 C.3   166  ASP166      0.1840
    164  C        -15.4290    5.8140  -10.9840 C.2   166  ASP166      0.2622
    165  O        -14.8450    5.5200   -9.9630 O.2   166  ASP166     -0.2715
    166  CB       -13.4700    4.8570  -12.2170 C.3   166  ASP166      0.1450
    167  CG       -13.0610    3.9840  -13.3890 C.2   166  ASP166      0.3671
    168  OD1      -13.9320    3.6960  -14.2530 O.co2 166  ASP166     -0.2456
    169  OD2      -11.8820    3.5830  -13.4350 O.co2 166  ASP166     -0.2456
    170  N        -16.5450    6.5290  -11.0130 N.am  167  PHE167     -0.1960
    171  CA       -17.1250    7.1450   -9.8250 C.3   167  PHE167      0.1771
    172  C        -18.1450    6.2160   -9.1970 C.2   167  PHE167      0.2620
    173  O        -18.6590    6.5430   -8.1400 O.2   167  PHE167     -0.2715
    174  CB       -17.7830    8.5270  -10.1410 C.3   167  PHE167      0.0574
    175  CG       -18.8000    8.4890  -11.2360 C.ar  167  PHE167     -0.0200
    176  CD1      -20.1540    8.1830  -10.9860 C.ar  167  PHE167     -0.0042
    177  CD2      -18.4360    8.8000  -12.5480 C.ar  167  PHE167     -0.0042
    178  CE1      -21.0770    8.1820  -12.0370 C.ar  167  PHE167     -0.0003
    179  CE2      -19.3400    8.7580  -13.5780 C.ar  167  PHE167     -0.0003
    180  CZ       -20.6630    8.4560  -13.3340 C.ar  167  PHE167     -0.0000
    181  N        -18.4500    5.0870   -9.8370 N.am  168  GLY168     -0.1954
    182  CA       -19.4170    4.1210   -9.2720 C.3   168  GLY168      0.1869
    183  C        -18.8640    3.0240   -8.3590 C.2   168  GLY168      0.2309
    184  O        -19.6310    2.2110   -7.8620 O.2   168  GLY168     -0.2863
@<TRIPOS>BOND
     1    41    40    1
     2    35    33    1
     3    33    34    1
     4    33    32    2
     5     9     8    1
     6    32    31    1
     7     1     2    1
     8    31    30    1
     9     5     2    1
    10     5     6    1
    11    36    37    1
    12    40    42    1
    13    40    37    1
    14     8     7    1
    15     7     6    1
    16     2     3    1
    17    37    38    1
    18    30    29    1
    19    28    27    2
    20    29    26    1
    21     3     4    2
    22    27    26    1
    23    38    39    2
    24   136   133    1
    25    26    25    1
    26   135   134    2
    27   133   134    1
    28   133   132    1
    29    17    15    1
    30   132   129   am
    31   126   125    1
    32   125   122    1
    33   124   123    2
    34    10    11    1
    35    15    16    1
    36    15    14    1
    37   129   130    2
    38   129   128    1
    39    43    44    1
    40   123   122    1
    41   123   127   am
    42    11    14    1
    43    11    12    1
    44   122   121    1
    45    44    45    1
    46    44    47    1
    47   128   127    1
    48   128   131    1
    49   121   114   am
    50   137   138    1
    51    21    20    2
    52    45    46    2
    53    13    12    2
    54    20    19    1
    55   108   107    2
    56   138   139    1
    57   114   113    1
    58   114   115    2
    59   113   116    1
    60   113   112    1
    61   116   117    1
    62   107   112   am
    63   107   106    1
    64    23    22    1
    65   117   118    1
    66    19    18    1
    67    19    22    1
    68   120   118   ar
    69   139   140    2
    70   139   141   am
    71   105   106    1
    72   118   119   ar
    73    22    24    1
    74    48    49    1
    75   106   109    1
    76   141   142    1
    77   101   100    2
    78   100    99    1
    79   144   143    2
    80    49    50    1
    81    49    52    1
    82   111   109    1
    83    50    51    2
    84    98    99    1
    85   109   110    1
    86   151   152    2
    87   151   150    1
    88   142   143    1
    89   142   145    1
    90   153   150    1
    91   153   154    1
    92    99   102    1
    93   155   154    1
    94    97    95    1
    95   150   149    1
    96    52    53    1
    97   154   156    1
    98   145   146    1
    99   146   148   am
   100   146   147    2
   101    96    94    1
   102   102   103    1
   103   102   104    1
   104    53    54    1
   105    95    94    1
   106    91    94    1
   107    91    92    1
   108    91    90    1
   109    92    93    2
   110    55    54    1
   111    55    56    1
   112    64    62    1
   113    89    88    1
   114    63    62    1
   115   161   158    1
   116    62    61    1
   117    80    79    1
   118    80    81    1
   119    88    87    1
   120   158   157    1
   121   158   159    1
   122    79    78    1
   123   168   167   ar
   124    78    75    1
   125    61    58    1
   126    86    87    1
   127    86    83    1
   128   179   180   ar
   129   179   177   ar
   130   162   159   am
   131   162   163    1
   132    72    71   ar
   133    75    76    1
   134    75    74    1
   135   169   167   ar
   136   159   160    2
   137   167   166    1
   138   180   178   ar
   139    73    71   ar
   140    71    70    1
   141    60    59    2
   142    77    76    2
   143    58    59    1
   144    58    57    1
   145    85    84    2
   146    84    83    1
   147   177   175   ar
   148    74    67   am
   149    83    82    1
   150   163   166    1
   151   163   164    1
   152    70    69    1
   153   178   176   ar
   154    68    67    2
   155    67    66    1
   156    69    66    1
   157   175   176   ar
   158   175   174    1
   159   170   164   am
   160   170   171    1
   161   164   165    2
   162    66    65    1
   163   174   171    1
   164   181   182    1
   165   181   172   am
   166   171   172    1
   167   182   183    1
   168   172   173    2
   169   183   184    2
