@<TRIPOS>MOLECULE
tmp/4xcxA00.pdb
 188 180 0 0 0
SMALL
GASTEIGER

@<TRIPOS>ATOM
      1  N         31.2640  109.7490    2.4430 N.3     7  TYR7       -0.1241
      2  CA        31.0640  108.8060    3.5520 C.3     7  TYR7        0.1605
      3  C         30.0200  107.7410    3.2050 C.2     7  TYR7        0.2264
      4  O         30.1730  106.5860    3.6020 O.2     7  TYR7       -0.2867
      5  CB        30.6760  109.5390    4.8660 C.3     7  TYR7        0.0534
      6  CG        29.2860  110.1490    4.9010 C.ar    7  TYR7       -0.0201
      7  CD1       28.1700  109.3740    5.1920 C.ar    7  TYR7       -0.0009
      8  CD2       29.1050  111.5210    4.7770 C.ar    7  TYR7       -0.0009
      9  CE1       26.8990  109.9330    5.2700 C.ar    7  TYR7        0.0417
     10  CE2       27.8400  112.0940    4.8740 C.ar    7  TYR7        0.0417
     11  CZ        26.7370  111.2940    5.1130 C.ar    7  TYR7        0.1957
     12  OH        25.4710  111.8210    5.1820 O.3     7  TYR7       -0.2866
     13  N         31.3940  105.2070    0.7900 N.3    10  ARG10      -0.1231
     14  CA        32.1670  104.2270    1.5490 C.3    10  ARG10       0.1694
     15  C         31.2240  103.1680    2.1520 C.2    10  ARG10       0.2592
     16  O         31.5200  101.9830    2.0950 O.2    10  ARG10      -0.2718
     17  CB        32.9910  104.8990    2.6620 C.3    10  ARG10       0.0321
     18  CG        34.1690  105.7270    2.1630 C.3    10  ARG10       0.0489
     19  CD        35.1560  106.0140    3.2860 C.3    10  ARG10       0.2205
     20  NE        34.5920  106.8760    4.3210 N.pl3  10  ARG10      -0.0865
     21  CZ        34.5200  108.2020    4.2530 C.cat  10  ARG10       0.5346
     22  NH1       34.9540  108.8460    3.1700 N.pl3  10  ARG10       0.1354
     23  NH2       33.9900  108.8960    5.2540 N.pl3  10  ARG10       0.1354
     24  N         30.0810  103.5940    2.6960 N.am   11  TYR11      -0.1976
     25  CA        29.1010  102.6660    3.2640 C.3    11  TYR11       0.1639
     26  C         28.4780  101.7720    2.1930 C.2    11  TYR11       0.2290
     27  O         28.3080  100.5740    2.4210 O.2    11  TYR11      -0.2864
     28  CB        27.9680  103.4240    3.9950 C.3    11  TYR11       0.0560
     29  CG        28.3680  104.2790    5.1750 C.ar   11  TYR11      -0.0198
     30  CD1       29.4570  103.9430    5.9710 C.ar   11  TYR11      -0.0009
     31  CD2       27.5670  105.3330    5.5910 C.ar   11  TYR11      -0.0009
     32  CE1       29.7880  104.6890    7.0970 C.ar   11  TYR11       0.0417
     33  CE2       27.8800  106.0790    6.7210 C.ar   11  TYR11       0.0417
     34  CZ        29.0040  105.7650    7.4640 C.ar   11  TYR11       0.1957
     35  OH        29.3150  106.4680    8.6030 O.3    11  TYR11      -0.2866
     36  N         31.7950   96.1140   12.6240 N.3    28  ASP28      -0.1239
     37  CA        32.3030   97.3880   12.1330 C.3    28  ASP28       0.1674
     38  C         33.0940   98.0210   13.2650 C.2    28  ASP28       0.2266
     39  O         32.5300   98.3930   14.2900 O.2    28  ASP28      -0.2867
     40  CB        31.1670   98.3050   11.6760 C.3    28  ASP28       0.1410
     41  CG        31.6080   99.6580   11.1430 C.2    28  ASP28       0.3668
     42  OD1       32.8090   99.8060   10.7950 O.co2  28  ASP28      -0.2456
     43  OD2       30.7450  100.5510   11.0160 O.co2  28  ASP28      -0.2456
     44  N         35.2590  101.0140   14.7580 N.3    30  GLY30      -0.1210
     45  CA        35.1970  102.4590   14.5920 C.3    30  GLY30       0.1956
     46  C         33.8800  102.8130   13.9120 C.2    30  GLY30       0.2612
     47  O         33.8640  103.5540   12.9230 O.2    30  GLY30      -0.2717
     48  N         32.7610  102.2490   14.4240 N.am   31  CYS31      -0.1956
     49  CA        31.4330  102.4060   13.8260 C.3    31  CYS31       0.1843
     50  C         30.8620  103.8200   13.9540 C.2    31  CYS31       0.2626
     51  O         29.9380  104.1500   13.2010 O.2    31  CYS31      -0.2714
     52  CB        30.4570  101.3780   14.3910 C.3    31  CYS31       0.0997
     53  SG        30.2990  101.4100   16.1980 S.3    31  CYS31      -0.0797
     54  N         31.3740  104.6150   14.8980 N.am   32  GLY32      -0.1940
     55  CA        30.9560  105.9940   15.0860 C.3    32  GLY32       0.2014
     56  C         29.4700  106.1470   15.2810 C.2    32  GLY32       0.2638
     57  O         28.9330  105.6090   16.2500 O.2    32  GLY32      -0.2714
     58  N         28.7920  106.8430   14.3280 N.am   33  ASP33      -0.1971
     59  CA        27.3270  107.1060   14.3410 C.3    33  ASP33       0.1709
     60  C         26.4510  105.8250   14.3340 C.2    33  ASP33       0.2293
     61  O         25.2790  105.9190   14.6610 O.2    33  ASP33      -0.2864
     62  CB        26.9050  107.9530   13.1130 C.3    33  ASP33       0.1436
     63  CG        27.0640  109.4250   13.2670 C.2    33  ASP33       0.3671
     64  OD1       27.4040  109.9070   14.3270 O.co2  33  ASP33      -0.2456
     65  OD2       26.7580  110.1230   12.2170 O.co2  33  ASP33      -0.2456
     66  N         26.6460  102.8230    9.3280 N.3    36  LEU36      -0.1245
     67  CA        26.9410  101.6400    8.4990 C.3    36  LEU36       0.1561
     68  C         26.1380  100.4420    8.9440 C.2    36  LEU36       0.2260
     69  O         25.5320   99.7880    8.1020 O.2    36  LEU36      -0.2867
     70  CB        28.4340  101.2540    8.4900 C.3    36  LEU36       0.0270
     71  CG        28.8200  100.0560    7.5720 C.3    36  LEU36       0.0019
     72  CD1       28.3010  100.2520    6.1580 C.3    36  LEU36       0.0001
     73  CD2       30.3250   99.8120    7.5780 C.3    36  LEU36       0.0001
     74  N         32.0620   98.4010   17.3160 N.3    52  VAL52      -0.1231
     75  CA        33.0430   98.7470   18.3480 C.3    52  VAL52       0.1692
     76  C         33.5100  100.1950   18.1400 C.2    52  VAL52       0.2592
     77  O         33.6990  100.6180   17.0000 O.2    52  VAL52      -0.2718
     78  CB        34.2710   97.8140   18.3470 C.3    52  VAL52       0.0266
     79  CG1       35.1320   98.0490   19.5910 C.3    52  VAL52       0.0020
     80  CG2       33.8650   96.3430   18.2310 C.3    52  VAL52       0.0020
     81  N         33.7190  100.9440   19.2360 N.am   53  ASP53      -0.1960
     82  CA        34.2530  102.3010   19.1700 C.3    53  ASP53       0.1840
     83  C         34.8160  102.7050   20.5340 C.2    53  ASP53       0.2622
     84  O         34.1950  102.3930   21.5470 O.2    53  ASP53      -0.2715
     85  CB        33.1790  103.3120   18.7130 C.3    53  ASP53       0.1450
     86  CG        33.7650  104.5460   18.0490 C.2    53  ASP53       0.3671
     87  OD1       34.3250  105.3970   18.7700 O.co2  53  ASP53      -0.2456
     88  OD2       33.6860  104.6450   16.8050 O.co2  53  ASP53      -0.2456
     89  N         36.0010  103.3830   20.5580 N.am   54  ILE54      -0.1963
     90  CA        36.6380  103.8760   21.8070 C.3    54  ILE54       0.1727
     91  C         35.7690  104.9380   22.4560 C.2    54  ILE54       0.2616
     92  O         35.8380  105.1140   23.6680 O.2    54  ILE54      -0.2715
     93  CB        38.0940  104.4580   21.6740 C.3    54  ILE54       0.0290
     94  CG1       38.2890  105.2530   20.3730 C.3    54  ILE54       0.0022
     95  CG2       39.1270  103.3680   21.7940 C.3    54  ILE54       0.0023
     96  CD1       39.5570  106.0760   20.3240 C.3    54  ILE54       0.0001
     97  N         35.0190  105.6870   21.6440 N.am   55  ASN55      -0.1972
     98  CA        34.1890  106.7950   22.1040 C.3    55  ASN55       0.1688
     99  C         32.7840  106.3280   22.5660 C.2    55  ASN55       0.2292
    100  O         31.8730  106.1560   21.7580 O.2    55  ASN55      -0.2864
    101  CB        34.0870  107.8100   20.9820 C.3    55  ASN55       0.1181
    102  CG        33.6930  109.1630   21.4370 C.2    55  ASN55       0.2629
    103  OD1       33.3380  109.3880   22.6010 O.2    55  ASN55      -0.2716
    104  ND2       33.8080  110.1040   20.5230 N.am   55  ASN55      -0.0877
    105  N         29.8680  108.6760   21.6690 N.3    58  LYS58      -0.1245
    106  CA        29.3850  108.5480   20.2890 C.3    58  LYS58       0.1561
    107  C         28.3160  107.4330   20.1430 C.2    58  LYS58       0.2260
    108  O         27.5000  107.4920   19.2260 O.2    58  LYS58      -0.2867
    109  CB        30.5690  108.3020   19.3280 C.3    58  LYS58       0.0271
    110  CG        30.4320  108.9660   17.9660 C.3    58  LYS58       0.0035
    111  CD        31.8030  109.2950   17.3590 C.3    58  LYS58       0.0206
    112  CE        31.7080  109.8500   15.9570 C.3    58  LYS58       0.1093
    113  NZ        32.8810  109.4740   15.1220 N.3    58  LYS58      -0.1314
    114  N         34.9940   99.8250   23.1230 N.3    88  GLY88      -0.1210
    115  CA        36.3070   99.1930   23.1560 C.3    88  GLY88       0.1956
    116  C         37.2810   99.6980   22.1130 C.2    88  GLY88       0.2613
    117  O         36.9700  100.6340   21.3740 O.2    88  GLY88      -0.2717
    118  N         38.4900   99.0840   22.0620 N.am   89  SER89      -0.1938
    119  CA        39.5300   99.4630   21.1000 C.3    89  SER89       0.2055
    120  C         39.9120   98.3070   20.2030 C.2    89  SER89       0.2643
    121  O         39.9210   97.1640   20.6390 O.2    89  SER89      -0.2714
    122  CB        40.7780   99.9720   21.8090 C.3    89  SER89       0.2130
    123  OG        41.3090   98.9540   22.6370 O.3    89  SER89      -0.2179
    124  N         40.3180   98.6250   18.9760 N.am   90  VAL90      -0.1963
    125  CA        40.7740   97.6340   18.0020 C.3    90  VAL90       0.1727
    126  C         42.1570   97.0890   18.4170 C.2    90  VAL90       0.2616
    127  O         42.5300   95.9850   18.0320 O.2    90  VAL90      -0.2715
    128  CB        40.8280   98.2410   16.5830 C.3    90  VAL90       0.0290
    129  CG1       41.1810   97.1770   15.5570 C.3    90  VAL90       0.0023
    130  CG2       39.5110   98.9010   16.2240 C.3    90  VAL90       0.0023
    131  N         42.9090   97.8690   19.1910 N.am   91  VAL91      -0.1977
    132  CA        44.2140   97.4860   19.7020 C.3    91  VAL91       0.1596
    133  C         44.0970   96.4270   20.8200 C.2    91  VAL91       0.2287
    134  O         45.0630   95.7070   21.0390 O.2    91  VAL91      -0.2864
    135  CB        44.9670   98.7550   20.1520 C.3    91  VAL91       0.0276
    136  CG1       46.2040   98.4400   21.0010 C.3    91  VAL91       0.0022
    137  CG2       45.3420   99.5760   18.9270 C.3    91  VAL91       0.0022
    138  N         36.4850  101.2400    8.3830 N.3   106  ILE106     -0.1231
    139  CA        36.2510  102.3440    7.4740 C.3   106  ILE106      0.1692
    140  C         36.7080  103.6590    8.0780 C.2   106  ILE106      0.2592
    141  O         36.0930  104.1490    9.0210 O.2   106  ILE106     -0.2718
    142  CB        34.7510  102.3900    7.0820 C.3   106  ILE106      0.0266
    143  CG1       34.2740  101.0170    6.5380 C.3   106  ILE106      0.0019
    144  CG2       34.4840  103.4880    6.0550 C.3   106  ILE106      0.0020
    145  CD1       35.2090  100.3370    5.4140 C.3   106  ILE106      0.0001
    146  N         37.7500  104.2630    7.4780 N.am  107  GLU107     -0.1966
    147  CA        38.2810  105.5730    7.8550 C.3   107  GLU107      0.1733
    148  C         38.7080  105.5660    9.3540 C.2   107  GLU107      0.2616
    149  O         38.4850  106.5300   10.0780 O.2   107  GLU107     -0.2715
    150  CB        37.2170  106.6640    7.5170 C.3   107  GLU107      0.0429
    151  CG        37.6040  107.6940    6.4570 C.3   107  GLU107      0.1163
    152  CD        38.1150  107.1900    5.1190 C.2   107  GLU107      0.3649
    153  OE1       37.9790  105.9770    4.8440 O.co2 107  GLU107     -0.2457
    154  OE2       38.6460  108.0150    4.3380 O.co2 107  GLU107     -0.2457
    155  N         39.3430  104.4640    9.7960 N.am  108  LEU108     -0.1977
    156  CA        39.7860  104.2780   11.1840 C.3   108  LEU108      0.1596
    157  C         41.3150  104.3330   11.3620 C.2   108  LEU108      0.2287
    158  O         41.7640  104.9660   12.3100 O.2   108  LEU108     -0.2864
    159  CB        39.2750  102.9140   11.7070 C.3   108  LEU108      0.0297
    160  CG        39.9000  102.3980   13.0240 C.3   108  LEU108      0.0022
    161  CD1       39.5210  103.2460   14.2000 C.3   108  LEU108      0.0001
    162  CD2       39.5020  100.9890   13.2970 C.3   108  LEU108      0.0001
    163  N         43.3390  107.3340   12.5360 N.3   111  HIS111     -0.1226
    164  CA        43.1610  107.8120   13.9010 C.3   111  HIS111      0.1752
    165  C         44.0450  107.0480   14.9000 C.2   111  HIS111      0.2595
    166  O         44.0110  107.3560   16.0880 O.2   111  HIS111     -0.2718
    167  CB        41.6890  107.6950   14.3120 C.3   111  HIS111      0.0759
    168  CG        40.7730  108.4970   13.4380 C.ar  111  HIS111      0.0818
    169  ND1       40.3560  109.7590   13.8000 N.ar  111  HIS111     -0.2268
    170  CD2       40.2440  108.1900   12.2330 C.ar  111  HIS111      0.1154
    171  CE1       39.5780  110.1740   12.8140 C.ar  111  HIS111      0.1986
    172  NE2       39.4850  109.2620   11.8490 N.ar  111  HIS111     -0.2212
    173  N         44.8420  106.0790   14.4400 N.am  112  LEU112     -0.1980
    174  CA        45.7080  105.3010   15.3170 C.3   112  LEU112      0.1596
    175  C         47.0970  105.9070   15.3570 C.2   112  LEU112      0.2287
    176  O         47.6830  106.1520   14.3000 O.2   112  LEU112     -0.2864
    177  CB        45.8110  103.8560   14.8010 C.3   112  LEU112      0.0297
    178  CG        44.4880  103.1250   14.6060 C.3   112  LEU112      0.0022
    179  CD1       44.7100  101.7840   13.9740 C.3   112  LEU112      0.0001
    180  CD2       43.7780  102.9430   15.9110 C.3   112  LEU112      0.0001
    181  N         49.7480  102.2600   18.4480 N.3   116  ASP116     -0.1239
    182  CA        48.4560  101.6140   18.2270 C.3   116  ASP116      0.1674
    183  C         48.4110  100.9850   16.8300 C.2   116  ASP116      0.2266
    184  O         47.9360   99.8620   16.6930 O.2   116  ASP116     -0.2867
    185  CB        47.3070  102.6280   18.3850 C.3   116  ASP116      0.1410
    186  CG        47.0000  103.0350   19.8230 C.2   116  ASP116      0.3668
    187  OD1       47.0770  102.1580   20.7230 O.co2 116  ASP116     -0.2456
    188  OD2       46.6320  104.2200   20.0430 O.co2 116  ASP116     -0.2456
@<TRIPOS>BOND
     1    13    14    1
     2    14    15    1
     3    14    17    1
     4    16    15    2
     5    15    24   am
     6    18    17    1
     7    18    19    1
     8    26    27    2
     9    26    25    1
    10     1     2    1
    11    24    25    1
    12    22    21    1
    13     3     2    1
    14     3     4    2
    15    25    28    1
    16    19    20    1
    17     2     5    1
    18    28    29    1
    19    21    20    2
    20    21    23    1
    21   154   152   ar
    22     8    10   ar
    23     8     6   ar
    24   153   152   ar
    25     5     6    1
    26    10    11   ar
    27     6     7   ar
    28    11    12    1
    29    11     9   ar
    30   152   151    1
    31    29    31   ar
    32    29    30   ar
    33     7     9   ar
    34   145   143    1
    35    31    33   ar
    36    30    32   ar
    37   144   142    1
    38    72    71    1
    39   151   150    1
    40   143   142    1
    41    33    34   ar
    42   142   139    1
    43    32    34   ar
    44    34    35    1
    45   139   140    1
    46   139   138    1
    47   146   147    1
    48   146   140   am
    49   150   147    1
    50    71    73    1
    51    71    70    1
    52   147   148    1
    53   140   141    2
    54    69    68    2
    55    70    67    1
    56    67    68    1
    57    67    66    1
    58   148   155   am
    59   148   149    2
    60   155   156    1
    61    42    41   ar
    62    43    41   ar
    63    41    40    1
    64   156   157    1
    65   156   159    1
    66   157   158    2
    67    40    37    1
    68   159   160    1
    69   172   170   ar
    70   172   171   ar
    71    37    36    1
    72    37    38    1
    73    65    63   ar
    74   170   168   ar
    75   163   164    1
    76   171   169   ar
    77    47    46    2
    78   160   162    1
    79   160   161    1
    80    62    63    1
    81    62    59    1
    82    51    50    2
    83    38    39    2
    84    63    64   ar
    85   168   169   ar
    86   168   167    1
    87    49    50    1
    88    49    52    1
    89    49    48    1
    90   164   167    1
    91   164   165    1
    92    46    48   am
    93    46    45    1
    94    50    54   am
    95   179   178    1
    96   176   175    2
    97    58    59    1
    98    58    56   am
    99    60    59    1
   100    60    61    2
   101    52    53    1
   102   173   165   am
   103   173   174    1
   104    45    44    1
   105   178   177    1
   106   178   180    1
   107   177   174    1
   108    54    55    1
   109   165   166    2
   110    55    56    1
   111   113   112    1
   112    56    57    2
   113   174   175    1
   114   129   128    1
   115   112   111    1
   116   130   128    1
   117   128   125    1
   118   184   183    2
   119    88    86   ar
   120   183   182    1
   121    77    76    2
   122    74    75    1
   123   111   110    1
   124   110   109    1
   125   125   126    1
   126   125   124    1
   127   127   126    2
   128    86    85    1
   129    86    87   ar
   130    76    75    1
   131    76    81   am
   132   182   185    1
   133   182   181    1
   134    80    78    1
   135    78    75    1
   136    78    79    1
   137   185   186    1
   138   126   131   am
   139    85    82    1
   140   137   135    1
   141   124   120   am
   142    82    81    1
   143    82    83    1
   144   131   132    1
   145   108   107    2
   146   109   106    1
   147   132   135    1
   148   132   133    1
   149   186   188   ar
   150   186   187   ar
   151   107   106    1
   152   135   136    1
   153   120   121    2
   154   120   119    1
   155   106   105    1
   156    96    94    1
   157    94    93    1
   158   104   102   am
   159    83    89   am
   160    83    84    2
   161    89    90    1
   162   133   134    2
   163   101   102    1
   164   101    98    1
   165   119   122    1
   166   119   118    1
   167   117   116    2
   168   102   103    2
   169    97    98    1
   170    97    91   am
   171    93    95    1
   172    93    90    1
   173   100    99    2
   174    90    91    1
   175   122   123    1
   176   118   116   am
   177    98    99    1
   178   116   115    1
   179    91    92    2
   180   114   115    1
