@<TRIPOS>MOLECULE
tmp/4xcyD01.pdb
 84 85 0 0 0
SMALL
GASTEIGER

@<TRIPOS>ATOM
      1  N         94.3460  -52.9020  -31.9090 N.3    27  GLY27      -0.1210
      2  CA        94.4270  -53.9220  -30.8770 C.3    27  GLY27       0.1956
      3  C         93.5960  -55.1600  -31.1540 C.2    27  GLY27       0.2613
      4  O         93.2170  -55.4300  -32.2940 O.2    27  GLY27      -0.2717
      5  N         93.3150  -55.9200  -30.1010 N.am   28  SER28      -0.1938
      6  CA        92.5020  -57.1220  -30.2220 C.3    28  SER28       0.2055
      7  C         91.0610  -56.8140  -29.8230 C.2    28  SER28       0.2643
      8  O         90.6820  -55.6480  -29.7130 O.2    28  SER28      -0.2714
      9  CB        93.0690  -58.2570  -29.3690 C.3    28  SER28       0.2130
     10  OG        92.8480  -58.0210  -27.9920 O.3    28  SER28      -0.2179
     11  N         90.2620  -57.8540  -29.6070 N.am   29  PHE29      -0.1959
     12  CA        88.8510  -57.6680  -29.2810 C.3    29  PHE29       0.1771
     13  C         88.2780  -58.8700  -28.5440 C.2    29  PHE29       0.2620
     14  O         87.4340  -58.7260  -27.6590 O.2    29  PHE29      -0.2715
     15  CB        88.0710  -57.4060  -30.5760 C.3    29  PHE29       0.0574
     16  CG        86.5780  -57.5310  -30.4410 C.ar   29  PHE29      -0.0200
     17  CD1       85.8210  -56.4940  -29.9250 C.ar   29  PHE29      -0.0042
     18  CD2       85.9290  -58.6820  -30.8630 C.ar   29  PHE29      -0.0042
     19  CE1       84.4450  -56.6100  -29.8140 C.ar   29  PHE29      -0.0003
     20  CE2       84.5580  -58.8040  -30.7540 C.ar   29  PHE29      -0.0003
     21  CZ        83.8140  -57.7680  -30.2300 C.ar   29  PHE29      -0.0000
     22  N         88.7390  -60.0550  -28.9240 N.am   30  SER30      -0.1950
     23  CA        88.1670  -61.3090  -28.4440 C.3    30  SER30       0.1924
     24  C         88.3560  -61.5430  -26.9460 C.2    30  SER30       0.2314
     25  O         87.4860  -62.1080  -26.2910 O.2    30  SER30      -0.2863
     26  CB        88.7250  -62.4910  -29.2370 C.3    30  SER30       0.2116
     27  OG        88.5650  -62.2840  -30.6280 O.3    30  SER30      -0.2180
     28  N         82.6300  -61.6090  -33.0890 N.3    74  ARG74      -0.1245
     29  CA        84.0760  -61.6240  -33.2680 C.3    74  ARG74       0.1563
     30  C         84.4460  -61.5010  -34.7410 C.2    74  ARG74       0.2260
     31  O         85.5480  -61.0670  -35.0750 O.2    74  ARG74      -0.2867
     32  CB        84.6710  -62.9130  -32.6960 C.3    74  ARG74       0.0307
     33  CG        84.4700  -63.1060  -31.2020 C.3    74  ARG74       0.0489
     34  CD        85.1120  -64.4050  -30.7390 C.3    74  ARG74       0.2205
     35  NE        86.5380  -64.4570  -31.0460 N.pl3  74  ARG74      -0.0865
     36  CZ        87.2000  -65.5760  -31.3220 C.cat  74  ARG74       0.5346
     37  NH1       88.4990  -65.5340  -31.5890 N.pl3  74  ARG74       0.1354
     38  NH2       86.5630  -66.7390  -31.3320 N.pl3  74  ARG74       0.1354
     39  N         84.2540  -57.8340  -35.1380 N.3    77  SER77      -0.1217
     40  CA        84.7990  -57.1100  -33.9880 C.3    77  SER77       0.1889
     41  C         83.7990  -56.0520  -33.5340 C.2    77  SER77       0.2288
     42  O         84.1690  -54.9130  -33.2480 O.2    77  SER77      -0.2866
     43  CB        86.1480  -56.4650  -34.3250 C.3    77  SER77       0.2089
     44  OG        86.0100  -55.4370  -35.2890 O.3    77  SER77      -0.2183
     45  N         98.3560  -54.7730  -25.4440 N.3   104  TRP104     -0.1227
     46  CA        97.6440  -55.9420  -25.9670 C.3   104  TRP104      0.1737
     47  C         98.4470  -56.9690  -26.7600 C.2   104  TRP104      0.2596
     48  O         99.6780  -56.9710  -26.7880 O.2   104  TRP104     -0.2718
     49  CB        96.3650  -55.5920  -26.7470 C.3   104  TRP104      0.0564
     50  CG        96.0340  -54.1550  -26.8900 C.ar  104  TRP104      0.0003
     51  CD1       94.9400  -53.5190  -26.3870 C.ar  104  TRP104      0.0946
     52  CD2       96.7740  -53.1700  -27.6160 C.ar  104  TRP104      0.0152
     53  NE1       94.9620  -52.1920  -26.7350 N.ar  104  TRP104     -0.2442
     54  CE2       96.0780  -51.9520  -27.4920 C.ar  104  TRP104      0.0810
     55  CE3       97.9640  -53.1970  -28.3500 C.ar  104  TRP104      0.0012
     56  CZ2       96.5310  -50.7720  -28.0750 C.ar  104  TRP104      0.0191
     57  CZ3       98.4120  -52.0240  -28.9280 C.ar  104  TRP104      0.0001
     58  CH2       97.6970  -50.8280  -28.7870 C.ar  104  TRP104      0.0015
     59  N         97.6790  -57.8030  -27.4520 N.am  105  GLY105     -0.1942
     60  CA        98.1120  -59.1000  -27.9240 C.3   105  GLY105      0.2014
     61  C         97.3100  -59.8980  -26.9170 C.2   105  GLY105      0.2639
     62  O         97.1500  -59.4310  -25.7910 O.2   105  GLY105     -0.2714
     63  N         96.7840  -61.0600  -27.2920 N.am  106  TRP106     -0.1959
     64  CA        95.8590  -61.8240  -26.4350 C.3   106  TRP106      0.1771
     65  C         96.2510  -61.8980  -24.9480 C.2   106  TRP106      0.2619
     66  O         95.4300  -62.2700  -24.1100 O.2   106  TRP106     -0.2715
     67  CB        95.7020  -63.2500  -26.9660 C.3   106  TRP106      0.0590
     68  CG        94.8200  -63.3160  -28.1900 C.ar  106  TRP106      0.0006
     69  CD1       94.7360  -62.3890  -29.1900 C.ar  106  TRP106      0.0946
     70  CD2       93.8130  -64.2980  -28.4740 C.ar  106  TRP106      0.0152
     71  NE1       93.7890  -62.7670  -30.1110 N.ar  106  TRP106     -0.2442
     72  CE2       93.2020  -63.9320  -29.6910 C.ar  106  TRP106      0.0810
     73  CE3       93.3870  -65.4640  -27.8310 C.ar  106  TRP106      0.0012
     74  CZ2       92.1900  -64.6900  -30.2770 C.ar  106  TRP106      0.0191
     75  CZ3       92.3810  -66.2140  -28.4140 C.ar  106  TRP106      0.0001
     76  CH2       91.7940  -65.8240  -29.6250 C.ar  106  TRP106      0.0015
     77  N         97.4850  -61.5020  -24.6350 N.am  107  LEU107     -0.1977
     78  CA        97.9540  -61.3700  -23.2620 C.3   107  LEU107      0.1596
     79  C         97.4690  -60.0300  -22.7190 C.2   107  LEU107      0.2287
     80  O         96.2570  -59.8390  -22.5870 O.2   107  LEU107     -0.2864
     81  CB        99.4950  -61.4120  -23.2240 C.3   107  LEU107      0.0297
     82  CG       100.3480  -60.7590  -24.3270 C.3   107  LEU107      0.0022
     83  CD1      101.1000  -59.5190  -23.8440 C.3   107  LEU107      0.0001
     84  CD2      101.3290  -61.7660  -24.8900 C.3   107  LEU107      0.0001
@<TRIPOS>BOND
     1    44    43    1
     2    39    40    1
     3    31    30    2
     4    30    29    1
     5    43    40    1
     6    40    41    1
     7    41    42    2
     8    29    28    1
     9    29    32    1
    10    32    33    1
    11     4     3    2
    12     1     2    1
    13    37    36    1
    14    38    36    1
    15    36    35    2
    16    33    34    1
    17     3     2    1
    18     3     5   am
    19    35    34    1
    20    18    20   ar
    21    18    16   ar
    22    20    21   ar
    23    27    26    1
    24    15    16    1
    25    15    12    1
    26    16    17   ar
    27    74    72   ar
    28    74    76   ar
    29    21    19   ar
    30     6     5    1
    31     6     7    1
    32     6     9    1
    33    71    72   ar
    34    71    69   ar
    35    17    19   ar
    36     7     8    2
    37     7    11   am
    38    72    70   ar
    39    76    75   ar
    40    11    12    1
    41     9    10    1
    42    12    13    1
    43    26    23    1
    44    69    68   ar
    45    57    58   ar
    46    57    55   ar
    47    22    13   am
    48    22    23    1
    49    58    56   ar
    50    13    14    2
    51    70    68   ar
    52    70    73   ar
    53    23    24    1
    54    75    73   ar
    55    55    52   ar
    56    68    67    1
    57    56    54   ar
    58    60    59    1
    59    60    61    1
    60    52    54   ar
    61    52    50   ar
    62    54    53   ar
    63    59    47   am
    64    63    61   am
    65    63    64    1
    66    67    64    1
    67    24    25    2
    68    61    62    2
    69    50    49    1
    70    50    51   ar
    71    48    47    2
    72    47    46    1
    73    49    46    1
    74    53    51   ar
    75    64    65    1
    76    46    45    1
    77    65    77   am
    78    65    66    2
    79    84    82    1
    80    77    78    1
    81    82    83    1
    82    82    81    1
    83    78    81    1
    84    78    79    1
    85    79    80    2
