@<TRIPOS>MOLECULE
tmp/4xd0A00.pdb
 141 136 0 0 0
SMALL
GASTEIGER

@<TRIPOS>ATOM
      1  N          5.4210   78.5630    3.8810 N.3   303  LEU303     -0.1245
      2  CA         5.4230   77.6710    2.7200 C.3   303  LEU303      0.1561
      3  C          6.3020   76.4310    2.9020 C.2   303  LEU303      0.2260
      4  O          6.3740   75.6160    2.0230 O.2   303  LEU303     -0.2867
      5  CB         5.8820   78.4280    1.4850 C.3   303  LEU303      0.0270
      6  CG         5.0040   79.6440    1.1820 C.3   303  LEU303      0.0019
      7  CD1        5.6350   80.5660    0.1570 C.3   303  LEU303      0.0001
      8  CD2        3.6320   79.1500    0.7380 C.3   303  LEU303      0.0001
      9  N          9.6120   77.1320    3.2010 N.3   305  TRP305     -0.1241
     10  CA        10.9240   77.6090    2.6850 C.3   305  TRP305      0.1605
     11  C         11.9590   77.7000    3.8050 C.2   305  TRP305      0.2264
     12  O         11.7490   78.3870    4.7740 O.2   305  TRP305     -0.2867
     13  CB        10.8320   78.9840    1.9860 C.3   305  TRP305      0.0550
     14  CG        10.0090   79.0410    0.7340 C.ar  305  TRP305      0.0003
     15  CD1        9.4690   77.9910    0.0420 C.ar  305  TRP305      0.0946
     16  CD2        9.6560   80.2200   -0.0040 C.ar  305  TRP305      0.0152
     17  NE1        8.7750   78.4420   -1.0530 N.ar  305  TRP305     -0.2442
     18  CE2        8.8750   79.8060   -1.1120 C.ar  305  TRP305      0.0810
     19  CE3        9.8970   81.5820    0.1850 C.ar  305  TRP305      0.0012
     20  CZ2        8.3180   80.7080   -2.0250 C.ar  305  TRP305      0.0191
     21  CZ3        9.3580   82.4860   -0.7370 C.ar  305  TRP305      0.0001
     22  CH2        8.5730   82.0390   -1.8280 C.ar  305  TRP305      0.0015
     23  N         16.5590   76.0270    0.8770 N.3   309  ILE309     -0.1231
     24  CA        15.6270   76.1430   -0.2420 C.3   309  ILE309      0.1692
     25  C         15.7640   77.5170   -0.9460 C.2   309  ILE309      0.2591
     26  O         15.8070   77.5990   -2.1820 O.2   309  ILE309     -0.2718
     27  CB        14.1640   75.8470    0.1850 C.3   309  ILE309      0.0266
     28  CG1       14.0360   74.3410    0.4570 C.3   309  ILE309      0.0019
     29  CG2       13.2100   76.3440   -0.8930 C.3   309  ILE309      0.0020
     30  CD1       12.7630   73.8420    1.1020 C.3   309  ILE309      0.0001
     31  N         15.9610   78.5830   -0.1820 N.am  310  ILE310     -0.1980
     32  CA        16.2110   79.8840   -0.8030 C.3   310  ILE310      0.1595
     33  C         17.5480   79.8240   -1.5750 C.2   310  ILE310      0.2287
     34  O         17.6230   80.1860   -2.7410 O.2   310  ILE310     -0.2864
     35  CB        16.2340   81.0260    0.2350 C.3   310  ILE310      0.0276
     36  CG1       14.9190   81.1040    1.0180 C.3   310  ILE310      0.0022
     37  CG2       16.4540   82.3530   -0.4700 C.3   310  ILE310      0.0022
     38  CD1       13.6810   81.3190    0.1660 C.3   310  ILE310      0.0001
     39  N         17.0460   77.8170   -4.9410 N.3   313  TYR313     -0.1227
     40  CA        16.2360   78.5390   -5.9080 C.3   313  TYR313      0.1736
     41  C         16.9990   79.7270   -6.5240 C.2   313  TYR313      0.2595
     42  O         16.8040   80.0240   -7.7120 O.2   313  TYR313     -0.2718
     43  CB        14.9520   79.0260   -5.2450 C.3   313  TYR313      0.0548
     44  CG        13.9760   79.5860   -6.2370 C.ar  313  TYR313     -0.0200
     45  CD1       13.2390   78.7490   -7.0490 C.ar  313  TYR313     -0.0009
     46  CD2       13.8560   80.9540   -6.4140 C.ar  313  TYR313     -0.0009
     47  CE1       12.3520   79.2430   -7.9800 C.ar  313  TYR313      0.0417
     48  CE2       12.9840   81.4640   -7.3470 C.ar  313  TYR313      0.0417
     49  CZ        12.2230   80.6080   -8.1130 C.ar  313  TYR313      0.1957
     50  OH        11.3310   81.1260   -9.0160 O.3   313  TYR313     -0.2866
     51  N         17.9130   80.3260   -5.7600 N.am  314  HIS314     -0.1975
     52  CA        18.7380   81.4420   -6.2670 C.3   314  HIS314      0.1656
     53  C         20.1450   81.0630   -6.6910 C.2   314  HIS314      0.2291
     54  O         20.9580   81.9230   -7.0500 O.2   314  HIS314     -0.2864
     55  CB        18.8180   82.5570   -5.2520 C.3   314  HIS314      0.0771
     56  CG        17.5130   83.2430   -5.0120 C.ar  314  HIS314      0.0820
     57  ND1       16.5100   82.6860   -4.2440 N.ar  314  HIS314     -0.2267
     58  CD2       17.0530   84.4440   -5.4290 C.ar  314  HIS314      0.1154
     59  CE1       15.4760   83.5130   -4.2090 C.ar  314  HIS314      0.1986
     60  NE2       15.7790   84.5880   -4.9230 N.ar  314  HIS314     -0.2212
     61  N          9.8580   71.6350    0.9280 N.3   334  ASN334     -0.1240
     62  CA         8.8870   72.5360    1.4820 C.3   334  ASN334      0.1653
     63  C          7.6680   71.7020    1.9180 C.2   334  ASN334      0.2266
     64  O          7.7260   70.4610    1.9960 O.2   334  ASN334     -0.2867
     65  CB         8.5420   73.6090    0.4420 C.3   334  ASN334      0.1155
     66  CG         7.5810   73.1180   -0.6230 C.2   334  ASN334      0.2627
     67  OD1        7.3970   71.9190   -0.8200 O.2   334  ASN334     -0.2716
     68  ND2        6.9280   74.0510   -1.2820 N.am  334  ASN334     -0.0877
     69  N          4.8310   71.2390    0.4110 N.3   336  LYS336     -0.1245
     70  CA         4.2270   70.5090   -0.7240 C.3   336  LYS336      0.1561
     71  C          5.1030   69.3510   -1.2230 C.2   336  LYS336      0.2260
     72  O          4.8430   68.7780   -2.2680 O.2   336  LYS336     -0.2867
     73  CB         4.0350   71.4870   -1.8830 C.3   336  LYS336      0.0271
     74  CG         3.1030   72.6650   -1.6260 C.3   336  LYS336      0.0035
     75  CD         2.9160   73.3640   -2.9660 C.3   336  LYS336      0.0206
     76  CE         2.3090   74.7530   -2.8910 C.3   336  LYS336      0.1093
     77  NZ         3.2390   75.8320   -2.4490 N.3   336  LYS336     -0.1314
     78  N          8.2520   69.6210   -2.3510 N.3   338  THR338     -0.1218
     79  CA         9.1190   70.0590   -3.4230 C.3   338  THR338      0.1862
     80  C         10.5120   70.1250   -2.8260 C.2   338  THR338      0.2287
     81  O         10.6420   70.6770   -1.7550 O.2   338  THR338     -0.2866
     82  CB         8.7260   71.4720   -3.8990 C.3   338  THR338      0.1770
     83  OG1        7.3590   71.4850   -4.3250 O.3   338  THR338     -0.2211
     84  CG2        9.5910   71.9040   -5.0480 C.3   338  THR338      0.0375
     85  N         14.6320   70.2350   -7.0610 N.3   342  MET342     -0.1230
     86  CA        13.5730   70.9060   -7.8230 C.3   342  MET342      0.1702
     87  C         13.7520   72.3910   -7.8910 C.2   342  MET342      0.2592
     88  O         13.6940   72.9270   -8.9720 O.2   342  MET342     -0.2718
     89  CB        12.1890   70.5630   -7.2780 C.3   342  MET342      0.0401
     90  CG        11.8710   69.0860   -7.4870 C.3   342  MET342      0.0596
     91  SD        10.2960   68.5910   -6.7270 S.3   342  MET342     -0.1393
     92  CE        10.4960   66.8040   -6.7970 C.3   342  MET342      0.0692
     93  N         14.0090   73.0250   -6.7510 N.am  343  TYR343     -0.1976
     94  CA        14.3970   74.4520   -6.7000 C.3   343  TYR343      0.1639
     95  C         15.6830   74.7440   -7.4530 C.2   343  TYR343      0.2290
     96  O         15.7660   75.7120   -8.2000 O.2   343  TYR343     -0.2864
     97  CB        14.5430   74.9620   -5.2590 C.3   343  TYR343      0.0560
     98  CG        13.2440   74.9500   -4.5160 C.ar  343  TYR343     -0.0198
     99  CD1       12.2180   75.8290   -4.8400 C.ar  343  TYR343     -0.0009
    100  CD2       12.9880   73.9710   -3.5530 C.ar  343  TYR343     -0.0009
    101  CE1       11.0030   75.7750   -4.1650 C.ar  343  TYR343      0.0417
    102  CE2       11.7780   73.9150   -2.8930 C.ar  343  TYR343      0.0417
    103  CZ        10.7630   74.7850   -3.2380 C.ar  343  TYR343      0.1957
    104  OH         9.5720   74.7330   -2.5280 O.3   343  TYR343     -0.2866
    105  N         17.0140   73.0410   -9.8840 N.3   345  LYS345     -0.1231
    106  CA        16.7310   72.8840  -11.3160 C.3   345  LYS345      0.1693
    107  C         16.1270   74.1720  -11.9030 C.2   345  LYS345      0.2592
    108  O         16.3590   74.5030  -13.0510 O.2   345  LYS345     -0.2718
    109  CB        15.7800   71.6890  -11.5530 C.3   345  LYS345      0.0285
    110  CG        15.1940   71.5690  -12.9660 C.3   345  LYS345      0.0035
    111  CD        13.9750   72.4440  -13.1960 C.3   345  LYS345      0.0206
    112  CE        12.7050   71.6920  -12.8600 C.3   345  LYS345      0.1093
    113  NZ        11.4850   72.5440  -12.8670 N.3   345  LYS345     -0.1314
    114  N         15.2580   74.8460  -11.1770 N.am  346  ASP346     -0.1974
    115  CA        14.6670   76.0920  -11.6630 C.3   346  ASP346      0.1709
    116  C         15.7560   77.1290  -11.9100 C.2   346  ASP346      0.2293
    117  O         15.6870   77.8960  -12.8430 O.2   346  ASP346     -0.2864
    118  CB        13.6610   76.6290  -10.6570 C.3   346  ASP346      0.1436
    119  CG        12.2250   76.3500  -11.0620 C.2   346  ASP346      0.3671
    120  OD1       11.5130   77.3320  -11.3540 O.co2 346  ASP346     -0.2456
    121  OD2       11.8200   75.1650  -11.1120 O.co2 346  ASP346     -0.2456
    122  N          7.5580   64.8560   -5.0680 N.3   371  ASP371     -0.1239
    123  CA         6.7630   65.7320   -4.2530 C.3   371  ASP371      0.1674
    124  C          5.4280   65.0940   -3.8540 C.2   371  ASP371      0.2266
    125  O          5.1820   63.8930   -4.0750 O.2   371  ASP371     -0.2867
    126  CB         6.5910   67.1190   -4.9420 C.3   371  ASP371      0.1410
    127  CG         5.7750   67.0940   -6.2530 C.2   371  ASP371      0.3668
    128  OD1        5.0680   66.1010   -6.5570 O.co2 371  ASP371     -0.2456
    129  OD2        5.8020   68.1280   -6.9900 O.co2 371  ASP371     -0.2456
    130  N          8.6500   66.9310  -14.1570 N.3   380  TYR380     -0.1241
    131  CA         8.5260   68.3460  -14.5010 C.3   380  TYR380      0.1605
    132  C          9.2190   68.7340  -15.7800 C.2   380  TYR380      0.2264
    133  O          8.6300   69.4350  -16.6110 O.2   380  TYR380     -0.2867
    134  CB         8.9250   69.2670  -13.3390 C.3   380  TYR380      0.0534
    135  CG         7.9080   69.1790  -12.2350 C.ar  380  TYR380     -0.0201
    136  CD1        6.6680   69.8250  -12.3430 C.ar  380  TYR380     -0.0009
    137  CD2        8.1470   68.4060  -11.1080 C.ar  380  TYR380     -0.0009
    138  CE1        5.7200   69.7140  -11.3450 C.ar  380  TYR380      0.0417
    139  CE2        7.2140   68.3010  -10.0970 C.ar  380  TYR380      0.0417
    140  CZ         5.9990   68.9550  -10.2220 C.ar  380  TYR380      0.1957
    141  OH         5.0810   68.8390   -9.2190 O.3   380  TYR380     -0.2866
@<TRIPOS>BOND
     1   133   132    2
     2   132   131    1
     3   131   130    1
     4   131   134    1
     5   134   135    1
     6   111   110    1
     7   111   112    1
     8   108   107    2
     9   110   109    1
    10   113   112    1
    11   117   116    2
    12   136   135   ar
    13   136   138   ar
    14   135   137   ar
    15   116   115    1
    16   107   106    1
    17   107   114   am
    18   115   114    1
    19   115   118    1
    20   109   106    1
    21   120   119   ar
    22   138   140   ar
    23   106   105    1
    24   121   119   ar
    25   137   139   ar
    26   119   118    1
    27   140   139   ar
    28   140   141    1
    29    50    49    1
    30    88    87    2
    31    96    95    2
    32    49    47   ar
    33    49    48   ar
    34    47    45   ar
    35    87    86    1
    36    87    93   am
    37    86    89    1
    38    86    85    1
    39    42    41    2
    40    90    89    1
    41    90    91    1
    42    95    94    1
    43    48    46   ar
    44    54    53    2
    45    45    44   ar
    46   129   127   ar
    47    92    91    1
    48    93    94    1
    49    94    97    1
    50    53    52    1
    51   128   127   ar
    52    41    40    1
    53    41    51   am
    54    46    44   ar
    55    52    51    1
    56    52    55    1
    57   127   126    1
    58    44    43    1
    59    40    43    1
    60    40    39    1
    61    58    56   ar
    62    58    60   ar
    63    97    98    1
    64    55    56    1
    65   122   123    1
    66    84    82    1
    67    56    57   ar
    68   126   123    1
    69    60    59   ar
    70    99    98   ar
    71    99   101   ar
    72    98   100   ar
    73    83    82    1
    74   123   124    1
    75    57    59   ar
    76   101   103   ar
    77   125   124    2
    78    82    79    1
    79   100   102   ar
    80    79    80    1
    81    79    78    1
    82   103   102   ar
    83   103   104    1
    84    75    76    1
    85    75    74    1
    86    76    77    1
    87    80    81    2
    88    34    33    2
    89    72    71    2
    90    26    25    2
    91    20    22   ar
    92    20    18   ar
    93    73    74    1
    94    73    70    1
    95    22    21   ar
    96    33    32    1
    97    68    66   am
    98    71    70    1
    99    18    17   ar
   100    18    16   ar
   101    17    15   ar
   102    25    24    1
   103    25    31   am
   104    29    27    1
   105    67    66    2
   106    32    31    1
   107    32    35    1
   108    21    19   ar
   109    70    69    1
   110    66    65    1
   111    37    35    1
   112    24    27    1
   113    24    23    1
   114    16    19   ar
   115    16    14   ar
   116    15    14   ar
   117     7     6    1
   118    38    36    1
   119    27    28    1
   120    35    36    1
   121    65    62    1
   122    28    30    1
   123    14    13    1
   124     8     6    1
   125    61    62    1
   126     6     5    1
   127    62    63    1
   128     5     2    1
   129    63    64    2
   130    13    10    1
   131     4     3    2
   132    10     9    1
   133    10    11    1
   134     2     3    1
   135     2     1    1
   136    11    12    2
