@<TRIPOS>MOLECULE
tmp/4xd0A01.pdb
 185 182 0 0 0
SMALL
GASTEIGER

@<TRIPOS>ATOM
      1  N         -6.3470   55.8220   16.6130 N.3    73  SER73      -0.1217
      2  CA        -6.4290   57.2750   16.7970 C.3    73  SER73       0.1889
      3  C         -5.0110   57.8160   16.7740 C.2    73  SER73       0.2288
      4  O         -4.1550   57.3360   17.5390 O.2    73  SER73      -0.2866
      5  CB        -7.0710   57.6170   18.1450 C.3    73  SER73       0.2089
      6  OG        -6.9940   59.0170   18.3710 O.3    73  SER73      -0.2183
      7  N         -3.5690   61.4110   16.9030 N.3    75  GLU75      -0.1231
      8  CA        -3.8240   62.8400   17.1630 C.3    75  GLU75       0.1699
      9  C         -5.2540   63.2560   16.8180 C.2    75  GLU75       0.2592
     10  O         -5.5540   64.4330   16.5320 O.2    75  GLU75      -0.2718
     11  CB        -2.7760   63.7240   16.4810 C.3    75  GLU75       0.0402
     12  CG        -1.3580   63.5310   17.0250 C.3    75  GLU75       0.1161
     13  CD        -1.2220   63.9210   18.4890 C.2    75  GLU75       0.3649
     14  OE1       -1.2040   65.1240   18.8320 O.co2  75  GLU75      -0.2457
     15  OE2       -1.2340   63.0080   19.3230 O.co2  75  GLU75      -0.2457
     16  N         -6.1590   62.3060   16.9970 N.am   76  PHE76      -0.1962
     17  CA        -7.5900   62.5640   16.8490 C.3    76  PHE76       0.1771
     18  C         -8.1310   63.4870   17.9140 C.2    76  PHE76       0.2620
     19  O         -7.5900   63.6140   19.0090 O.2    76  PHE76      -0.2715
     20  CB        -8.3520   61.2360   16.8520 C.3    76  PHE76       0.0574
     21  CG        -9.8170   61.3530   16.4590 C.ar   76  PHE76      -0.0200
     22  CD1      -10.7930   60.8420   17.2820 C.ar   76  PHE76      -0.0042
     23  CD2      -10.1820   61.8710   15.2200 C.ar   76  PHE76      -0.0042
     24  CE1      -12.1290   60.9460   16.9180 C.ar   76  PHE76      -0.0003
     25  CE2      -11.5110   62.0000   14.8630 C.ar   76  PHE76      -0.0003
     26  CZ       -12.4820   61.5090   15.7140 C.ar   76  PHE76      -0.0000
     27  N         -9.2240   64.1810   17.5920 N.am   77  ASP77      -0.1957
     28  CA        -9.6460   65.2930   18.4250 C.3    77  ASP77       0.1840
     29  C        -10.9500   65.0560   19.2010 C.2    77  ASP77       0.2622
     30  O        -11.3420   65.8950   19.9940 O.2    77  ASP77      -0.2715
     31  CB        -9.7730   66.5550   17.5540 C.3    77  ASP77       0.1450
     32  CG       -10.8900   66.4530   16.5410 C.2    77  ASP77       0.3671
     33  OD1      -11.3540   67.4960   16.0570 O.co2  77  ASP77      -0.2456
     34  OD2      -11.3590   65.3410   16.2530 O.co2  77  ASP77      -0.2456
     35  N        -11.6430   63.9500   19.0030 N.am   78  LYS78      -0.1963
     36  CA       -12.9030   63.7230   19.7480 C.3    78  LYS78       0.1728
     37  C        -12.7630   62.5470   20.6920 C.2    78  LYS78       0.2616
     38  O        -12.0460   61.5750   20.4080 O.2    78  LYS78      -0.2715
     39  CB       -14.0660   63.4880   18.7740 C.3    78  LYS78       0.0311
     40  CG       -14.6310   64.7680   18.1550 C.3    78  LYS78       0.0038
     41  CD       -15.6040   64.5340   16.9880 C.3    78  LYS78       0.0206
     42  CE       -15.0600   63.4320   16.0760 C.3    78  LYS78       0.1093
     43  NZ       -15.5520   63.2190   14.6860 N.3    78  LYS78      -0.1314
     44  N        -13.4590   62.6220   21.8250 N.am   79  ILE79      -0.1963
     45  CA       -13.3760   61.5670   22.8290 C.3    79  ILE79       0.1727
     46  C        -13.9850   60.3030   22.2780 C.2    79  ILE79       0.2616
     47  O        -15.0320   60.3550   21.6420 O.2    79  ILE79      -0.2715
     48  CB       -14.0880   61.9110   24.1560 C.3    79  ILE79       0.0290
     49  CG1      -13.3780   63.0870   24.8400 C.3    79  ILE79       0.0022
     50  CG2      -14.1150   60.7070   25.0980 C.3    79  ILE79       0.0023
     51  CD1      -12.1590   62.6710   25.6400 C.3    79  ILE79       0.0001
     52  N        -13.2510   59.2040   22.4410 N.am   80  ILE80      -0.1977
     53  CA       -13.7040   57.8850   22.0370 C.3    80  ILE80       0.1596
     54  C        -14.0880   56.9830   23.2210 C.2    80  ILE80       0.2287
     55  O        -13.2560   56.6240   24.0730 O.2    80  ILE80      -0.2864
     56  CB       -12.6330   57.2030   21.1720 C.3    80  ILE80       0.0276
     57  CG1      -12.3230   58.0780   19.9470 C.3    80  ILE80       0.0022
     58  CG2      -13.0930   55.8420   20.6990 C.3    80  ILE80       0.0022
     59  CD1      -10.8740   57.9350   19.5320 C.3    80  ILE80       0.0001
     60  N         -4.5690   54.1140   20.5570 N.3    92  ASN92      -0.1225
     61  CA        -4.2400   55.5140   20.4560 C.3    92  ASN92       0.1785
     62  C         -2.7180   55.6090   20.5240 C.2    92  ASN92       0.2597
     63  O         -2.0500   54.8120   21.2130 O.2    92  ASN92      -0.2718
     64  CB        -4.8290   56.2730   21.6270 C.3    92  ASN92       0.1169
     65  CG        -4.4840   57.7650   21.5880 C.2    92  ASN92       0.2627
     66  OD1       -3.9280   58.3550   22.5410 O.2    92  ASN92      -0.2716
     67  ND2       -4.8170   58.3650   20.5150 N.am   92  ASN92      -0.0877
     68  N         -2.2010   56.6050   19.8280 N.am   93  ILE93      -0.1966
     69  CA        -0.8150   57.0570   20.0320 C.3    93  ILE93       0.1727
     70  C         -0.8500   58.3650   20.8280 C.2    93  ILE93       0.2616
     71  O         -1.5900   59.2800   20.4880 O.2    93  ILE93      -0.2715
     72  CB        -0.0800   57.2210   18.7020 C.3    93  ILE93       0.0290
     73  CG1        1.3880   57.5560   18.9540 C.3    93  ILE93       0.0022
     74  CG2       -0.7300   58.3050   17.8560 C.3    93  ILE93       0.0023
     75  CD1        2.1640   56.2610   19.2430 C.3    93  ILE93       0.0001
     76  N         -0.1710   58.3690   21.9800 N.am   94  HIS94      -0.1973
     77  CA        -0.0710   59.5540   22.8000 C.3    94  HIS94       0.1656
     78  C          1.3770   60.0290   22.8000 C.2    94  HIS94       0.2291
     79  O          2.3280   59.2670   23.0460 O.2    94  HIS94      -0.2864
     80  CB        -0.6020   59.3240   24.2130 C.3    94  HIS94       0.0771
     81  CG        -0.5520   60.5520   25.0600 C.ar   94  HIS94       0.0820
     82  ND1       -1.2930   61.6800   24.7740 N.ar   94  HIS94      -0.2267
     83  CD2        0.2580   60.8800   26.0960 C.ar   94  HIS94       0.1154
     84  CE1       -0.9700   62.6380   25.6310 C.ar   94  HIS94       0.1986
     85  NE2       -0.0550   62.1600   26.4690 N.ar   94  HIS94      -0.2212
     86  N         -2.8460   67.5540   27.4940 N.3   104  MET104     -0.1245
     87  CA        -2.6130   68.5370   26.4220 C.3   104  MET104      0.1570
     88  C         -1.1900   69.1280   26.4510 C.2   104  MET104      0.2261
     89  O         -0.4930   69.0170   27.4370 O.2   104  MET104     -0.2867
     90  CB        -3.6000   69.7000   26.5680 C.3   104  MET104      0.0387
     91  CG        -5.0530   69.2110   26.7210 C.3   104  MET104      0.0595
     92  SD        -5.4340   68.3370   25.2020 S.3   104  MET104     -0.1393
     93  CE        -7.2220   68.4500   25.1750 C.3   104  MET104      0.0692
     94  N         -1.2290   52.6610   23.1630 N.3   123  HIS123     -0.1241
     95  CA        -1.9970   52.0980   24.2250 C.3   123  HIS123      0.1621
     96  C         -3.4560   51.9120   23.8200 C.2   123  HIS123      0.2264
     97  O         -3.9200   52.4110   22.8010 O.2   123  HIS123     -0.2867
     98  CB        -1.9040   52.9790   25.4690 C.3   123  HIS123      0.0745
     99  CG        -2.5270   54.3240   25.2980 C.ar  123  HIS123      0.0817
    100  ND1       -3.8610   54.5630   25.5470 N.ar  123  HIS123     -0.2268
    101  CD2       -2.0120   55.4880   24.8310 C.ar  123  HIS123      0.1154
    102  CE1       -4.1490   55.8160   25.2390 C.ar  123  HIS123      0.1986
    103  NE2       -3.0300   56.4140   24.8610 N.ar  123  HIS123     -0.2212
    104  N         -7.3610   52.5580   24.0620 N.3   125  ILE125     -0.1231
    105  CA        -8.3090   53.5620   24.5010 C.3   125  ILE125      0.1692
    106  C         -9.2270   52.9850   25.5700 C.2   125  ILE125      0.2592
    107  O         -9.8800   51.9780   25.3380 O.2   125  ILE125     -0.2718
    108  CB        -9.1240   54.0720   23.3080 C.3   125  ILE125      0.0266
    109  CG1       -8.1620   54.7530   22.3250 C.3   125  ILE125      0.0019
    110  CG2      -10.2660   54.9670   23.7880 C.3   125  ILE125      0.0020
    111  CD1       -8.8570   55.5650   21.2580 C.3   125  ILE125      0.0001
    112  N         -9.3160   53.6570   26.7140 N.am  126  ASP126     -0.1960
    113  CA       -10.4140   53.4050   27.6250 C.3   126  ASP126      0.1840
    114  C        -11.1990   54.6940   27.7660 C.2   126  ASP126      0.2622
    115  O        -10.9580   55.6650   27.0290 O.2   126  ASP126     -0.2715
    116  CB        -9.9340   52.8170   28.9510 C.3   126  ASP126      0.1450
    117  CG        -9.1480   53.7840   29.7550 C.2   126  ASP126      0.3671
    118  OD1       -8.5220   53.3380   30.7460 O.co2 126  ASP126     -0.2456
    119  OD2       -9.2090   54.9910   29.4070 O.co2 126  ASP126     -0.2456
    120  N        -12.1140   54.7160   28.7220 N.am  127  HIS127     -0.1959
    121  CA       -13.0860   55.7820   28.8000 C.3   127  HIS127      0.1787
    122  C        -12.5170   57.1540   29.1660 C.2   127  HIS127      0.2621
    123  O        -13.1660   58.1920   29.0140 O.2   127  HIS127     -0.2715
    124  CB       -14.1160   55.3890   29.8170 C.3   127  HIS127      0.0785
    125  CG       -15.4090   56.0720   29.6050 C.ar  127  HIS127      0.0821
    126  ND1      -16.3680   55.5670   28.7550 N.ar  127  HIS127     -0.2267
    127  CD2      -15.8750   57.2590   30.0620 C.ar  127  HIS127      0.1154
    128  CE1      -17.3890   56.4030   28.7220 C.ar  127  HIS127      0.1986
    129  NE2      -17.1190   57.4320   29.5090 N.ar  127  HIS127     -0.2212
    130  N        -11.3150   57.1590   29.7140 N.am  128  GLY128     -0.1940
    131  CA       -10.7820   58.3810   30.2450 C.3   128  GLY128      0.2014
    132  C         -9.6690   58.9530   29.3810 C.2   128  GLY128      0.2639
    133  O         -9.4090   58.5230   28.2680 O.2   128  GLY128     -0.2714
    134  N         -8.9790   59.9220   29.9520 N.am  129  ILE129     -0.1963
    135  CA        -7.9700   60.6630   29.2230 C.3   129  ILE129      0.1727
    136  C         -6.6200   59.9890   29.2840 C.2   129  ILE129      0.2616
    137  O         -5.9550   60.0380   30.3170 O.2   129  ILE129     -0.2715
    138  CB        -7.8120   62.0720   29.7970 C.3   129  ILE129      0.0290
    139  CG1       -9.1560   62.8060   29.7400 C.3   129  ILE129      0.0022
    140  CG2       -6.7360   62.8260   29.0150 C.3   129  ILE129      0.0023
    141  CD1       -9.6650   62.9230   28.3330 C.3   129  ILE129      0.0001
    142  N         -6.2170   59.3920   28.1700 N.am  130  ASP130     -0.1971
    143  CA        -4.8780   58.7870   28.0300 C.3   130  ASP130      0.1709
    144  C         -4.5410   57.7990   29.1720 C.2   130  ASP130      0.2293
    145  O         -3.3970   57.6720   29.6170 O.2   130  ASP130     -0.2864
    146  CB        -3.8240   59.9050   27.9100 C.3   130  ASP130      0.1436
    147  CG        -4.0530   60.8170   26.6940 C.2   130  ASP130      0.3671
    148  OD1       -4.3990   60.3090   25.5780 O.co2 130  ASP130     -0.2456
    149  OD2       -3.7560   62.0400   26.8430 O.co2 130  ASP130     -0.2456
    150  N         -0.9710   64.9310   34.3920 N.3   187  TYR187     -0.1241
    151  CA        -1.9390   65.3540   33.4110 C.3   187  TYR187      0.1605
    152  C         -1.9330   66.8680   33.3970 C.2   187  TYR187      0.2264
    153  O         -1.9200   67.4690   34.4700 O.2   187  TYR187     -0.2867
    154  CB        -3.3440   64.9200   33.8300 C.3   187  TYR187      0.0534
    155  CG        -4.4610   65.6390   33.1070 C.ar  187  TYR187     -0.0201
    156  CD1       -4.8080   65.3240   31.7880 C.ar  187  TYR187     -0.0009
    157  CD2       -5.1990   66.6180   33.7520 C.ar  187  TYR187     -0.0009
    158  CE1       -5.8680   65.9580   31.1520 C.ar  187  TYR187      0.0417
    159  CE2       -6.2380   67.2590   33.1160 C.ar  187  TYR187      0.0417
    160  CZ        -6.5500   66.9580   31.7980 C.ar  187  TYR187      0.1957
    161  OH        -7.6060   67.6320   31.1880 O.3   187  TYR187     -0.2866
    162  N         -4.3940   69.9820   31.4850 N.3   189  SER189     -0.1202
    163  CA        -5.5640   70.3370   30.6730 C.3   189  SER189      0.2020
    164  C         -5.4050   71.4950   29.6860 C.2   189  SER189      0.2619
    165  O         -4.3500   72.1940   29.6360 O.2   189  SER189     -0.2717
    166  CB        -6.7140   70.6750   31.6060 C.3   189  SER189      0.2103
    167  OG        -6.5080   71.9670   32.1540 O.3   189  SER189     -0.2182
    168  N         -6.4930   71.7330   28.9430 N.am  190  LYS190     -0.1965
    169  CA        -6.5960   72.8220   27.9790 C.3   190  LYS190      0.1728
    170  C         -6.2970   74.1340   28.6380 C.2   190  LYS190      0.2616
    171  O         -5.7470   75.0620   28.0380 O.2   190  LYS190     -0.2715
    172  CB        -8.0280   72.9340   27.4090 C.3   190  LYS190      0.0311
    173  CG        -8.4140   71.7910   26.4780 C.3   190  LYS190      0.0038
    174  CD        -9.2560   72.2340   25.2850 C.3   190  LYS190      0.0206
    175  CE        -8.4810   73.1780   24.3680 C.3   190  LYS190      0.1093
    176  NZ        -8.4750   72.7120   22.9580 N.3   190  LYS190     -0.1314
    177  N         -6.6660   74.2080   29.9030 N.am  191  LYS191     -0.1977
    178  CA        -6.6000   75.4720   30.5940 C.3   191  LYS191      0.1596
    179  C         -5.2210   75.6770   31.1600 C.2   191  LYS191      0.2287
    180  O         -4.9680   76.7560   31.6710 O.2   191  LYS191     -0.2864
    181  CB        -7.6340   75.5530   31.7130 C.3   191  LYS191      0.0298
    182  CG        -9.0390   75.8350   31.1700 C.3   191  LYS191      0.0038
    183  CD       -10.0530   74.8180   31.6780 C.3   191  LYS191      0.0206
    184  CE       -11.3880   74.9600   30.9520 C.3   191  LYS191      0.1093
    185  NZ       -12.4970   74.3280   31.7170 N.3   191  LYS191     -0.1314
@<TRIPOS>BOND
     1    43    42    1
     2    25    23   ar
     3    25    26   ar
     4    23    21   ar
     5    26    24   ar
     6    33    32   ar
     7    42    41    1
     8    34    32   ar
     9    21    20    1
    10    21    22   ar
    11    11    12    1
    12    11     8    1
    13    10     9    2
    14    32    31    1
    15     1     2    1
    16     3     2    1
    17     3     4    2
    18     2     5    1
    19     9    16   am
    20     9     8    1
    21    17    20    1
    22    17    16    1
    23    17    18    1
    24     7     8    1
    25    24    22   ar
    26    41    40    1
    27    12    13    1
    28    31    28    1
    29    27    18   am
    30    27    28    1
    31    74    72    1
    32    18    19    2
    33     5     6    1
    34    40    39    1
    35    28    29    1
    36    13    14   ar
    37    13    15   ar
    38    72    73    1
    39    72    69    1
    40    39    36    1
    41    73    75    1
    42    35    29   am
    43    35    36    1
    44    29    30    2
    45    59    57    1
    46    36    37    1
    47    68    69    1
    48    68    62   am
    49    57    56    1
    50    69    70    1
    51    38    37    2
    52    61    62    1
    53    61    60    1
    54    61    64    1
    55    71    70    2
    56    67    65   am
    57    62    63    2
    58    37    44   am
    59    58    56    1
    60    70    76   am
    61    56    53    1
    62   111   109    1
    63    65    64    1
    64    65    66    2
    65    47    46    2
    66    44    45    1
    67    76    77    1
    68    53    52    1
    69    53    54    1
    70    46    52   am
    71    46    45    1
    72   109   108    1
    73    78    77    1
    74    78    79    2
    75    77    80    1
    76    97    96    2
    77    45    48    1
    78   176   175    1
    79    94    95    1
    80    54    55    2
    81   108   110    1
    82   108   105    1
    83    96    95    1
    84   104   105    1
    85    48    49    1
    86    48    50    1
    87    80    81    1
    88    95    98    1
    89   175   174    1
    90   105   106    1
    91    82    81   ar
    92    82    84   ar
    93   101   103   ar
    94   101    99   ar
    95    49    51    1
    96   103   102   ar
    97    81    83   ar
    98    93    92    1
    99    92    91    1
   100   102   100   ar
   101   174   173    1
   102    99    98    1
   103    99   100   ar
   104   107   106    2
   105   106   112   am
   106   148   147   ar
   107    84    85   ar
   108    83    85   ar
   109    87    88    1
   110    87    90    1
   111    87    86    1
   112    88    89    2
   113   173   172    1
   114    90    91    1
   115   147   149   ar
   116   147   146    1
   117   112   113    1
   118   115   114    2
   119   172   169    1
   120   113   114    1
   121   113   116    1
   122   114   120   am
   123   146   143    1
   124   169   170    1
   125   169   168    1
   126   143   142    1
   127   143   144    1
   128   171   170    2
   129   142   136   am
   130   133   132    2
   131   141   139    1
   132   170   177   am
   133   128   126   ar
   134   128   129   ar
   135   120   121    1
   136   126   125   ar
   137   121   122    1
   138   121   124    1
   139   168   164   am
   140   116   117    1
   141   123   122    2
   142   140   138    1
   143   122   130   am
   144   144   145    2
   145   135   136    1
   146   135   138    1
   147   135   134    1
   148   136   137    2
   149   132   134   am
   150   132   131    1
   151   119   117   ar
   152   129   127   ar
   153   125   124    1
   154   125   127   ar
   155   165   164    2
   156   164   163    1
   157   130   131    1
   158   139   138    1
   159   117   118   ar
   160   177   178    1
   161   178   179    1
   162   178   181    1
   163   163   162    1
   164   163   166    1
   165   184   183    1
   166   184   185    1
   167   158   156   ar
   168   158   160   ar
   169   179   180    2
   170   182   183    1
   171   182   181    1
   172   161   160    1
   173   166   167    1
   174   156   155   ar
   175   160   159   ar
   176   155   157   ar
   177   155   154    1
   178   159   157   ar
   179   152   151    1
   180   152   153    2
   181   151   154    1
   182   151   150    1
