@<TRIPOS>MOLECULE
tmp/4xd0A02.pdb
 218 214 0 0 0
SMALL
GASTEIGER

@<TRIPOS>ATOM
      1  N         -4.9150   63.0740   12.2190 N.3     8  LYS8       -0.1245
      2  CA        -4.4520   64.2430   11.4940 C.3     8  LYS8        0.1561
      3  C         -2.9350   64.2240   11.3660 C.2     8  LYS8        0.2260
      4  O         -2.2680   63.3800   11.9820 O.2     8  LYS8       -0.2867
      5  CB        -4.8790   65.5480   12.1830 C.3     8  LYS8        0.0271
      6  CG        -4.2160   65.8180   13.5290 C.3     8  LYS8        0.0035
      7  CD        -4.3020   67.3030   13.9020 C.3     8  LYS8        0.0206
      8  CE        -3.6780   67.5680   15.2580 C.3     8  LYS8        0.1093
      9  NZ        -3.8250   69.0130   15.6270 N.3     8  LYS8       -0.1314
     10  N        -10.1800   65.2120   11.7390 N.3    33  ASN33      -0.1240
     11  CA       -10.3740   66.1320   12.8330 C.3    33  ASN33       0.1653
     12  C        -11.2320   67.3020   12.3400 C.2    33  ASN33       0.2266
     13  O        -11.2380   67.6740   11.1390 O.2    33  ASN33      -0.2867
     14  CB        -9.0410   66.6690   13.3800 C.3    33  ASN33       0.1155
     15  CG        -8.2480   65.6620   14.1840 C.2    33  ASN33       0.2627
     16  OD1       -8.4930   64.4360   14.1180 O.2    33  ASN33      -0.2716
     17  ND2       -7.2670   66.1680   14.9650 N.am   33  ASN33      -0.0877
     18  N          2.4890   73.0880    7.9730 N.3    42  PHE42      -0.1241
     19  CA         3.7860   72.5030    8.3130 C.3    42  PHE42       0.1605
     20  C          3.5400   71.0040    8.4430 C.2    42  PHE42       0.2264
     21  O          4.4940   70.2330    8.4930 O.2    42  PHE42      -0.2867
     22  CB         4.3800   73.1120    9.5990 C.3    42  PHE42       0.0534
     23  CG         3.7950   72.5760   10.8710 C.ar   42  PHE42      -0.0203
     24  CD1        4.4830   71.6550   11.6330 C.ar   42  PHE42      -0.0042
     25  CD2        2.5270   72.9350   11.2690 C.ar   42  PHE42      -0.0042
     26  CE1        3.9570   71.1220   12.7930 C.ar   42  PHE42      -0.0003
     27  CE2        2.0060   72.4450   12.4460 C.ar   42  PHE42      -0.0003
     28  CZ         2.6870   71.4960   13.1750 C.ar   42  PHE42      -0.0000
     29  N         -3.5690   61.4110   16.9030 N.3    75  GLU75      -0.1231
     30  CA        -3.8240   62.8400   17.1630 C.3    75  GLU75       0.1699
     31  C         -5.2540   63.2560   16.8180 C.2    75  GLU75       0.2592
     32  O         -5.5540   64.4330   16.5320 O.2    75  GLU75      -0.2718
     33  CB        -2.7760   63.7240   16.4810 C.3    75  GLU75       0.0402
     34  CG        -1.3580   63.5310   17.0250 C.3    75  GLU75       0.1161
     35  CD        -1.2220   63.9210   18.4890 C.2    75  GLU75       0.3649
     36  OE1       -1.2040   65.1240   18.8320 O.co2  75  GLU75      -0.2457
     37  OE2       -1.2340   63.0080   19.3230 O.co2  75  GLU75      -0.2457
     38  N         -6.1590   62.3060   16.9970 N.am   76  PHE76      -0.1962
     39  CA        -7.5900   62.5640   16.8490 C.3    76  PHE76       0.1771
     40  C         -8.1310   63.4870   17.9140 C.2    76  PHE76       0.2619
     41  O         -7.5900   63.6140   19.0090 O.2    76  PHE76      -0.2715
     42  CB        -8.3520   61.2360   16.8520 C.3    76  PHE76       0.0574
     43  CG        -9.8170   61.3530   16.4590 C.ar   76  PHE76      -0.0200
     44  CD1      -10.7930   60.8420   17.2820 C.ar   76  PHE76      -0.0042
     45  CD2      -10.1820   61.8710   15.2200 C.ar   76  PHE76      -0.0042
     46  CE1      -12.1290   60.9460   16.9180 C.ar   76  PHE76      -0.0003
     47  CE2      -11.5110   62.0000   14.8630 C.ar   76  PHE76      -0.0003
     48  CZ       -12.4820   61.5090   15.7140 C.ar   76  PHE76      -0.0000
     49  N         -9.2240   64.1810   17.5920 N.am   77  ASP77      -0.1971
     50  CA        -9.6460   65.2930   18.4250 C.3    77  ASP77       0.1709
     51  C        -10.9500   65.0560   19.2010 C.2    77  ASP77       0.2293
     52  O        -11.3420   65.8950   19.9940 O.2    77  ASP77      -0.2864
     53  CB        -9.7730   66.5550   17.5540 C.3    77  ASP77       0.1436
     54  CG       -10.8900   66.4530   16.5410 C.2    77  ASP77       0.3671
     55  OD1      -11.3540   67.4960   16.0570 O.co2  77  ASP77      -0.2456
     56  OD2      -11.3590   65.3410   16.2530 O.co2  77  ASP77      -0.2456
     57  N         -4.5690   54.1140   20.5570 N.3    92  ASN92      -0.1225
     58  CA        -4.2400   55.5140   20.4560 C.3    92  ASN92       0.1785
     59  C         -2.7180   55.6090   20.5240 C.2    92  ASN92       0.2597
     60  O         -2.0500   54.8120   21.2130 O.2    92  ASN92      -0.2718
     61  CB        -4.8290   56.2730   21.6270 C.3    92  ASN92       0.1169
     62  CG        -4.4840   57.7650   21.5880 C.2    92  ASN92       0.2627
     63  OD1       -3.9280   58.3550   22.5410 O.2    92  ASN92      -0.2716
     64  ND2       -4.8170   58.3650   20.5150 N.am   92  ASN92      -0.0877
     65  N         -2.2010   56.6050   19.8280 N.am   93  ILE93      -0.1966
     66  CA        -0.8150   57.0570   20.0320 C.3    93  ILE93       0.1727
     67  C         -0.8500   58.3650   20.8280 C.2    93  ILE93       0.2616
     68  O         -1.5900   59.2800   20.4880 O.2    93  ILE93      -0.2715
     69  CB        -0.0800   57.2210   18.7020 C.3    93  ILE93       0.0290
     70  CG1        1.3880   57.5560   18.9540 C.3    93  ILE93       0.0022
     71  CG2       -0.7300   58.3050   17.8560 C.3    93  ILE93       0.0023
     72  CD1        2.1640   56.2610   19.2430 C.3    93  ILE93       0.0001
     73  N         -0.1710   58.3690   21.9800 N.am   94  HIS94      -0.1959
     74  CA        -0.0710   59.5540   22.8000 C.3    94  HIS94       0.1787
     75  C          1.3770   60.0290   22.8000 C.2    94  HIS94       0.2620
     76  O          2.3280   59.2670   23.0460 O.2    94  HIS94      -0.2715
     77  CB        -0.6020   59.3240   24.2130 C.3    94  HIS94       0.0785
     78  CG        -0.5520   60.5520   25.0600 C.ar   94  HIS94       0.0821
     79  ND1       -1.2930   61.6800   24.7740 N.ar   94  HIS94      -0.2267
     80  CD2        0.2580   60.8800   26.0960 C.ar   94  HIS94       0.1154
     81  CE1       -0.9700   62.6380   25.6310 C.ar   94  HIS94       0.1986
     82  NE2       -0.0550   62.1600   26.4690 N.ar   94  HIS94      -0.2212
     83  N          1.4900   61.3370   22.6630 N.am   95  PHE95      -0.1974
     84  CA         2.7690   62.0040   22.6020 C.3    95  PHE95       0.1639
     85  C          3.3270   62.3050   24.0090 C.2    95  PHE95       0.2290
     86  O          3.5680   63.4600   24.3550 O.2    95  PHE95      -0.2864
     87  CB         2.5920   63.2790   21.7410 C.3    95  PHE95       0.0560
     88  CG         2.4350   63.0300   20.2490 C.ar   95  PHE95      -0.0200
     89  CD1        2.5230   61.7560   19.6950 C.ar   95  PHE95      -0.0042
     90  CD2        2.2130   64.1010   19.3860 C.ar   95  PHE95      -0.0042
     91  CE1        2.3760   61.5540   18.3310 C.ar   95  PHE95      -0.0003
     92  CE2        2.1150   63.9140   18.0160 C.ar   95  PHE95      -0.0003
     93  CZ         2.1780   62.6230   17.4830 C.ar   95  PHE95      -0.0000
     94  N         -2.9190   64.1050   28.5820 N.3   103  GLY103     -0.1210
     95  CA        -3.5940   65.3840   28.3200 C.3   103  GLY103      0.1956
     96  C         -2.8740   66.2380   27.2810 C.2   103  GLY103      0.2612
     97  O         -2.3910   65.7140   26.2790 O.2   103  GLY103     -0.2717
     98  N         -2.8460   67.5540   27.4940 N.am  104  MET104     -0.1965
     99  CA        -2.6130   68.5370   26.4220 C.3   104  MET104      0.1736
    100  C         -1.1900   69.1280   26.4510 C.2   104  MET104      0.2616
    101  O         -0.4930   69.0170   27.4370 O.2   104  MET104     -0.2715
    102  CB        -3.6000   69.7000   26.5680 C.3   104  MET104      0.0427
    103  CG        -5.0530   69.2110   26.7210 C.3   104  MET104      0.0599
    104  SD        -5.4340   68.3370   25.2020 S.3   104  MET104     -0.1393
    105  CE        -7.2220   68.4500   25.1750 C.3   104  MET104      0.0692
    106  N         -0.7710   69.6780   25.3170 N.am  105  TYR105     -0.1960
    107  CA         0.4330   70.5180   25.2080 C.3   105  TYR105      0.1771
    108  C          1.6980   69.7600   25.6000 C.2   105  TYR105      0.2620
    109  O          2.5580   70.2740   26.3130 O.2   105  TYR105     -0.2715
    110  CB         0.2970   71.8040   26.0440 C.3   105  TYR105      0.0574
    111  CG        -1.0200   72.5500   25.7990 C.ar  105  TYR105     -0.0198
    112  CD1       -1.5790   72.6340   24.5170 C.ar  105  TYR105     -0.0009
    113  CD2       -1.6900   73.1700   26.8510 C.ar  105  TYR105     -0.0009
    114  CE1       -2.7700   73.3060   24.2840 C.ar  105  TYR105      0.0417
    115  CE2       -2.8580   73.8630   26.6360 C.ar  105  TYR105      0.0417
    116  CZ        -3.4180   73.9000   25.3590 C.ar  105  TYR105      0.1957
    117  OH        -4.6340   74.5540   25.1380 O.3   105  TYR105     -0.2866
    118  N          1.8450   68.5250   25.1260 N.am  106  THR106     -0.1937
    119  CA         2.9230   67.6700   25.6450 C.3   106  THR106      0.2028
    120  C          4.2330   68.0180   24.9690 C.2   106  THR106      0.2643
    121  O          5.2780   67.4630   25.3210 O.2   106  THR106     -0.2714
    122  CB         2.6230   66.1890   25.4300 C.3   106  THR106      0.1808
    123  OG1        2.5280   65.9250   24.0220 O.3   106  THR106     -0.2208
    124  CG2        1.2930   65.8080   26.1290 C.3   106  THR106      0.0379
    125  N          4.1900   68.9280   23.9970 N.am  107  SER107     -0.1935
    126  CA         5.3910   69.5280   23.4030 C.3   107  SER107      0.2055
    127  C          5.9380   70.7210   24.1560 C.2   107  SER107      0.2642
    128  O          7.1350   71.0970   23.9960 O.2   107  SER107     -0.2714
    129  CB         5.1090   69.9530   21.9430 C.3   107  SER107      0.2130
    130  OG         5.0400   68.8080   21.1090 O.3   107  SER107     -0.2179
    131  N          5.1070   71.2640   25.0380 N.am  108  ALA108     -0.1977
    132  CA         5.4900   72.3450   25.9410 C.3   108  ALA108      0.1597
    133  C          5.8790   71.8990   27.3620 C.2   108  ALA108      0.2287
    134  O          6.9050   72.3030   27.8770 O.2   108  ALA108     -0.2864
    135  CB         4.3400   73.3710   25.9990 C.3   108  ALA108      0.0319
    136  N         -6.2170   59.3920   28.1700 N.3   130  ASP130     -0.1239
    137  CA        -4.8780   58.7870   28.0300 C.3   130  ASP130      0.1674
    138  C         -4.5410   57.7990   29.1720 C.2   130  ASP130      0.2266
    139  O         -3.3970   57.6720   29.6170 O.2   130  ASP130     -0.2867
    140  CB        -3.8240   59.9050   27.9100 C.3   130  ASP130      0.1410
    141  CG        -4.0530   60.8170   26.6940 C.2   130  ASP130      0.3668
    142  OD1       -4.3990   60.3090   25.5780 O.co2 130  ASP130     -0.2456
    143  OD2       -3.7560   62.0400   26.8430 O.co2 130  ASP130     -0.2456
    144  N          9.2780   73.5920   21.5450 N.3   148  ALA148     -0.1245
    145  CA         8.0650   72.8590   21.3450 C.3   148  ALA148      0.1562
    146  C          7.9420   72.3240   19.9040 C.2   148  ALA148      0.2260
    147  O          7.5440   71.1600   19.6960 O.2   148  ALA148     -0.2867
    148  CB         6.9010   73.7500   21.7060 C.3   148  ALA148      0.0290
    149  N          7.7690   68.4440   19.0140 N.3   152  TYR152     -0.1241
    150  CA         6.6290   67.9610   18.2800 C.3   152  TYR152      0.1605
    151  C          6.9550   67.1290   17.0320 C.2   152  TYR152      0.2264
    152  O          6.3980   66.0660   16.8320 O.2   152  TYR152     -0.2867
    153  CB         5.7700   69.1490   17.9060 C.3   152  TYR152      0.0534
    154  CG         4.4830   68.6860   17.3220 C.ar  152  TYR152     -0.0201
    155  CD1        3.4740   68.1920   18.1420 C.ar  152  TYR152     -0.0009
    156  CD2        4.2980   68.6710   15.9560 C.ar  152  TYR152     -0.0009
    157  CE1        2.2960   67.7580   17.6020 C.ar  152  TYR152      0.0417
    158  CE2        3.1030   68.2500   15.4170 C.ar  152  TYR152      0.0417
    159  CZ         2.1200   67.7860   16.2380 C.ar  152  TYR152      0.1957
    160  OH         0.9390   67.4030   15.6550 O.3   152  TYR152     -0.2866
    161  N         -2.5860   79.9480   25.1700 N.3   195  TYR195     -0.1227
    162  CA        -1.7410   80.3890   24.0840 C.3   195  TYR195      0.1736
    163  C         -2.1770   81.7340   23.4780 C.2   195  TYR195      0.2595
    164  O         -1.4030   82.3190   22.7170 O.2   195  TYR195     -0.2718
    165  CB        -1.6110   79.3360   22.9950 C.3   195  TYR195      0.0548
    166  CG        -0.6620   78.2030   23.3520 C.ar  195  TYR195     -0.0200
    167  CD1        0.6960   78.3720   23.2640 C.ar  195  TYR195     -0.0009
    168  CD2       -1.1430   76.9540   23.7180 C.ar  195  TYR195     -0.0009
    169  CE1        1.5750   77.3450   23.5600 C.ar  195  TYR195      0.0417
    170  CE2       -0.2750   75.9130   24.0520 C.ar  195  TYR195      0.0417
    171  CZ         1.0880   76.1140   23.9500 C.ar  195  TYR195      0.1957
    172  OH         1.9840   75.1040   24.2540 O.3   195  TYR195     -0.2866
    173  N         -3.4180   82.1440   23.7380 N.am  196  LYS196     -0.1980
    174  CA        -3.9520   83.4010   23.2060 C.3   196  LYS196      0.1596
    175  C         -3.6470   84.5800   24.1110 C.2   196  LYS196      0.2287
    176  O         -3.7590   85.7380   23.7180 O.2   196  LYS196     -0.2864
    177  CB        -5.4530   83.2620   22.9580 C.3   196  LYS196      0.0298
    178  CG        -5.7840   82.1420   22.0000 C.3   196  LYS196      0.0038
    179  CD        -4.9340   82.2050   20.7370 C.3   196  LYS196      0.0206
    180  CE        -5.3610   81.1770   19.7260 C.3   196  LYS196      0.1093
    181  NZ        -4.6400   81.3400   18.4420 N.3   196  LYS196     -0.1314
    182  N          9.9040   76.5650   25.3700 N.3   215  ALA215     -0.1245
    183  CA         8.6230   75.8330   25.4150 C.3   215  ALA215      0.1562
    184  C          7.5660   76.4750   24.5110 C.2   215  ALA215      0.2260
    185  O          6.6730   75.7920   23.9960 O.2   215  ALA215     -0.2867
    186  CB         8.1050   75.7540   26.8420 C.3   215  ALA215      0.0290
    187  N          7.3780   77.8780   18.6690 N.3   218  PHE218     -0.1241
    188  CA         6.8150   76.9890   17.6520 C.3   218  PHE218      0.1605
    189  C          6.3200   77.8770   16.5130 C.2   218  PHE218      0.2264
    190  O          5.1990   78.4050   16.5640 O.2   218  PHE218     -0.2867
    191  CB         5.7080   76.1750   18.3180 C.3   218  PHE218      0.0534
    192  CG         5.2660   74.9630   17.5550 C.ar  218  PHE218     -0.0203
    193  CD1        4.9540   73.7980   18.2420 C.ar  218  PHE218     -0.0042
    194  CD2        5.1010   74.9760   16.1810 C.ar  218  PHE218     -0.0042
    195  CE1        4.4820   72.6900   17.5690 C.ar  218  PHE218     -0.0003
    196  CE2        4.6780   73.8400   15.5130 C.ar  218  PHE218     -0.0003
    197  CZ         4.3520   72.7000   16.2070 C.ar  218  PHE218     -0.0000
    198  N          2.7820   78.4780   15.0630 N.3   221  TYR221     -0.1227
    199  CA         1.7880   79.0120   15.9800 C.3   221  TYR221      0.1736
    200  C          2.2330   80.3620   16.5150 C.2   221  TYR221      0.2595
    201  O          1.4850   81.2950   16.4550 O.2   221  TYR221     -0.2718
    202  CB         1.5320   78.0910   17.1750 C.3   221  TYR221      0.0548
    203  CG         0.7380   76.8360   16.8110 C.ar  221  TYR221     -0.0200
    204  CD1       -0.6300   76.8940   16.5220 C.ar  221  TYR221     -0.0009
    205  CD2        1.3590   75.6130   16.7720 C.ar  221  TYR221     -0.0009
    206  CE1       -1.3370   75.7490   16.1570 C.ar  221  TYR221      0.0417
    207  CE2        0.6800   74.4620   16.4090 C.ar  221  TYR221      0.0417
    208  CZ        -0.6620   74.5270   16.1150 C.ar  221  TYR221      0.1957
    209  OH        -1.2830   73.3430   15.8050 O.3   221  TYR221     -0.2866
    210  N          3.3720   80.4240   17.1880 N.am  222  GLN222     -0.1979
    211  CA         3.8240   81.7040   17.7270 C.3   222  GLN222      0.1601
    212  C          5.2900   81.6630   18.1230 C.2   222  GLN222      0.2287
    213  O          5.8760   80.5930   18.3520 O.2   222  GLN222     -0.2864
    214  CB         2.9960   82.1320   18.9430 C.3   222  GLN222      0.0394
    215  CG         3.3280   81.3960   20.2270 C.3   222  GLN222      0.0908
    216  CD         2.8620   79.9530   20.2830 C.2   222  GLN222      0.2608
    217  OE1        1.6790   79.6580   20.1700 O.2   222  GLN222     -0.2717
    218  NE2        3.8030   79.0470   20.5240 N.am  222  GLN222     -0.0878
@<TRIPOS>BOND
     1    18    19    1
     2    19    20    1
     3    19    22    1
     4    20    21    2
     5    22    23    1
     6    23    25   ar
     7    23    24   ar
     8    13    12    2
     9    25    27   ar
    10     3     2    1
    11     3     4    2
    12     2     5    1
    13     2     1    1
    14    24    26   ar
    15    10    11    1
    16     5     6    1
    17    12    11    1
    18    27    28   ar
    19    26    28   ar
    20    11    14    1
    21    14    15    1
    22     6     7    1
    23     7     8    1
    24    16    15    2
    25    15    17   am
    26    47    45   ar
    27    47    48   ar
    28   198   199    1
    29    45    43   ar
    30     8     9    1
    31   158   156   ar
    32   158   159   ar
    33   196   194   ar
    34   196   197   ar
    35   160   159    1
    36    48    46   ar
    37   209   208    1
    38   156   154   ar
    39   199   200    1
    40   199   202    1
    41    55    54   ar
    42   208   206   ar
    43   208   207   ar
    44   206   204   ar
    45   194   192   ar
    46   197   195   ar
    47   159   157   ar
    48    56    54   ar
    49   207   205   ar
    50   201   200    2
    51    43    42    1
    52    43    44   ar
    53    33    34    1
    54    33    30    1
    55   189   190    2
    56   189   188    1
    57   200   210   am
    58   204   203   ar
    59    32    31    2
    60    54    53    1
    61   205   203   ar
    62   203   202    1
    63    31    38   am
    64    31    30    1
    65   152   151    2
    66    39    42    1
    67    39    38    1
    68    39    40    1
    69    29    30    1
    70    46    44   ar
    71    34    35    1
    72   151   150    1
    73   210   211    1
    74   154   153    1
    75   154   155   ar
    76    93    92   ar
    77    93    91   ar
    78    53    50    1
    79   192   193   ar
    80   192   191    1
    81   195   193   ar
    82    49    40   am
    83    49    50    1
    84   157   155   ar
    85   188   191    1
    86   188   187    1
    87   211   212    1
    88   211   214    1
    89    71    69    1
    90   153   150    1
    91    40    41    2
    92    92    90   ar
    93   212   213    2
    94   150   149    1
    95    91    89   ar
    96    50    51    1
    97   181   180    1
    98    35    36   ar
    99    35    37   ar
   100    69    70    1
   101    69    66    1
   102   214   215    1
   103    70    72    1
   104    51    52    2
   105    90    88   ar
   106    89    88   ar
   107   147   146    2
   108   180   179    1
   109    65    66    1
   110    65    59   am
   111   146   145    1
   112    66    67    1
   113   217   216    2
   114   215   216    1
   115    88    87    1
   116   216   218   am
   117    58    59    1
   118    58    57    1
   119    58    61    1
   120    68    67    2
   121    64    62   am
   122    59    60    2
   123   179   178    1
   124    67    73   am
   125   130   129    1
   126   145   144    1
   127   145   148    1
   128    62    61    1
   129    62    63    2
   130    87    84    1
   131   129   126    1
   132    73    74    1
   133   178   177    1
   134    84    83    1
   135    84    85    1
   136    83    75   am
   137   164   163    2
   138    75    74    1
   139    75    76    2
   140    74    77    1
   141   177   174    1
   142   165   166    1
   143   165   162    1
   144   174   173    1
   145   174   175    1
   146   167   166   ar
   147   167   169   ar
   148   166   168   ar
   149   126   125    1
   150   126   127    1
   151   163   173   am
   152   163   162    1
   153   169   171   ar
   154   168   170   ar
   155   176   175    2
   156   171   170   ar
   157   171   172    1
   158   128   127    2
   159   185   184    2
   160   125   120   am
   161    85    86    2
   162   123   122    1
   163   162   161    1
   164   127   131   am
   165    77    78    1
   166   114   112   ar
   167   114   116   ar
   168   184   183    1
   169   112   111   ar
   170    79    78   ar
   171    79    81   ar
   172   120   121    2
   173   120   119    1
   174   131   132    1
   175    78    80   ar
   176   118   108   am
   177   118   119    1
   178   117   116    1
   179   105   104    1
   180   104   103    1
   181   107   106    1
   182   107   108    1
   183   107   110    1
   184   106   100   am
   185   116   115   ar
   186   182   183    1
   187   183   186    1
   188   122   119    1
   189   122   124    1
   190   142   141   ar
   191   108   109    2
   192    81    82   ar
   193   111   110    1
   194   111   113   ar
   195   132   135    1
   196   132   133    1
   197    80    82   ar
   198    97    96    2
   199    99   100    1
   200    99   102    1
   201    99    98    1
   202   100   101    2
   203   102   103    1
   204   115   113   ar
   205   141   143   ar
   206   141   140    1
   207    96    98   am
   208    96    95    1
   209   133   134    2
   210   140   137    1
   211   137   136    1
   212   137   138    1
   213    95    94    1
   214   138   139    2
