@<TRIPOS>MOLECULE
tmp/4xd8A00.pdb
 170 160 0 0 0
SMALL
GASTEIGER

@<TRIPOS>ATOM
      1  N          3.1720    9.0380   20.9010 N.3    36  GLU36      -0.1231
      2  CA         1.7730    9.4600   20.7420 C.3    36  GLU36       0.1699
      3  C          1.1420    8.9120   19.4750 C.2    36  GLU36       0.2592
      4  O         -0.0500    8.5180   19.4990 O.2    36  GLU36      -0.2718
      5  CB         1.6410   10.9830   20.7830 C.3    36  GLU36       0.0402
      6  CG         2.0880   11.5950   22.1310 C.3    36  GLU36       0.1161
      7  CD         1.2990   11.0430   23.2920 C.2    36  GLU36       0.3649
      8  OE1        0.0550   10.9190   23.1590 O.co2  36  GLU36      -0.2457
      9  OE2        1.9120   10.7490   24.3440 O.co2  36  GLU36      -0.2457
     10  N          1.9060    8.8800   18.3750 N.am   37  LEU37      -0.1980
     11  CA         1.3990    8.2750   17.1100 C.3    37  LEU37       0.1596
     12  C          1.0150    6.7990   17.3430 C.2    37  LEU37       0.2287
     13  O         -0.0480    6.3360   16.9240 O.2    37  LEU37      -0.2864
     14  CB         2.4430    8.3050   15.9610 C.3    37  LEU37       0.0297
     15  CG         2.9990    9.5630   15.2530 C.3    37  LEU37       0.0022
     16  CD1        4.1570    9.2030   14.3260 C.3    37  LEU37       0.0001
     17  CD2        1.9830   10.3290   14.4740 C.3    37  LEU37       0.0001
     18  N          0.4590    5.2700   20.2550 N.3    39  SER39      -0.1202
     19  CA        -0.6420    5.2510   21.2450 C.3    39  SER39       0.2020
     20  C         -1.9970    5.4080   20.5510 C.2    39  SER39       0.2619
     21  O         -2.9530    4.6880   20.8290 O.2    39  SER39      -0.2717
     22  CB        -0.4670    6.3850   22.2730 C.3    39  SER39       0.2103
     23  OG        -1.4980    6.3400   23.2510 O.3    39  SER39      -0.2182
     24  N         -2.0660    6.3670   19.6260 N.am   40  ASN40      -0.1960
     25  CA        -3.3440    6.6000   18.9210 C.3    40  ASN40       0.1819
     26  C         -3.7290    5.4270   18.0470 C.2    40  ASN40       0.2621
     27  O         -4.9140    5.0930   17.9440 O.2    40  ASN40      -0.2715
     28  CB        -3.3140    7.8970   18.1100 C.3    40  ASN40       0.1195
     29  CG        -3.4480    9.0970   18.9960 C.2    40  ASN40       0.2630
     30  OD1       -3.9600    8.9750   20.1110 O.2    40  ASN40      -0.2716
     31  ND2       -3.0150   10.2600   18.5270 N.am   40  ASN40      -0.0877
     32  N         -2.7430    4.8260   17.3980 N.am   41  ALA41      -0.1977
     33  CA        -2.9730    3.6230   16.5810 C.3    41  ALA41       0.1597
     34  C         -3.4850    2.4830   17.4480 C.2    41  ALA41       0.2287
     35  O         -4.4640    1.8290   17.0920 O.2    41  ALA41      -0.2864
     36  CB        -1.6990    3.2120   15.8270 C.3    41  ALA41       0.0319
     37  N         -4.9850    2.6750   20.3680 N.3    43  ASP43      -0.1225
     38  CA        -6.3430    2.9760   20.8610 C.3    43  ASP43       0.1805
     39  C         -7.3680    2.6990   19.7700 C.2    43  ASP43       0.2597
     40  O         -8.4360    2.1560   20.0410 O.2    43  ASP43      -0.2718
     41  CB        -6.4620    4.4440   21.2760 C.3    43  ASP43       0.1424
     42  CG        -5.6790    4.7880   22.5460 C.2    43  ASP43       0.3668
     43  OD1       -5.2060    3.8710   23.2670 O.co2  43  ASP43      -0.2456
     44  OD2       -5.5420    6.0060   22.8210 O.co2  43  ASP43      -0.2456
     45  N         -7.0410    3.0930   18.5280 N.am   44  ALA44      -0.1979
     46  CA        -7.9550    2.8750   17.3910 C.3    44  ALA44       0.1597
     47  C         -8.1790    1.3770   17.1170 C.2    44  ALA44       0.2287
     48  O         -9.2950    0.9390   16.7980 O.2    44  ALA44      -0.2864
     49  CB        -7.4020    3.5810   16.1690 C.3    44  ALA44       0.0319
     50  N        -10.4010   -0.0030   19.8090 N.3    47  LYS47      -0.1245
     51  CA       -11.7990    0.3720   19.6370 C.3    47  LYS47       0.1561
     52  C        -12.4990   -0.6010   18.6510 C.2    47  LYS47       0.2260
     53  O        -13.6010   -1.0590   18.9190 O.2    47  LYS47      -0.2867
     54  CB       -11.9280    1.8050   19.1520 C.3    47  LYS47       0.0271
     55  CG       -13.3090    2.4080   19.2290 C.3    47  LYS47       0.0035
     56  CD       -13.1900    3.9330   19.2610 C.3    47  LYS47       0.0206
     57  CE       -12.0190    4.3140   20.1420 C.3    47  LYS47       0.1093
     58  NZ       -11.9830    5.7220   20.5990 N.3    47  LYS47      -0.1314
     59  N         -2.5040    2.3160   10.6920 N.3    82  ASP82      -0.1239
     60  CA        -3.1610    1.2980   11.5040 C.3    82  ASP82       0.1674
     61  C         -4.4220    0.8200   10.8090 C.2    82  ASP82       0.2266
     62  O         -4.9750    1.5340    9.9570 O.2    82  ASP82      -0.2867
     63  CB        -3.4790    1.8430   12.9130 C.3    82  ASP82       0.1410
     64  CG        -4.5420    2.9210   12.9110 C.2    82  ASP82       0.3668
     65  OD1       -5.7290    2.6070   12.6770 O.co2  82  ASP82      -0.2456
     66  OD2       -4.1740    4.0860   13.1390 O.co2  82  ASP82      -0.2456
     67  N        -10.1530    1.6950   14.0170 N.3    85  ILE85      -0.1231
     68  CA       -11.5330    2.1080   13.7540 C.3    85  ILE85       0.1692
     69  C        -11.6650    3.0900   12.5860 C.2    85  ILE85       0.2593
     70  O        -12.6790    3.0900   11.8600 O.2    85  ILE85      -0.2718
     71  CB       -12.1680    2.7240   15.0400 C.3    85  ILE85       0.0266
     72  CG1      -13.6510    3.0220   14.8120 C.3    85  ILE85       0.0019
     73  CG2      -11.4250    3.9500   15.5030 C.3    85  ILE85       0.0020
     74  CD1      -14.5110    1.9370   15.2450 C.3    85  ILE85       0.0001
     75  N        -10.6580    3.9420   12.4180 N.am   86  GLY86      -0.1942
     76  CA       -10.7480    5.0150   11.4160 C.3    86  GLY86       0.2014
     77  C        -11.6580    6.1510   11.8660 C.2    86  GLY86       0.2638
     78  O        -12.4020    6.0270   12.8560 O.2    86  GLY86      -0.2714
     79  N        -11.6010    7.2440   11.1210 N.am   87  MET87      -0.1976
     80  CA       -12.3810    8.4280   11.4140 C.3    87  MET87       0.1605
     81  C        -13.2210    8.7970   10.2050 C.2    87  MET87       0.2287
     82  O        -12.7130    8.8350    9.0790 O.2    87  MET87      -0.2864
     83  CB       -11.4400    9.5900   11.7320 C.3    87  MET87       0.0413
     84  CG       -10.7730    9.4810   13.0880 C.3    87  MET87       0.0598
     85  SD        -9.5520   10.7770   13.4250 S.3    87  MET87      -0.1393
     86  CE        -8.0870   10.1040   12.5900 C.3    87  MET87       0.0692
     87  N        -12.3450   15.9300   16.0600 N.3    95  ASN95      -0.1225
     88  CA       -11.2380   15.4110   16.8640 C.3    95  ASN95       0.1785
     89  C         -9.8900   16.0290   16.5810 C.2    95  ASN95       0.2597
     90  O         -9.0150   16.0000   17.4440 O.2    95  ASN95      -0.2718
     91  CB       -11.1640   13.9090   16.7440 C.3    95  ASN95       0.1169
     92  CG       -12.2050   13.2340   17.5900 C.2    95  ASN95       0.2627
     93  OD1      -12.1770   13.3390   18.8120 O.2    95  ASN95      -0.2716
     94  ND2      -13.1090   12.5360   16.9600 N.am   95  ASN95      -0.0877
     95  N         -9.7330   16.6130   15.3910 N.am   96  LEU96      -0.1980
     96  CA        -8.4290   17.1250   14.9480 C.3    96  LEU96       0.1596
     97  C         -8.4760   18.6480   14.7240 C.2    96  LEU96       0.2287
     98  O         -7.8450   19.1730   13.7940 O.2    96  LEU96      -0.2864
     99  CB        -7.9570   16.3850   13.6690 C.3    96  LEU96       0.0297
    100  CG        -7.8530   14.8450   13.7120 C.3    96  LEU96       0.0022
    101  CD1       -7.4350   14.2250   12.3660 C.3    96  LEU96       0.0001
    102  CD2       -6.9240   14.3380   14.8470 C.3    96  LEU96       0.0001
    103  N        -10.7050   20.7560   24.5900 N.3   101  ARG101     -0.1245
    104  CA       -11.0170   20.4620   25.9720 C.3   101  ARG101      0.1563
    105  C        -10.1040   21.3230   26.8430 C.2   101  ARG101      0.2260
    106  O         -9.1690   21.9650   26.3190 O.2   101  ARG101     -0.2867
    107  CB       -10.8370   18.9860   26.2610 C.3   101  ARG101      0.0307
    108  CG        -9.5200   18.3940   25.7300 C.3   101  ARG101      0.0489
    109  CD        -9.4570   16.9100   25.9620 C.3   101  ARG101      0.2205
    110  NE        -9.8360   16.6060   27.3500 N.pl3 101  ARG101     -0.0865
    111  CZ       -10.0860   15.3860   27.8060 C.cat 101  ARG101      0.5346
    112  NH1       -9.9950   14.3540   26.9980 N.pl3 101  ARG101      0.1354
    113  NH2      -10.4460   15.2000   29.0680 N.pl3 101  ARG101      0.1354
    114  N          0.4570   13.8560   26.0730 N.3   122  GLY122     -0.1225
    115  CA        -0.6440   12.8750   25.9650 C.3   122  GLY122      0.1811
    116  C         -1.5830   12.8340   27.1640 C.2   122  GLY122      0.2280
    117  O         -2.7680   12.5150   27.0160 O.2   122  GLY122     -0.2866
    118  N         -4.6820   15.3560   26.7990 N.3   125  GLY125     -0.1210
    119  CA        -5.7020   15.1350   25.7790 C.3   125  GLY125      0.1956
    120  C         -5.3910   15.7950   24.4520 C.2   125  GLY125      0.2612
    121  O         -6.2830   16.0000   23.6210 O.2   125  GLY125     -0.2717
    122  N         -4.1140   16.1380   24.2540 N.am  126  VAL126     -0.1965
    123  CA        -3.6980   16.8110   23.0240 C.3   126  VAL126      0.1727
    124  C         -2.4450   16.1680   22.4000 C.2   126  VAL126      0.2617
    125  O         -1.6930   16.8150   21.6670 O.2   126  VAL126     -0.2715
    126  CB        -3.4790   18.3360   23.2500 C.3   126  VAL126      0.0290
    127  CG1       -4.8290   19.0840   23.3070 C.3   126  VAL126      0.0023
    128  CG2       -2.6510   18.6220   24.5410 C.3   126  VAL126      0.0023
    129  N         -2.2620   14.8900   22.6820 N.am  127  GLY127     -0.1940
    130  CA        -1.1320   14.0920   22.1730 C.3   127  GLY127      0.2014
    131  C         -0.9110   14.1920   20.6600 C.2   127  GLY127      0.2639
    132  O          0.2210   14.2440   20.2060 O.2   127  GLY127     -0.2714
    133  N         -1.9820   14.2410   19.8830 N.am  128  PHE128     -0.1959
    134  CA        -1.8580   14.3250   18.4080 C.3   128  PHE128      0.1771
    135  C         -0.9570   15.4710   17.9400 C.2   128  PHE128      0.2619
    136  O         -0.1720   15.3050   17.0020 O.2   128  PHE128     -0.2715
    137  CB        -3.2490   14.4830   17.7920 C.3   128  PHE128      0.0574
    138  CG        -3.2300   14.7790   16.3240 C.ar  128  PHE128     -0.0200
    139  CD1       -2.9640   13.7680   15.3910 C.ar  128  PHE128     -0.0042
    140  CD2       -3.4450   16.0840   15.8640 C.ar  128  PHE128     -0.0042
    141  CE1       -2.9580   14.0670   14.0130 C.ar  128  PHE128     -0.0003
    142  CE2       -3.4070   16.3800   14.4920 C.ar  128  PHE128     -0.0003
    143  CZ        -3.1680   15.3540   13.5730 C.ar  128  PHE128     -0.0000
    144  N         -1.0520   16.6340   18.5980 N.am  129  TYR129     -0.1974
    145  CA        -0.3350   17.8190   18.1390 C.3   129  TYR129      0.1639
    146  C          1.1590   17.7240   18.3260 C.2   129  TYR129      0.2290
    147  O          1.9030   18.5430   17.7660 O.2   129  TYR129     -0.2864
    148  CB        -0.9210   19.0930   18.7470 C.3   129  TYR129      0.0560
    149  CG        -2.3610   19.1910   18.3980 C.ar  129  TYR129     -0.0198
    150  CD1       -2.7560   19.6950   17.1560 C.ar  129  TYR129     -0.0009
    151  CD2       -3.3310   18.7150   19.2830 C.ar  129  TYR129     -0.0009
    152  CE1       -4.0920   19.7390   16.8030 C.ar  129  TYR129      0.0417
    153  CE2       -4.6780   18.7910   18.9560 C.ar  129  TYR129      0.0417
    154  CZ        -5.0420   19.2780   17.7140 C.ar  129  TYR129      0.1957
    155  OH        -6.3690   19.3440   17.4090 O.3   129  TYR129     -0.2866
    156  N         -6.2870    4.2410    9.5710 N.3   174  THR174     -0.1218
    157  CA        -5.7440    5.5840    9.4420 C.3   174  THR174      0.1862
    158  C         -4.2990    5.5000    9.0170 C.2   174  THR174      0.2287
    159  O         -3.5500    4.6630    9.5180 O.2   174  THR174     -0.2866
    160  CB        -5.8650    6.3390   10.8020 C.3   174  THR174      0.1770
    161  OG1       -7.2470    6.4600   11.1460 O.3   174  THR174     -0.2211
    162  CG2       -5.2860    7.7350   10.7450 C.3   174  THR174      0.0375
    163  N         -1.2400    8.1630    8.8240 N.3   176  ILE176     -0.1245
    164  CA        -0.7610    9.5010    9.1310 C.3   176  ILE176      0.1561
    165  C          0.6210    9.6940    8.5130 C.2   176  ILE176      0.2260
    166  O          1.4940    8.8490    8.6920 O.2   176  ILE176     -0.2867
    167  CB        -0.7950    9.7980   10.6780 C.3   176  ILE176      0.0252
    168  CG1       -0.2820   11.2110   10.9670 C.3   176  ILE176      0.0019
    169  CG2       -0.1570    8.6750   11.5260 C.3   176  ILE176      0.0019
    170  CD1       -0.8320   11.7800   12.2700 C.3   176  ILE176      0.0001
@<TRIPOS>BOND
     1   165   166    2
     2   165   164    1
     3   163   164    1
     4   158   157    1
     5   158   159    2
     6    82    81    2
     7   164   167    1
     8   157   156    1
     9   157   160    1
    10    62    61    2
    11    81    80    1
    12   167   168    1
    13   167   169    1
    14    59    60    1
    15   162   160    1
    16   160   161    1
    17    61    60    1
    18   168   170    1
    19    79    80    1
    20    79    77   am
    21    80    83    1
    22    76    77    1
    23    76    75    1
    24    60    63    1
    25    83    84    1
    26    70    69    2
    27    77    78    2
    28   101   100    1
    29    75    69   am
    30    69    68    1
    31    86    85    1
    32    65    64   ar
    33    64    63    1
    34    64    66   ar
    35    84    85    1
    36   143   141   ar
    37   143   142   ar
    38    99   100    1
    39    99    96    1
    40   100   102    1
    41    68    67    1
    42    68    71    1
    43    98    97    2
    44   141   139   ar
    45    16    15    1
    46    17    15    1
    47   142   140   ar
    48    97    96    1
    49    72    71    1
    50    72    74    1
    51    96    95    1
    52    71    73    1
    53    15    14    1
    54   139   138   ar
    55    95    89   am
    56    36    33    1
    57   140   138   ar
    58    14    11    1
    59    87    88    1
    60    49    46    1
    61   138   137    1
    62    89    88    1
    63    89    90    2
    64    33    32    1
    65    33    34    1
    66    91    88    1
    67    91    92    1
    68    48    47    2
    69   152   150   ar
    70   152   154   ar
    71    13    12    2
    72    94    92   am
    73   136   135    2
    74    35    34    2
    75    11    12    1
    76    11    10    1
    77    47    46    1
    78   150   149   ar
    79    46    45    1
    80    32    26   am
    81   155   154    1
    82    92    93    2
    83   154   153   ar
    84   147   146    2
    85   137   134    1
    86   135   134    1
    87   135   144   am
    88    27    26    2
    89    26    25    1
    90    28    25    1
    91    28    29    1
    92   145   146    1
    93   145   144    1
    94   145   148    1
    95    10     3   am
    96   149   148    1
    97   149   151   ar
    98   134   133    1
    99    31    29   am
   100    45    39   am
   101    52    53    2
   102    52    51    1
   103    25    24    1
   104   153   151   ar
   105    29    30    2
   106    54    55    1
   107    54    51    1
   108    55    56    1
   109    56    57    1
   110     3     4    2
   111     3     2    1
   112    24    20   am
   113    51    50    1
   114    39    40    2
   115    39    38    1
   116   133   131   am
   117    57    58    1
   118   132   131    2
   119    18    19    1
   120    37    38    1
   121    20    21    2
   122    20    19    1
   123   131   130    1
   124     2     5    1
   125     2     1    1
   126     5     6    1
   127    38    41    1
   128    19    22    1
   129    41    42    1
   130   125   124    2
   131     6     7    1
   132   130   129    1
   133    22    23    1
   134   124   129   am
   135   124   123    1
   136    42    44   ar
   137    42    43   ar
   138   123   126    1
   139   123   122    1
   140     8     7   ar
   141   126   127    1
   142   126   128    1
   143     7     9   ar
   144   121   120    2
   145   122   120   am
   146   120   119    1
   147   103   104    1
   148   108   109    1
   149   108   107    1
   150   119   118    1
   151   109   110    1
   152   115   114    1
   153   115   116    1
   154   104   107    1
   155   104   105    1
   156   106   105    2
   157   112   111    1
   158   117   116    2
   159   110   111    2
   160   111   113    1
