@<TRIPOS>MOLECULE
tmp/4xdaB01.pdb
 147 133 0 0 0
SMALL
GASTEIGER

@<TRIPOS>ATOM
      1  N        -21.1470  -27.5340    6.4550 N.3    11  ASN11      -0.1240
      2  CA       -20.4470  -26.3390    5.9960 C.3    11  ASN11       0.1653
      3  C        -20.3670  -25.3300    7.1130 C.2    11  ASN11       0.2266
      4  O        -21.2750  -25.2310    7.9470 O.2    11  ASN11      -0.2867
      5  CB       -21.1930  -25.6230    4.8530 C.3    11  ASN11       0.1155
      6  CG       -21.2250  -26.4090    3.5600 C.2    11  ASN11       0.2627
      7  OD1      -20.3450  -27.2210    3.2830 O.2    11  ASN11      -0.2716
      8  ND2      -22.2420  -26.1390    2.7330 N.am   11  ASN11      -0.0877
      9  N        -20.9340  -21.6310    7.1180 N.3    13  ASP13      -0.1239
     10  CA       -21.4520  -20.5550    6.2850 C.3    13  ASP13       0.1674
     11  C        -20.8010  -19.2170    6.6630 C.2    13  ASP13       0.2266
     12  O        -21.0500  -18.6850    7.7340 O.2    13  ASP13      -0.2867
     13  CB       -22.9740  -20.4380    6.4110 C.3    13  ASP13       0.1410
     14  CG       -23.7250  -21.6080    5.7800 C.2    13  ASP13       0.3668
     15  OD1      -23.1120  -22.4690    5.0950 O.co2  13  ASP13      -0.2456
     16  OD2      -24.9610  -21.6450    5.9810 O.co2  13  ASP13      -0.2456
     17  N        -23.7560  -24.4470    9.0400 N.3    38  GLY38      -0.1210
     18  CA       -24.6570  -24.6730    7.9320 C.3    38  GLY38       0.1956
     19  C        -24.3830  -25.9910    7.2550 C.2    38  GLY38       0.2612
     20  O        -23.8430  -26.8960    7.8760 O.2    38  GLY38      -0.2717
     21  N        -24.7270  -26.0760    5.9680 N.am   39  GLY39      -0.1942
     22  CA       -24.6710  -27.3170    5.2190 C.3    39  GLY39       0.2014
     23  C        -26.0170  -28.0190    5.2980 C.2    39  GLY39       0.2638
     24  O        -26.5940  -28.0870    6.3790 O.2    39  GLY39      -0.2714
     25  N        -26.5250  -28.5200    4.1710 N.am   40  LYS40      -0.1977
     26  CA       -27.8290  -29.1990    4.1750 C.3    40  LYS40       0.1596
     27  C        -27.8860  -30.3700    5.1540 C.2    40  LYS40       0.2287
     28  O        -28.8890  -30.5480    5.8500 O.2    40  LYS40      -0.2864
     29  CB       -28.1820  -29.7150    2.7880 C.3    40  LYS40       0.0298
     30  CG       -27.9890  -28.6710    1.7080 C.3    40  LYS40       0.0038
     31  CD       -28.8980  -28.9020    0.5150 C.3    40  LYS40       0.0206
     32  CE       -28.6490  -27.8330   -0.5370 C.3    40  LYS40       0.1093
     33  NZ       -29.0540  -26.5170   -0.0700 N.3    40  LYS40      -0.1314
     34  N        -27.8100  -28.9040    8.8060 N.3    43  ASN43      -0.1225
     35  CA       -29.0940  -28.2320    9.0270 C.3    43  ASN43       0.1785
     36  C        -30.2390  -29.2220    9.2250 C.2    43  ASN43       0.2597
     37  O        -31.0720  -29.0600   10.1210 O.2    43  ASN43      -0.2718
     38  CB       -29.4330  -27.2740    7.8790 C.3    43  ASN43       0.1169
     39  CG       -28.4200  -26.1530    7.7280 C.2    43  ASN43       0.2627
     40  OD1      -27.6330  -25.8840    8.6390 O.2    43  ASN43      -0.2716
     41  ND2      -28.4540  -25.4700    6.5760 N.am   43  ASN43      -0.0877
     42  N        -30.2770  -30.2740    8.4180 N.am   44  GLN44      -0.1979
     43  CA       -31.3720  -31.2350    8.5690 C.3    44  GLN44       0.1601
     44  C        -31.2520  -32.0710    9.8230 C.2    44  GLN44       0.2287
     45  O        -32.2580  -32.3690   10.4520 O.2    44  GLN44      -0.2864
     46  CB       -31.5850  -32.0710    7.3020 C.3    44  GLN44       0.0394
     47  CG       -31.9380  -31.1380    6.1150 C.3    44  GLN44       0.0908
     48  CD       -32.3100  -31.8490    4.8250 C.2    44  GLN44       0.2608
     49  OE1      -32.5050  -33.0630    4.7940 O.2    44  GLN44      -0.2717
     50  NE2      -32.3880  -31.0800    3.7350 N.am   44  GLN44      -0.0878
     51  N        -19.2920  -22.3520    2.7980 N.3    95  ALA95      -0.1245
     52  CA       -20.1000  -21.6060    1.8530 C.3    95  ALA95       0.1562
     53  C        -19.7900  -20.1520    2.1180 C.2    95  ALA95       0.2260
     54  O        -19.9670  -19.6760    3.2380 O.2    95  ALA95      -0.2867
     55  CB       -21.5780  -21.8920    2.0730 C.3    95  ALA95       0.0290
     56  N        -21.0890  -16.7170    1.5050 N.3    97  ILE97      -0.1245
     57  CA       -22.3760  -16.1420    1.1390 C.3    97  ILE97       0.1561
     58  C        -22.3120  -14.6400    1.2990 C.2    97  ILE97       0.2260
     59  O        -22.1530  -14.1240    2.4000 O.2    97  ILE97      -0.2867
     60  CB       -23.5000  -16.7200    1.9940 C.3    97  ILE97       0.0252
     61  CG1      -23.6150  -18.2290    1.7450 C.3    97  ILE97       0.0019
     62  CG2      -24.8270  -16.0230    1.6630 C.3    97  ILE97       0.0019
     63  CD1      -24.4930  -18.9640    2.7360 C.3    97  ILE97       0.0001
     64  N        -22.8700  -16.5690   -4.0730 N.3   107  ILE107     -0.1245
     65  CA       -22.5600  -17.7430   -3.2660 C.3   107  ILE107      0.1561
     66  C        -21.4470  -18.5470   -3.9160 C.2   107  ILE107      0.2260
     67  O        -21.5020  -18.8860   -5.1040 O.2   107  ILE107     -0.2867
     68  CB       -23.7800  -18.6560   -3.0630 C.3   107  ILE107      0.0252
     69  CG1      -24.8620  -17.9420   -2.2560 C.3   107  ILE107      0.0019
     70  CG2      -23.3690  -19.9290   -2.3530 C.3   107  ILE107      0.0019
     71  CD1      -25.8360  -17.1670   -3.1100 C.3   107  ILE107      0.0001
     72  N        -19.2240  -22.0540   -2.9340 N.3   109  ILE109     -0.1245
     73  CA       -19.1440  -23.1590   -1.9980 C.3   109  ILE109      0.1561
     74  C        -17.9470  -24.0340   -2.3290 C.2   109  ILE109      0.2260
     75  O        -17.6510  -24.2600   -3.5010 O.2   109  ILE109     -0.2867
     76  CB       -20.4270  -23.9820   -2.0450 C.3   109  ILE109      0.0252
     77  CG1      -21.6000  -23.0940   -1.6470 C.3   109  ILE109      0.0019
     78  CG2      -20.3550  -25.1860   -1.1040 C.3   109  ILE109      0.0019
     79  CD1      -22.8850  -23.6730   -2.0060 C.3   109  ILE109      0.0001
     80  N        -25.4450  -32.7700   -1.2270 N.3   140  GLU140     -0.1245
     81  CA       -24.2800  -31.9250   -1.0210 C.3   140  GLU140      0.1567
     82  C        -23.0300  -32.7010   -0.5860 C.2   140  GLU140      0.2260
     83  O        -22.0810  -32.1090   -0.0670 O.2   140  GLU140     -0.2867
     84  CB       -24.6020  -30.7990   -0.0360 C.3   140  GLU140      0.0388
     85  CG       -23.7590  -29.5790   -0.2050 C.3   140  GLU140      0.1160
     86  CD       -24.1700  -28.4340    0.6970 C.2   140  GLU140      0.3649
     87  OE1      -23.9630  -27.2830    0.2750 O.co2 140  GLU140     -0.2457
     88  OE2      -24.6800  -28.6650    1.8210 O.co2 140  GLU140     -0.2457
     89  N        -33.8510  -35.5030   -0.0970 N.3   163  ASN163     -0.1240
     90  CA       -34.0330  -34.1000   -0.4470 C.3   163  ASN163      0.1653
     91  C        -33.0230  -33.8120   -1.5480 C.2   163  ASN163      0.2266
     92  O        -31.8440  -33.7190   -1.2740 O.2   163  ASN163     -0.2867
     93  CB       -33.7810  -33.2080    0.7850 C.3   163  ASN163      0.1155
     94  CG       -33.8210  -31.7290    0.4690 C.2   163  ASN163      0.2627
     95  OD1      -32.9660  -30.9610    0.9180 O.2   163  ASN163     -0.2716
     96  ND2      -34.8150  -31.3100   -0.3180 N.am  163  ASN163     -0.0877
     97  N        -28.3840  -29.6240   -3.3680 N.3   166  PRO166     -0.2116
     98  CA       -28.7480  -28.7270   -4.4650 C.3   166  PRO166      0.1372
     99  C        -29.0230  -29.5430   -5.7310 C.2   166  PRO166      0.2244
    100  O        -28.5940  -30.6870   -5.8340 O.2   166  PRO166     -0.2868
    101  CB       -27.4900  -27.8770   -4.6570 C.3   166  PRO166      0.0268
    102  CG       -26.3720  -28.7620   -4.1940 C.3   166  PRO166      0.0207
    103  CD       -26.9460  -29.5600   -3.0390 C.3   166  PRO166      0.0892
    104  N        -37.6380  -29.0400   -4.5310 N.3   184  ASN184     -0.1240
    105  CA       -38.3490  -27.7890   -4.7580 C.3   184  ASN184      0.1653
    106  C        -38.6820  -27.7250   -6.2530 C.2   184  ASN184      0.2266
    107  O        -38.4220  -28.6860   -6.9720 O.2   184  ASN184     -0.2867
    108  CB       -37.5790  -26.5550   -4.2660 C.3   184  ASN184      0.1155
    109  CG       -36.2590  -26.3340   -5.0080 C.2   184  ASN184      0.2627
    110  OD1      -35.9800  -26.9810   -6.0090 O.2   184  ASN184     -0.2716
    111  ND2      -35.4360  -25.4270   -4.4920 N.am  184  ASN184     -0.0877
    112  N        -34.8670  -17.3750    3.4500 N.3   247  THR247     -0.1203
    113  CA       -35.2940  -18.7590    3.2400 C.3   247  THR247      0.1994
    114  C        -34.1420  -19.7590    3.2280 C.2   247  THR247      0.2618
    115  O        -34.3060  -20.9060    2.8000 O.2   247  THR247     -0.2717
    116  CB       -36.1040  -18.9100    1.9400 C.3   247  THR247      0.1784
    117  OG1      -35.2570  -18.6700    0.7980 O.3   247  THR247     -0.2211
    118  CG2      -37.2640  -17.9250    1.9350 C.3   247  THR247      0.0376
    119  N        -32.9810  -19.3250    3.7070 N.am  248  THR248     -0.1952
    120  CA       -31.7740  -20.1330    3.5930 C.3   248  THR248      0.1897
    121  C        -31.9580  -21.5530    4.1100 C.2   248  THR248      0.2313
    122  O        -31.5880  -22.4990    3.4370 O.2   248  THR248     -0.2863
    123  CB       -30.5680  -19.4650    4.2740 C.3   248  THR248      0.1794
    124  OG1      -30.1730  -18.3380    3.4890 O.3   248  THR248     -0.2208
    125  CG2      -29.3920  -20.4310    4.3730 C.3   248  THR248      0.0378
    126  N        -34.9800  -23.0170    4.9050 N.3   250  ALA250     -0.1231
    127  CA       -36.3960  -23.3940    4.8770 C.3   250  ALA250      0.1694
    128  C        -36.6120  -24.8490    4.4660 C.2   250  ALA250      0.2593
    129  O        -37.3290  -25.5930    5.1300 O.2   250  ALA250     -0.2718
    130  CB       -37.1650  -22.4640    3.9270 C.3   250  ALA250      0.0304
    131  N        -36.0020  -25.2570    3.3580 N.am  251  GLY251     -0.1942
    132  CA       -36.1160  -26.6420    2.9340 C.3   251  GLY251      0.2014
    133  C        -35.4740  -27.6060    3.9300 C.2   251  GLY251      0.2638
    134  O        -35.9800  -28.7030    4.1400 O.2   251  GLY251     -0.2714
    135  N        -34.3490  -27.2080    4.5330 N.am  252  ASP252     -0.1971
    136  CA       -33.7120  -28.0840    5.5170 C.3   252  ASP252      0.1709
    137  C        -34.6010  -28.2720    6.7380 C.2   252  ASP252      0.2293
    138  O        -34.7790  -29.3830    7.2230 O.2   252  ASP252     -0.2864
    139  CB       -32.3580  -27.5430    5.9390 C.3   252  ASP252      0.1436
    140  CG       -31.3870  -27.4310    4.7680 C.2   252  ASP252      0.3671
    141  OD1      -31.4590  -28.2790    3.8440 O.co2 252  ASP252     -0.2456
    142  OD2      -30.5440  -26.5100    4.7800 O.co2 252  ASP252     -0.2456
    143  N        -28.4660  -20.1570    8.5470 N.3   288  ALA288     -0.1245
    144  CA       -28.7240  -21.5890    8.5090 C.3   288  ALA288      0.1562
    145  C        -29.2590  -22.0920    9.8400 C.2   288  ALA288      0.2260
    146  O        -30.4490  -21.9290   10.1410 O.2   288  ALA288     -0.2867
    147  CB       -27.4540  -22.3510    8.0970 C.3   288  ALA288      0.0290
@<TRIPOS>BOND
     1   107   106    2
     2   106   105    1
     3   110   109    2
     4   100    99    2
     5    99    98    1
     6    67    66    2
     7   109   111   am
     8   109   108    1
     9   105   104    1
    10   105   108    1
    11   101    98    1
    12   101   102    1
    13    98    97    1
    14   102   103    1
    15    64    65    1
    16    66    65    1
    17    75    74    2
    18    97   103    1
    19    65    68    1
    20    71    69    1
    21    68    70    1
    22    68    69    1
    23    72    73    1
    24    74    73    1
    25    76    73    1
    26    76    77    1
    27    76    78    1
    28    79    77    1
    29    91    92    2
    30    91    90    1
    31    80    81    1
    32    81    82    1
    33    81    84    1
    34    82    83    2
    35    32    33    1
    36    32    31    1
    37    90    89    1
    38    90    93    1
    39    96    94   am
    40    85    84    1
    41    85    86    1
    42    87    86   ar
    43    94    93    1
    44    94    95    2
    45    31    30    1
    46    86    88   ar
    47   117   116    1
    48    57    58    1
    49    57    56    1
    50    57    60    1
    51    58    59    2
    52    62    60    1
    53    30    29    1
    54    61    60    1
    55    61    63    1
    56    52    55    1
    57    52    53    1
    58    52    51    1
    59   118   116    1
    60   116   113    1
    61    53    54    2
    62     8     6   am
    63    29    26    1
    64   115   114    2
    65   132   131    1
    66   132   133    1
    67   114   113    1
    68   114   119   am
    69   113   112    1
    70     7     6    2
    71   131   128   am
    72   122   121    2
    73   124   123    1
    74     6     5    1
    75   120   119    1
    76   120   121    1
    77   120   123    1
    78    50    48   am
    79   141   140   ar
    80   130   127    1
    81   133   134    2
    82   133   135   am
    83    25    26    1
    84    25    23   am
    85    26    27    1
    86   123   125    1
    87   128   127    1
    88   128   129    2
    89   135   136    1
    90   140   142   ar
    91   140   139    1
    92    49    48    2
    93    48    47    1
    94     5     2    1
    95   127   126    1
    96    15    14   ar
    97    27    28    2
    98    22    23    1
    99    22    21    1
   100    23    24    2
   101   136   139    1
   102   136   137    1
   103    14    16   ar
   104    14    13    1
   105    21    19   am
   106     2     1    1
   107     2     3    1
   108    47    46    1
   109    10    13    1
   110    10    11    1
   111    10     9    1
   112    41    39   am
   113    11    12    2
   114   137   138    2
   115     3     4    2
   116    19    20    2
   117    19    18    1
   118    46    43    1
   119    39    38    1
   120    39    40    2
   121    38    35    1
   122    18    17    1
   123   147   144    1
   124    42    43    1
   125    42    36   am
   126   144   143    1
   127   144   145    1
   128    43    44    1
   129    34    35    1
   130    35    36    1
   131    36    37    2
   132    44    45    2
   133   145   146    2
