@<TRIPOS>MOLECULE
tmp/4xdiA00.pdb
 224 214 0 0 0
SMALL
GASTEIGER

@<TRIPOS>ATOM
      1  N        -16.3770   55.2360   16.8510 N.3    34  LEU34      -0.1245
      2  CA       -16.7210   54.1210   15.9660 C.3    34  LEU34       0.1561
      3  C        -15.9120   54.1120   14.6670 C.2    34  LEU34       0.2260
      4  O        -15.6080   53.0430   14.1300 O.2    34  LEU34      -0.2867
      5  CB       -18.2310   54.1550   15.6280 C.3    34  LEU34       0.0270
      6  CG       -19.1440   54.0300   16.8460 C.3    34  LEU34       0.0019
      7  CD1      -20.6370   54.4030   16.5060 C.3    34  LEU34       0.0001
      8  CD2      -19.0490   52.5910   17.3880 C.3    34  LEU34       0.0001
      9  N        -13.2880   51.3640   13.7910 N.3    37  PHE37      -0.1227
     10  CA       -13.7560   50.0290   13.4040 C.3    37  PHE37       0.1736
     11  C        -14.1910   49.9570   11.9470 C.2    37  PHE37       0.2595
     12  O        -14.2280   48.8670   11.3540 O.2    37  PHE37      -0.2718
     13  CB       -14.9110   49.5770   14.3370 C.3    37  PHE37       0.0547
     14  CG       -14.4610   49.4090   15.7590 C.ar   37  PHE37      -0.0202
     15  CD1      -14.4760   50.4820   16.6350 C.ar   37  PHE37      -0.0042
     16  CD2      -13.9150   48.2180   16.1840 C.ar   37  PHE37      -0.0042
     17  CE1      -13.9890   50.3480   17.9240 C.ar   37  PHE37      -0.0003
     18  CE2      -13.4150   48.0710   17.4820 C.ar   37  PHE37      -0.0003
     19  CZ       -13.4540   49.1320   18.3520 C.ar   37  PHE37      -0.0000
     20  N        -14.4990   51.1130   11.3670 N.am   38  PHE38      -0.1976
     21  CA       -15.0270   51.1920    9.9990 C.3    38  PHE38       0.1639
     22  C        -13.9670   51.5650    8.9570 C.2    38  PHE38       0.2290
     23  O        -14.2420   51.6190    7.7510 O.2    38  PHE38      -0.2864
     24  CB       -16.1960   52.2070    9.9550 C.3    38  PHE38       0.0560
     25  CG       -17.4670   51.6600   10.5430 C.ar   38  PHE38      -0.0200
     26  CD1      -17.7050   51.7250   11.9140 C.ar   38  PHE38      -0.0042
     27  CD2      -18.3930   51.0100    9.7270 C.ar   38  PHE38      -0.0042
     28  CE1      -18.8770   51.1440   12.4700 C.ar   38  PHE38      -0.0003
     29  CE2      -19.5890   50.4540   10.2750 C.ar   38  PHE38      -0.0003
     30  CZ       -19.8150   50.5300   11.6390 C.ar   38  PHE38      -0.0000
     31  N        -11.4160   49.9700    7.8400 N.3    40  ASN40      -0.1225
     32  CA       -11.0820   48.8270    6.9970 C.3    40  ASN40       0.1785
     33  C        -12.2280   48.3840    6.0670 C.2    40  ASN40       0.2597
     34  O        -12.0450   47.5300    5.2110 O.2    40  ASN40      -0.2718
     35  CB       -10.6700   47.6480    7.8990 C.3    40  ASN40       0.1169
     36  CG       -10.0030   46.5290    7.1300 C.2    40  ASN40       0.2627
     37  OD1       -9.1170   46.7710    6.3040 O.2    40  ASN40      -0.2716
     38  ND2      -10.4300   45.2900    7.3910 N.am   40  ASN40      -0.0877
     39  N        -13.4170   48.9450    6.2500 N.am   41  VAL41      -0.1980
     40  CA       -14.6050   48.4540    5.5340 C.3    41  VAL41       0.1595
     41  C        -14.7200   49.0020    4.1050 C.2    41  VAL41       0.2287
     42  O        -14.8410   50.2180    3.9080 O.2    41  VAL41      -0.2864
     43  CB       -15.8780   48.8020    6.3170 C.3    41  VAL41       0.0276
     44  CG1      -17.1140   48.3020    5.5740 C.3    41  VAL41       0.0022
     45  CG2      -15.8020   48.2020    7.7240 C.3    41  VAL41       0.0022
     46  N        -18.8380   45.8970    1.2100 N.3    45  LYS45      -0.1245
     47  CA       -19.2260   45.4750    2.5460 C.3    45  LYS45       0.1561
     48  C        -20.1570   46.4950    3.2020 C.2    45  LYS45       0.2260
     49  O        -21.1330   46.1310    3.8620 O.2    45  LYS45      -0.2867
     50  CB       -17.9870   45.2500    3.4130 C.3    45  LYS45       0.0271
     51  CG       -18.3180   44.8250    4.8370 C.3    45  LYS45       0.0035
     52  CD       -17.0380   44.4760    5.6110 C.3    45  LYS45       0.0206
     53  CE       -16.3860   43.2070    5.0770 C.3    45  LYS45       0.1093
     54  NZ       -14.9500   43.1370    5.5100 N.3    45  LYS45      -0.1314
     55  N        -23.5910   45.9360    1.8610 N.3    48  ARG48      -0.1231
     56  CA       -24.2160   44.7600    2.4780 C.3    48  ARG48       0.1694
     57  C        -24.6510   45.0940    3.9080 C.2    48  ARG48       0.2591
     58  O        -25.7320   44.7030    4.3370 O.2    48  ARG48      -0.2718
     59  CB       -23.2760   43.5430    2.4760 C.3    48  ARG48       0.0321
     60  CG       -22.9920   42.9740    1.0860 C.3    48  ARG48       0.0489
     61  CD       -22.3650   41.5790    1.1430 C.3    48  ARG48       0.2205
     62  NE       -21.1920   41.5400    2.0090 N.pl3  48  ARG48      -0.0865
     63  CZ       -19.9390   41.7550    1.5990 C.cat  48  ARG48       0.5346
     64  NH1      -19.6820   42.0260    0.3220 N.pl3  48  ARG48       0.1354
     65  NH2      -18.9350   41.6830    2.4690 N.pl3  48  ARG48       0.1354
     66  N        -23.8180   45.8300    4.6410 N.am   49  LYS49      -0.1980
     67  CA       -24.1620   46.1730    6.0180 C.3    49  LYS49       0.1596
     68  C        -25.3920   47.0730    6.1040 C.2    49  LYS49       0.2287
     69  O        -26.2030   46.9120    7.0200 O.2    49  LYS49      -0.2864
     70  CB       -22.9940   46.8430    6.7310 C.3    49  LYS49       0.0298
     71  CG       -23.2210   47.0270    8.2250 C.3    49  LYS49       0.0038
     72  CD       -21.8780   47.2370    8.9480 C.3    49  LYS49       0.0206
     73  CE       -22.0320   47.9370   10.2820 C.3    49  LYS49       0.1093
     74  NZ       -22.9880   47.2410   11.1870 N.3    49  LYS49      -0.1314
     75  N        -28.3630   44.9740    5.5900 N.3    52  ALA52      -0.1231
     76  CA       -28.6270   44.2330    6.8230 C.3    52  ALA52       0.1694
     77  C        -29.3690   45.1100    7.8320 C.2    52  ALA52       0.2592
     78  O        -30.3510   44.6690    8.4210 O.2    52  ALA52      -0.2718
     79  CB       -27.3100   43.6890    7.4280 C.3    52  ALA52       0.0304
     80  N        -28.9100   46.3520    8.0240 N.am   53  PHE53      -0.1976
     81  CA       -29.6040   47.2820    8.9160 C.3    53  PHE53       0.1639
     82  C        -31.0600   47.4820    8.4880 C.2    53  PHE53       0.2290
     83  O        -31.9700   47.4170    9.3120 O.2    53  PHE53      -0.2864
     84  CB       -28.9160   48.6520    8.9450 C.3    53  PHE53       0.0560
     85  CG       -27.7700   48.7660    9.9330 C.ar   53  PHE53      -0.0200
     86  CD1      -27.8460   48.2050   11.1970 C.ar   53  PHE53      -0.0042
     87  CD2      -26.6300   49.5000    9.5960 C.ar   53  PHE53      -0.0042
     88  CE1      -26.7820   48.3380   12.1100 C.ar   53  PHE53      -0.0003
     89  CE2      -25.5630   49.6460   10.5100 C.ar   53  PHE53      -0.0003
     90  CZ       -25.6440   49.0660   11.7650 C.ar   53  PHE53      -0.0000
     91  N        -32.9840   43.9550    8.9010 N.3    56  TYR56      -0.1227
     92  CA       -33.0510   43.5240   10.2970 C.3    56  TYR56       0.1736
     93  C        -33.9450   44.4360   11.1220 C.2    56  TYR56       0.2595
     94  O        -34.8030   43.9770   11.8740 O.2    56  TYR56      -0.2718
     95  CB       -31.6640   43.4960   10.9540 C.3    56  TYR56       0.0548
     96  CG       -31.7240   42.8780   12.3330 C.ar   56  TYR56      -0.0200
     97  CD1      -32.0240   43.6470   13.4550 C.ar   56  TYR56      -0.0009
     98  CD2      -31.5210   41.5180   12.5060 C.ar   56  TYR56      -0.0009
     99  CE1      -32.0960   43.0890   14.7060 C.ar   56  TYR56       0.0417
    100  CE2      -31.5950   40.9380   13.7620 C.ar   56  TYR56       0.0417
    101  CZ       -31.8770   41.7300   14.8580 C.ar   56  TYR56       0.1957
    102  OH       -31.9470   41.1490   16.0990 O.3    56  TYR56      -0.2866
    103  N        -33.7290   45.7440   11.0050 N.am   57  VAL57      -0.1980
    104  CA       -34.4510   46.6730   11.8660 C.3    57  VAL57       0.1595
    105  C        -35.8730   46.9250   11.3670 C.2    57  VAL57       0.2287
    106  O        -36.8120   46.9420   12.1680 O.2    57  VAL57      -0.2864
    107  CB       -33.6880   48.0400   12.0140 C.3    57  VAL57       0.0276
    108  CG1      -34.5400   49.0230   12.8040 C.3    57  VAL57       0.0022
    109  CG2      -32.3810   47.8140   12.7220 C.3    57  VAL57       0.0022
    110  N        -34.8810   39.2060    7.0850 N.3    64  TYR64      -0.1241
    111  CA       -33.4920   39.6100    7.2920 C.3    64  TYR64       0.1605
    112  C        -32.6000   39.1030    6.1630 C.2    64  TYR64       0.2264
    113  O        -32.5490   37.9080    5.8740 O.2    64  TYR64      -0.2867
    114  CB       -32.9650   39.1400    8.6420 C.3    64  TYR64       0.0534
    115  CG       -31.4760   39.4120    8.7680 C.ar   64  TYR64      -0.0201
    116  CD1      -30.9860   40.7040    8.6740 C.ar   64  TYR64      -0.0009
    117  CD2      -30.5600   38.3700    8.9420 C.ar   64  TYR64      -0.0009
    118  CE1      -29.6240   40.9700    8.7610 C.ar   64  TYR64       0.0417
    119  CE2      -29.1930   38.6260    9.0390 C.ar   64  TYR64       0.0417
    120  CZ       -28.7350   39.9320    8.9490 C.ar   64  TYR64       0.1957
    121  OH       -27.3810   40.2140    9.0290 O.3    64  TYR64      -0.2866
    122  N        -28.8120   39.0860    5.2050 N.3    66  GLY66      -0.1210
    123  CA       -27.4330   39.3540    5.5370 C.3    66  GLY66       0.1956
    124  C        -26.7890   38.2490    6.3390 C.2    66  GLY66       0.2611
    125  O        -27.4260   37.2720    6.7020 O.2    66  GLY66      -0.2717
    126  N        -25.5100   38.4240    6.6310 N.am   67  ARG67      -0.1979
    127  CA       -24.7620   37.4170    7.3700 C.3    67  ARG67       0.1597
    128  C        -25.2460   37.3440    8.8220 C.2    67  ARG67       0.2287
    129  O        -25.7590   38.3230    9.3690 O.2    67  ARG67      -0.2864
    130  CB       -23.2670   37.7370    7.2960 C.3    67  ARG67       0.0334
    131  CG       -22.3730   36.6350    7.8330 C.3    67  ARG67       0.0492
    132  CD       -20.9250   37.0700    7.7790 C.3    67  ARG67       0.2205
    133  NE       -20.0200   36.0700    8.3360 N.pl3  67  ARG67      -0.0865
    134  CZ       -18.7450   36.3130    8.6190 C.cat  67  ARG67       0.5346
    135  NH1      -18.2510   37.5260    8.4010 N.pl3  67  ARG67       0.1354
    136  NH2      -17.9710   35.3570    9.1210 N.pl3  67  ARG67       0.1354
    137  N        -25.3370   37.6170   12.6660 N.3    69  LEU69      -0.1245
    138  CA       -24.8100   38.7990   13.3760 C.3    69  LEU69       0.1561
    139  C        -23.6730   38.4110   14.3230 C.2    69  LEU69       0.2260
    140  O        -22.7410   39.1880   14.5440 O.2    69  LEU69      -0.2867
    141  CB       -25.9130   39.5160   14.1640 C.3    69  LEU69       0.0270
    142  CG       -27.0800   40.1450   13.3860 C.3    69  LEU69       0.0019
    143  CD1      -27.8410   41.0840   14.3000 C.3    69  LEU69       0.0001
    144  CD2      -26.5770   40.8950   12.1640 C.3    69  LEU69       0.0001
    145  N        -20.6050   37.9130   12.0900 N.3    72  SER72      -0.1202
    146  CA       -20.2220   39.1820   11.4580 C.3    72  SER72       0.2020
    147  C        -19.3300   40.0420   12.3420 C.2    72  SER72       0.2618
    148  O        -18.4880   40.8010   11.8460 O.2    72  SER72      -0.2717
    149  CB       -21.4760   39.9790   11.0720 C.3    72  SER72       0.2103
    150  OG       -22.0910   39.3910    9.9410 O.3    72  SER72      -0.2182
    151  N        -19.5210   39.9460   13.6530 N.am   73  HIS73      -0.1975
    152  CA       -18.7650   40.7890   14.5930 C.3    73  HIS73       0.1656
    153  C        -17.7910   40.0710   15.5000 C.2    73  HIS73       0.2291
    154  O        -17.2010   40.6780   16.3880 O.2    73  HIS73      -0.2864
    155  CB       -19.7560   41.5240   15.4580 C.3    73  HIS73       0.0771
    156  CG       -20.7410   42.2870   14.6620 C.ar   73  HIS73       0.0820
    157  ND1      -21.9360   41.7430   14.2410 N.ar   73  HIS73      -0.2267
    158  CD2      -20.6910   43.5450   14.1620 C.ar   73  HIS73       0.1154
    159  CE1      -22.5990   42.6480   13.5430 C.ar   73  HIS73       0.1986
    160  NE2      -21.8670   43.7430   13.4850 N.ar   73  HIS73      -0.2212
    161  N        -14.2210   41.3920   15.2860 N.3    76  LEU76      -0.1245
    162  CA       -14.2150   42.7560   15.8360 C.3    76  LEU76       0.1561
    163  C        -14.1100   42.7340   17.3470 C.2    76  LEU76       0.2260
    164  O        -13.3780   43.5170   17.9440 O.2    76  LEU76      -0.2867
    165  CB       -15.4830   43.5210   15.4480 C.3    76  LEU76       0.0270
    166  CG       -15.6360   43.9590   14.0020 C.3    76  LEU76       0.0019
    167  CD1      -17.0180   44.6310   13.8630 C.3    76  LEU76       0.0001
    168  CD2      -14.5540   44.9350   13.6520 C.3    76  LEU76       0.0001
    169  N        -14.2070   45.5600   20.0950 N.3    82  MET82      -0.1245
    170  CA       -15.6250   45.9550   20.0180 C.3    82  MET82       0.1570
    171  C        -16.3370   45.5290   21.3050 C.2    82  MET82       0.2261
    172  O        -16.1460   44.3980   21.7570 O.2    82  MET82      -0.2867
    173  CB       -16.2960   45.3200   18.7990 C.3    82  MET82       0.0387
    174  CG       -17.8070   45.6210   18.7100 C.3    82  MET82       0.0595
    175  SD       -18.5560   44.9130   17.2250 S.3    82  MET82      -0.1393
    176  CE       -20.3200   45.3040   17.5280 C.3    82  MET82       0.0692
    177  N        -19.8260   50.3650   22.2750 N.3    86  HIS86      -0.1226
    178  CA       -20.0280   50.6390   20.8610 C.3    86  HIS86       0.1752
    179  C        -21.4620   50.3330   20.4420 C.2    86  HIS86       0.2596
    180  O        -22.0260   51.0190   19.5930 O.2    86  HIS86      -0.2718
    181  CB       -19.0840   49.8320   20.0120 C.3    86  HIS86       0.0759
    182  CG       -17.6390   50.0980   20.3160 C.ar   86  HIS86       0.0818
    183  ND1      -16.8020   49.1360   20.8350 N.ar   86  HIS86      -0.2268
    184  CD2      -16.9020   51.2300   20.2220 C.ar   86  HIS86       0.1154
    185  CE1      -15.5940   49.6480   21.0090 C.ar   86  HIS86       0.1986
    186  NE2      -15.6240   50.9210   20.6410 N.ar   86  HIS86      -0.2212
    187  N        -22.0300   49.2720   21.0060 N.am   87  PHE87      -0.1976
    188  CA       -23.4330   48.9600   20.7060 C.3    87  PHE87       0.1639
    189  C        -24.3240   50.0870   21.1950 C.2    87  PHE87       0.2290
    190  O        -25.2420   50.5210   20.4810 O.2    87  PHE87      -0.2864
    191  CB       -23.8540   47.6110   21.3430 C.3    87  PHE87       0.0560
    192  CG       -25.2110   47.1460   20.8800 C.ar   87  PHE87      -0.0200
    193  CD1      -26.3550   47.6090   21.4970 C.ar   87  PHE87      -0.0042
    194  CD2      -25.3360   46.2960   19.7960 C.ar   87  PHE87      -0.0042
    195  CE1      -27.6340   47.2240   21.0590 C.ar   87  PHE87      -0.0003
    196  CE2      -26.6020   45.8960   19.3570 C.ar   87  PHE87      -0.0003
    197  CZ       -27.7440   46.3720   19.9920 C.ar   87  PHE87      -0.0000
    198  N        -24.1940   52.9530   18.8160 N.3    90  VAL90      -0.1245
    199  CA       -24.8720   52.6830   17.5510 C.3    90  VAL90       0.1561
    200  C        -26.3920   52.7290   17.7540 C.2    90  VAL90       0.2260
    201  O        -27.1170   53.3530   16.9680 O.2    90  VAL90      -0.2867
    202  CB       -24.4440   51.3200   16.9630 C.3    90  VAL90       0.0252
    203  CG1      -25.3460   50.9260   15.8060 C.3    90  VAL90       0.0019
    204  CG2      -22.9730   51.4120   16.4750 C.3    90  VAL90       0.0019
    205  N        -33.7150   46.9740   17.3260 N.3   115  VAL115     -0.1245
    206  CA       -32.2480   47.1710   17.4770 C.3   115  VAL115      0.1561
    207  C        -31.7210   46.5070   18.7310 C.2   115  VAL115      0.2260
    208  O        -30.7120   45.8000   18.6900 O.2   115  VAL115     -0.2867
    209  CB       -31.8750   48.6610   17.5230 C.3   115  VAL115      0.0252
    210  CG1      -30.3810   48.8280   17.6690 C.3   115  VAL115      0.0019
    211  CG2      -32.2940   49.2680   16.2660 C.3   115  VAL115      0.0019
    212  N        -30.7020   42.8400   18.8120 N.3   118  ALA118     -0.1245
    213  CA       -29.4310   42.4390   18.2130 C.3   118  ALA118      0.1562
    214  C        -28.3350   42.2130   19.2430 C.2   118  ALA118      0.2260
    215  O        -27.3820   41.4790   18.9610 O.2   118  ALA118     -0.2867
    216  CB       -28.9710   43.4840   17.1810 C.3   118  ALA118      0.0290
    217  N        -25.0700   39.5100   18.9780 N.3   122  ILE122     -0.1245
    218  CA       -23.7010   39.9290   18.7220 C.3   122  ILE122      0.1561
    219  C        -22.7910   39.5230   19.8730 C.2   122  ILE122      0.2260
    220  O        -21.6930   39.0020   19.6640 O.2   122  ILE122     -0.2867
    221  CB       -23.6380   41.4540   18.5010 C.3   122  ILE122      0.0252
    222  CG1      -24.4410   41.8410   17.2460 C.3   122  ILE122      0.0019
    223  CG2      -22.1510   41.9400   18.4130 C.3   122  ILE122      0.0019
    224  CD1      -24.6490   43.3820   17.0280 C.3   122  ILE122      0.0001
@<TRIPOS>BOND
     1    64    63    1
     2    60    61    1
     3    60    59    1
     4    61    62    1
     5    46    47    1
     6    63    62    2
     7    63    65    1
     8    55    56    1
     9    59    56    1
    10    56    57    1
    11    47    48    1
    12    47    50    1
    13    48    49    2
    14    50    51    1
    15    42    41    2
    16    57    58    2
    17    57    66   am
    18    41    40    1
    19    66    67    1
    20    51    52    1
    21    53    54    1
    22    53    52    1
    23   122   123    1
    24    34    33    2
    25    40    39    1
    26    40    43    1
    27   123   124    1
    28    44    43    1
    29    75    76    1
    30   113   112    2
    31    67    68    1
    32    67    70    1
    33    33    39   am
    34    33    32    1
    35    68    69    2
    36   112   111    1
    37    37    36    2
    38    43    45    1
    39   124   126   am
    40   124   125    2
    41   126   127    1
    42    70    71    1
    43    76    79    1
    44    76    77    1
    45    32    31    1
    46    32    35    1
    47   110   111    1
    48    36    38   am
    49    36    35    1
    50   111   114    1
    51   130   127    1
    52   130   131    1
    53   127   128    1
    54    23    22    2
    55   132   131    1
    56   132   133    1
    57    77    80   am
    58    77    78    2
    59    80    81    1
    60    71    72    1
    61   133   134    2
    62   135   134    1
    63    82    81    1
    64    82    83    2
    65   134   136    1
    66   114   115    1
    67   116   118   ar
    68   116   115   ar
    69   118   120   ar
    70   115   117   ar
    71   128   129    2
    72    91    92    1
    73    81    84    1
    74   117   119   ar
    75    84    85    1
    76    72    73    1
    77   120   121    1
    78   120   119   ar
    79    22    21    1
    80    87    85   ar
    81    87    89   ar
    82    27    29   ar
    83    27    25   ar
    84    85    86   ar
    85   150   149    1
    86    24    21    1
    87    24    25    1
    88    21    20    1
    89    29    30   ar
    90    73    74    1
    91    92    95    1
    92    92    93    1
    93    89    90   ar
    94    25    26   ar
    95    95    96    1
    96   103    93   am
    97   103   104    1
    98   149   146    1
    99    93    94    2
   100    86    88   ar
   101    12    11    2
   102    20    11   am
   103   105   104    1
   104   105   106    2
   105   146   145    1
   106   146   147    1
   107    30    28   ar
   108    90    88   ar
   109   148   147    2
   110   104   107    1
   111    26    28   ar
   112    11    10    1
   113   107   109    1
   114   107   108    1
   115   144   142    1
   116    96    98   ar
   117    96    97   ar
   118   147   151   am
   119    98   100   ar
   120   137   138    1
   121   138   141    1
   122   138   139    1
   123   142   141    1
   124   142   143    1
   125    10     9    1
   126    10    13    1
   127    97    99   ar
   128   160   159   ar
   129   160   158   ar
   130   159   157   ar
   131   168   166    1
   132   151   152    1
   133   100   101   ar
   134   167   166    1
   135   166   165    1
   136     4     3    2
   137   158   156   ar
   138   157   156   ar
   139   139   140    2
   140    13    14    1
   141   152   155    1
   142   152   153    1
   143   156   155    1
   144     3     2    1
   145    99   101   ar
   146   101   102    1
   147   161   162    1
   148   165   162    1
   149   153   154    2
   150     5     2    1
   151     5     6    1
   152    14    16   ar
   153    14    15   ar
   154   203   202    1
   155   162   163    1
   156     2     1    1
   157    16    18   ar
   158   211   209    1
   159   204   202    1
   160     7     6    1
   161    15    17   ar
   162     6     8    1
   163   202   199    1
   164   201   200    2
   165   224   222    1
   166   216   213    1
   167   175   176    1
   168   175   174    1
   169   222   221    1
   170   205   206    1
   171   163   164    2
   172   206   209    1
   173   206   207    1
   174    18    19   ar
   175   209   210    1
   176   199   200    1
   177   199   198    1
   178    17    19   ar
   179   213   212    1
   180   213   214    1
   181   223   221    1
   182   221   218    1
   183   208   207    2
   184   174   173    1
   185   218   217    1
   186   218   219    1
   187   173   170    1
   188   215   214    2
   189   196   194   ar
   190   196   197   ar
   191   180   179    2
   192   220   219    2
   193   194   192   ar
   194   197   195   ar
   195   181   182    1
   196   181   178    1
   197   170   169    1
   198   170   171    1
   199   184   182   ar
   200   184   186   ar
   201   182   183   ar
   202   179   178    1
   203   179   187   am
   204   190   189    2
   205   186   185   ar
   206   188   187    1
   207   188   189    1
   208   188   191    1
   209   183   185   ar
   210   178   177    1
   211   192   191    1
   212   192   193   ar
   213   195   193   ar
   214   171   172    2
