@<TRIPOS>MOLECULE
tmp/4xdjC00.pdb
 90 83 0 0 0
SMALL
GASTEIGER

@<TRIPOS>ATOM
      1  N         60.9100   13.4470    5.1130 N.3    93  THR93      -0.1203
      2  CA        59.6850   13.5400    5.9200 C.3    93  THR93       0.1994
      3  C         58.4350   13.0410    5.1720 C.2    93  THR93       0.2618
      4  O         57.3870   12.8870    5.8020 O.2    93  THR93      -0.2717
      5  CB        59.4610   14.9850    6.3960 C.3    93  THR93       0.1784
      6  OG1       59.4740   15.8590    5.2680 O.3    93  THR93      -0.2211
      7  CG2       60.4910   15.4340    7.4240 C.3    93  THR93       0.0376
      8  N         58.5560   12.7830    3.8410 N.am   94  THR94      -0.1952
      9  CA        57.5210   12.3360    2.8830 C.3    94  THR94       0.1897
     10  C         56.5110   13.4720    2.5870 C.2    94  THR94       0.2313
     11  O         55.4470   13.2030    2.0210 O.2    94  THR94      -0.2863
     12  CB        56.7860   11.0230    3.2960 C.3    94  THR94       0.1794
     13  OG1       55.8340   11.2720    4.3330 O.3    94  THR94      -0.2208
     14  CG2       57.7270    9.8950    3.6750 C.3    94  THR94       0.0378
     15  N         62.3930    9.4980   14.2920 N.3   126  LEU126     -0.1245
     16  CA        61.0330    9.8230   14.7340 C.3   126  LEU126      0.1561
     17  C         60.5900    8.8890   15.8720 C.2   126  LEU126      0.2260
     18  O         59.8810    9.3320   16.7790 O.2   126  LEU126     -0.2867
     19  CB        60.0390    9.7750   13.5620 C.3   126  LEU126      0.0270
     20  CG        58.8610   10.7560   13.6370 C.3   126  LEU126      0.0019
     21  CD1       59.3030   12.1870   13.3550 C.3   126  LEU126      0.0001
     22  CD2       57.7820   10.3770   12.6510 C.3   126  LEU126      0.0001
     23  N         51.0160   23.8630   16.5460 N.3   158  VAL158     -0.1245
     24  CA        50.0340   24.1930   15.5060 C.3   158  VAL158      0.1561
     25  C         49.6770   25.6970   15.5390 C.2   158  VAL158      0.2260
     26  O         49.8790   26.3710   14.5280 O.2   158  VAL158     -0.2867
     27  CB        48.7630   23.2960   15.5390 C.3   158  VAL158      0.0252
     28  CG1       47.8070   23.6430   14.3970 C.3   158  VAL158      0.0019
     29  CG2       49.1260   21.8150   15.4860 C.3   158  VAL158      0.0019
     30  N         48.8100   22.5410    8.9830 N.3   181  VAL181     -0.1245
     31  CA        48.0380   21.2910    8.8880 C.3   181  VAL181      0.1561
     32  C         48.5980   20.4300    7.7400 C.2   181  VAL181      0.2260
     33  O         49.0230   19.3050    7.9940 O.2   181  VAL181     -0.2867
     34  CB        46.5040   21.5410    8.7450 C.3   181  VAL181      0.0252
     35  CG1       45.7540   20.2790    8.3160 C.3   181  VAL181      0.0019
     36  CG2       45.9200   22.0900   10.0420 C.3   181  VAL181      0.0019
     37  N         52.3130   19.1880    8.7060 N.3   184  LEU184     -0.1231
     38  CA        52.3770   18.1610    9.7490 C.3   184  LEU184      0.1693
     39  C         51.6800   16.8530    9.3520 C.2   184  LEU184      0.2593
     40  O         52.1150   15.7950    9.8030 O.2   184  LEU184     -0.2718
     41  CB        51.8230   18.6780   11.0820 C.3   184  LEU184      0.0284
     42  CG        52.6230   19.8080   11.7570 C.3   184  LEU184      0.0019
     43  CD1       51.8700   20.3680   12.9430 C.3   184  LEU184      0.0001
     44  CD2       54.0200   19.3450   12.1920 C.3   184  LEU184      0.0001
     45  N         50.6560   16.9080    8.4720 N.am  185  THR185     -0.1939
     46  CA        49.9640   15.7040    7.9860 C.3   185  THR185      0.2028
     47  C         50.8160   14.9550    6.9410 C.2   185  THR185      0.2642
     48  O         50.4240   13.8730    6.5000 O.2   185  THR185     -0.2714
     49  CB        48.5880   16.0480    7.3960 C.3   185  THR185      0.1808
     50  OG1       48.7210   17.1040    6.4450 O.3   185  THR185     -0.2208
     51  CG2       47.5600   16.4010    8.4560 C.3   185  THR185      0.0379
     52  N         51.9780   15.5440    6.5540 N.am  186  THR186     -0.1950
     53  CA        52.9660   15.0960    5.5550 C.3   186  THR186      0.1897
     54  C         52.3360   15.0460    4.1450 C.2   186  THR186      0.2313
     55  O         52.9160   14.4490    3.2330 O.2   186  THR186     -0.2863
     56  CB        53.6840   13.7740    5.9330 C.3   186  THR186      0.1794
     57  OG1       52.7730   12.6790    5.9350 O.3   186  THR186     -0.2208
     58  CG2       54.4250   13.8600    7.2460 C.3   186  THR186      0.0378
     59  N         56.5120   16.7960   14.2880 N.3   210  LEU210     -0.1245
     60  CA        56.0990   15.4670   13.8260 C.3   210  LEU210      0.1561
     61  C         56.2960   14.4270   14.9270 C.2   210  LEU210      0.2260
     62  O         55.3830   13.6390   15.1690 O.2   210  LEU210     -0.2867
     63  CB        56.8480   15.0300   12.5510 C.3   210  LEU210      0.0270
     64  CG        56.2210   15.4150   11.2080 C.3   210  LEU210      0.0019
     65  CD1       57.2190   15.2530   10.0880 C.3   210  LEU210      0.0001
     66  CD2       54.9940   14.5740   10.9090 C.3   210  LEU210      0.0001
     67  N         53.4770   14.5340   17.5580 N.3   213  PHE213     -0.1227
     68  CA        52.2160   13.9720   17.0760 C.3   213  PHE213      0.1736
     69  C         52.3530   12.4790   16.7680 C.2   213  PHE213      0.2595
     70  O         51.3420   11.7790   16.7470 O.2   213  PHE213     -0.2718
     71  CB        51.7010   14.7360   15.8510 C.3   213  PHE213      0.0547
     72  CG        50.8770   15.9530   16.2030 C.ar  213  PHE213     -0.0202
     73  CD1       49.5040   15.8510   16.4030 C.ar  213  PHE213     -0.0042
     74  CD2       51.4730   17.2040   16.3310 C.ar  213  PHE213     -0.0042
     75  CE1       48.7410   16.9790   16.7270 C.ar  213  PHE213     -0.0003
     76  CE2       50.7100   18.3310   16.6560 C.ar  213  PHE213     -0.0003
     77  CZ        49.3490   18.2110   16.8510 C.ar  213  PHE213     -0.0000
     78  N         53.5920   11.9890   16.5580 N.am  214  ALA214     -0.1980
     79  CA        53.8750   10.5770   16.2940 C.3   214  ALA214      0.1597
     80  C         53.8880    9.7700   17.5900 C.2   214  ALA214      0.2287
     81  O         53.4220    8.6310   17.5870 O.2   214  ALA214     -0.2864
     82  CB        55.2030   10.4230   15.5740 C.3   214  ALA214      0.0319
     83  N         50.3160    9.4380   18.7780 N.3   217  LEU217     -0.1245
     84  CA        49.7330    8.4300   17.8870 C.3   217  LEU217      0.1561
     85  C         50.2530    7.0240   18.2350 C.2   217  LEU217      0.2260
     86  O         49.5110    6.0500   18.0850 O.2   217  LEU217     -0.2867
     87  CB        50.0320    8.7590   16.4210 C.3   217  LEU217      0.0270
     88  CG        49.4230    7.8670   15.3500 C.3   217  LEU217      0.0019
     89  CD1       47.9190    8.0910   15.2420 C.3   217  LEU217      0.0001
     90  CD2       50.0910    8.1170   14.0000 C.3   217  LEU217      0.0001
@<TRIPOS>BOND
     1    11    10    2
     2    10     9    1
     3     9    12    1
     4     9     8    1
     5    55    54    2
     6    12    14    1
     7    12    13    1
     8     8     3   am
     9    54    53    1
    10     1     2    1
    11     3     4    2
    12     3     2    1
    13     6     5    1
    14    53    56    1
    15    53    52    1
    16     2     5    1
    17    56    57    1
    18    56    58    1
    19     5     7    1
    20    50    49    1
    21    48    47    2
    22    52    47   am
    23    47    46    1
    24    49    46    1
    25    49    51    1
    26    32    33    2
    27    32    31    1
    28    46    45    1
    29    35    34    1
    30    45    39   am
    31    37    38    1
    32    34    31    1
    33    34    36    1
    34    31    30    1
    35    39    38    1
    36    39    40    2
    37    38    41    1
    38    65    64    1
    39    66    64    1
    40    41    42    1
    41    64    63    1
    42    42    44    1
    43    42    43    1
    44    63    60    1
    45    22    20    1
    46    21    20    1
    47    19    20    1
    48    19    16    1
    49    60    59    1
    50    60    61    1
    51    90    88    1
    52    15    16    1
    53    28    27    1
    54    26    25    2
    55    16    17    1
    56    61    62    2
    57    89    88    1
    58    88    87    1
    59    29    27    1
    60    24    25    1
    61    24    27    1
    62    24    23    1
    63    82    79    1
    64    71    72    1
    65    71    68    1
    66    17    18    2
    67    72    74   ar
    68    72    73   ar
    69    79    78    1
    70    79    80    1
    71    74    76   ar
    72    73    75   ar
    73    87    84    1
    74    78    69   am
    75    76    77   ar
    76    75    77   ar
    77    70    69    2
    78    69    68    1
    79    68    67    1
    80    81    80    2
    81    84    85    1
    82    84    83    1
    83    86    85    2
