@<TRIPOS>MOLECULE
tmp/4xdjB02.pdb
 114 109 0 0 0
SMALL
GASTEIGER

@<TRIPOS>ATOM
      1  N         13.8200   31.6420   52.1540 N.3    92  ILE92      -0.1231
      2  CA        13.6500   32.7290   53.1230 C.3    92  ILE92       0.1692
      3  C         13.2800   32.1940   54.5280 C.2    92  ILE92       0.2593
      4  O         13.9250   32.5760   55.5080 O.2    92  ILE92      -0.2718
      5  CB        12.5850   33.7310   52.5510 C.3    92  ILE92       0.0266
      6  CG1       13.1410   34.5910   51.3970 C.3    92  ILE92       0.0019
      7  CG2       11.9150   34.6050   53.5900 C.3    92  ILE92       0.0020
      8  CD1       14.3790   35.3530   51.6620 C.3    92  ILE92       0.0001
      9  N         12.2730   31.3050   54.6140 N.am   93  THR93      -0.1939
     10  CA        11.7880   30.7360   55.8760 C.3    93  THR93       0.2028
     11  C         12.7560   29.7000   56.4760 C.2    93  THR93       0.2642
     12  O         12.5580   29.2990   57.6250 O.2    93  THR93      -0.2714
     13  CB        10.3990   30.1000   55.6820 C.3    93  THR93       0.1808
     14  OG1       10.4570   29.1560   54.6130 O.3    93  THR93      -0.2208
     15  CG2        9.3100   31.1290   55.4200 C.3    93  THR93       0.0379
     16  N         13.7940   29.2830   55.7060 N.am   94  THR94      -0.1950
     17  CA        14.8300   28.2790   56.0230 C.3    94  THR94       0.1897
     18  C         14.2390   26.8470   56.0220 C.2    94  THR94       0.2313
     19  O         14.8910   25.9220   56.5130 O.2    94  THR94      -0.2863
     20  CB        15.6160   28.5630   57.3420 C.3    94  THR94       0.1794
     21  OG1       14.8350   28.2210   58.4920 O.3    94  THR94      -0.2208
     22  CG2       16.1460   29.9850   57.4380 C.3    94  THR94       0.0378
     23  N         17.3290   35.7720   54.5180 N.3   119  ILE119     -0.1231
     24  CA        16.9110   35.1400   55.7810 C.3   119  ILE119      0.1678
     25  C         16.8660   36.2190   56.9140 C.2   119  ILE119      0.2434
     26  O         15.8270   36.2790   57.5810 O.2   119  ILE119     -0.2733
     27  CB        17.7800   33.8960   56.1280 C.3   119  ILE119      0.0265
     28  CG1       17.4340   32.7350   55.1750 C.3   119  ILE119      0.0019
     29  CG2       17.6080   33.4680   57.5920 C.3   119  ILE119      0.0020
     30  CD1       18.5200   31.7440   54.9360 C.3   119  ILE119      0.0001
     31  N         17.8780   37.1260   57.1000 N.am  120  PRO120     -0.2729
     32  CA        17.7480   38.1650   58.1420 C.3   120  PRO120      0.1401
     33  C         16.6040   39.1610   57.8640 C.2   120  PRO120      0.2269
     34  O         16.0270   39.6850   58.8230 O.2   120  PRO120     -0.2865
     35  CB        19.1110   38.8650   58.1200 C.3   120  PRO120      0.0296
     36  CG        20.0330   37.9060   57.4460 C.3   120  PRO120      0.0237
     37  CD        19.1850   37.2440   56.4210 C.3   120  PRO120      0.0939
     38  N         13.6910   38.3520   56.6370 N.3   122  PHE122     -0.1227
     39  CA        12.5240   37.6350   57.1440 C.3   122  PHE122      0.1736
     40  C         12.4660   37.7200   58.6680 C.2   122  PHE122      0.2596
     41  O         11.3740   37.6910   59.2390 O.2   122  PHE122     -0.2718
     42  CB        12.5390   36.1740   56.6990 C.3   122  PHE122      0.0547
     43  CG        11.2750   35.4140   57.0170 C.ar  122  PHE122     -0.0202
     44  CD1       10.0800   35.7230   56.3790 C.ar  122  PHE122     -0.0042
     45  CD2       11.2830   34.3770   57.9410 C.ar  122  PHE122     -0.0042
     46  CE1        8.9170   35.0120   56.6610 C.ar  122  PHE122     -0.0003
     47  CE2       10.1150   33.6680   58.2270 C.ar  122  PHE122     -0.0003
     48  CZ         8.9400   33.9960   57.5900 C.ar  122  PHE122     -0.0000
     49  N         13.6390   37.8360   59.2990 N.am  123  GLY123     -0.1957
     50  CA        13.7810   37.9980   60.7400 C.3   123  GLY123      0.1869
     51  C         13.0710   39.2470   61.2160 C.2   123  GLY123      0.2309
     52  O         12.3710   39.2080   62.2270 O.2   123  GLY123     -0.2863
     53  N          9.2380   38.6370   60.9470 N.3   126  LEU126     -0.1245
     54  CA         8.8760   37.6950   61.9980 C.3   126  LEU126      0.1561
     55  C          8.9460   38.3910   63.3680 C.2   126  LEU126      0.2260
     56  O          8.0910   38.1440   64.2260 O.2   126  LEU126     -0.2867
     57  CB         9.8150   36.4810   61.9310 C.3   126  LEU126      0.0270
     58  CG         9.1900   35.1030   62.0840 C.3   126  LEU126      0.0019
     59  CD1        8.1210   34.8470   61.0410 C.3   126  LEU126      0.0001
     60  CD2       10.2350   34.0450   61.9580 C.3   126  LEU126      0.0001
     61  N          6.2720   23.8740   60.0090 N.3   196  LEU196     -0.1231
     62  CA         6.3570   24.8980   61.0620 C.3   196  LEU196      0.1693
     63  C          7.6400   24.8080   61.9170 C.2   196  LEU196      0.2593
     64  O          8.0310   25.8220   62.5010 O.2   196  LEU196     -0.2718
     65  CB         5.1190   24.8900   61.9620 C.3   196  LEU196      0.0284
     66  CG         3.8030   25.2880   61.2870 C.3   196  LEU196      0.0019
     67  CD1        2.6400   25.1040   62.2300 C.3   196  LEU196      0.0001
     68  CD2        3.8390   26.7240   60.7630 C.3   196  LEU196      0.0001
     69  N          8.3150   23.6350   61.9570 N.am  197  THR197     -0.1939
     70  CA         9.5950   23.4730   62.6640 C.3   197  THR197      0.2028
     71  C         10.7640   23.9730   61.7900 C.2   197  THR197      0.2642
     72  O         11.9050   23.9980   62.2570 O.2   197  THR197     -0.2714
     73  CB         9.8330   22.0150   63.0760 C.3   197  THR197      0.1808
     74  OG1        9.6270   21.1650   61.9550 O.3   197  THR197     -0.2208
     75  CG2        8.9820   21.5810   64.2490 C.3   197  THR197      0.0379
     76  N         10.4680   24.3650   60.5220 N.am  198  THR198     -0.1950
     77  CA        11.3710   24.8440   59.4590 C.3   198  THR198      0.1897
     78  C         12.3670   23.7330   59.0540 C.2   198  THR198      0.2313
     79  O         13.3590   24.0200   58.3770 O.2   198  THR198     -0.2863
     80  CB        12.0780   26.1880   59.7880 C.3   198  THR198      0.1794
     81  OG1       12.9880   26.0410   60.8800 O.3   198  THR198     -0.2208
     82  CG2       11.1090   27.3120   60.0440 C.3   198  THR198      0.0378
     83  N          4.4080   30.6150   61.7130 N.3   224  LEU224     -0.1245
     84  CA         5.7450   30.7290   62.2800 C.3   224  LEU224      0.1561
     85  C          5.7950   31.8870   63.2510 C.2   224  LEU224      0.2260
     86  O          6.2150   31.7010   64.3940 O.2   224  LEU224     -0.2867
     87  CB         6.8070   30.9050   61.1850 C.3   224  LEU224      0.0270
     88  CG         7.5960   29.6580   60.8390 C.3   224  LEU224      0.0019
     89  CD1        8.2820   29.8090   59.5030 C.3   224  LEU224      0.0001
     90  CD2        8.5930   29.3190   61.9360 C.3   224  LEU224      0.0001
     91  N          4.1830   31.1400   66.8570 N.3   227  PHE227     -0.1227
     92  CA         4.9770   30.3300   67.7700 C.3   227  PHE227      0.1736
     93  C          6.3060   31.0160   68.1050 C.2   227  PHE227      0.2595
     94  O          6.7570   30.9140   69.2470 O.2   227  PHE227     -0.2718
     95  CB         5.1840   28.9170   67.2150 C.3   227  PHE227      0.0547
     96  CG         3.9050   28.1110   67.1810 C.ar  227  PHE227     -0.0202
     97  CD1        3.3080   27.6690   68.3590 C.ar  227  PHE227     -0.0042
     98  CD2        3.2970   27.7920   65.9740 C.ar  227  PHE227     -0.0042
     99  CE1        2.1200   26.9320   68.3290 C.ar  227  PHE227     -0.0003
    100  CE2        2.1100   27.0540   65.9430 C.ar  227  PHE227     -0.0003
    101  CZ         1.5330   26.6250   67.1200 C.ar  227  PHE227     -0.0000
    102  N          6.8870   31.7740   67.1420 N.am  228  ALA228     -0.1980
    103  CA         8.1330   32.5270   67.3420 C.3   228  ALA228      0.1597
    104  C          7.9440   33.5880   68.4340 C.2   228  ALA228      0.2287
    105  O          8.8620   33.8170   69.2240 O.2   228  ALA228     -0.2864
    106  CB         8.5830   33.1780   66.0400 C.3   228  ALA228      0.0319
    107  N          7.7740   31.6710   71.8220 N.3   231  LEU231     -0.1245
    108  CA         9.1470   31.2530   72.1400 C.3   231  LEU231      0.1561
    109  C          9.9870   32.4450   72.6220 C.2   231  LEU231      0.2260
    110  O         10.8200   32.2840   73.5160 O.2   231  LEU231     -0.2867
    111  CB         9.7900   30.5980   70.9020 C.3   231  LEU231      0.0270
    112  CG        11.2410   30.1130   70.9970 C.3   231  LEU231      0.0019
    113  CD1       11.3780   28.9200   71.9360 C.3   231  LEU231      0.0001
    114  CD2       11.7660   29.7530   69.6250 C.3   231  LEU231      0.0001
@<TRIPOS>BOND
     1     6     8    1
     2     6     5    1
     3     1     2    1
     4     5     2    1
     5     5     7    1
     6     2     3    1
     7    23    24    1
     8     3     9   am
     9     3     4    2
    10    14    13    1
    11     9    10    1
    12    30    28    1
    13    28    27    1
    14    15    13    1
    15    13    10    1
    16    16    17    1
    17    16    11   am
    18    24    27    1
    19    24    25    1
    20    10    11    1
    21    18    17    1
    22    18    19    2
    23    17    20    1
    24    27    29    1
    25    44    46   ar
    26    44    43   ar
    27    37    31    1
    28    37    36    1
    29    11    12    2
    30    38    39    1
    31    46    48   ar
    32    42    43    1
    33    42    39    1
    34    25    31   am
    35    25    26    2
    36    43    45   ar
    37    31    32    1
    38    39    40    1
    39    20    22    1
    40    20    21    1
    41    36    35    1
    42    48    47   ar
    43    33    32    1
    44    33    34    2
    45    45    47   ar
    46    35    32    1
    47    79    78    2
    48    40    41    2
    49    40    49   am
    50    78    77    1
    51    49    50    1
    52    77    80    1
    53    77    76    1
    54    89    88    1
    55    80    82    1
    56    80    81    1
    57    61    62    1
    58    76    71   am
    59    50    51    1
    60    68    66    1
    61    88    87    1
    62    88    90    1
    63    53    54    1
    64    59    58    1
    65    62    63    1
    66    62    65    1
    67    87    84    1
    68    51    52    2
    69    66    65    1
    70    66    67    1
    71    83    84    1
    72    71    72    2
    73    71    70    1
    74    63    69   am
    75    63    64    2
    76    57    54    1
    77    57    58    1
    78    74    73    1
    79    69    70    1
    80    60    58    1
    81    54    55    1
    82    84    85    1
    83    70    73    1
    84    73    75    1
    85    85    86    2
    86    55    56    2
    87   100    98   ar
    88   100   101   ar
    89    98    96   ar
    90   106   103    1
    91    91    92    1
    92   101    99   ar
    93   102   103    1
    94   102    93   am
    95    96    95    1
    96    96    97   ar
    97    95    92    1
    98   103   104    1
    99    92    93    1
   100    93    94    2
   101    99    97   ar
   102   104   105    2
   103   114   112    1
   104   111   112    1
   105   111   108    1
   106   112   113    1
   107   107   108    1
   108   108   109    1
   109   109   110    2
