@<TRIPOS>MOLECULE
tmp/4xdjB01.pdb
 95 90 0 0 0
SMALL
GASTEIGER

@<TRIPOS>ATOM
      1  N          2.6220   34.9510   90.3060 N.3   150  GLN150     -0.1231
      2  CA         2.8480   35.4750   88.9520 C.3   150  GLN150      0.1698
      3  C          3.3060   34.3880   87.9800 C.2   150  GLN150      0.2592
      4  O          2.9350   34.4380   86.8060 O.2   150  GLN150     -0.2718
      5  CB         3.8790   36.6130   88.9730 C.3   150  GLN150      0.0381
      6  CG         4.0890   37.2500   87.6150 C.3   150  GLN150      0.0905
      7  CD         5.0860   38.3920   87.6450 C.2   150  GLN150      0.2608
      8  OE1        5.8910   38.5030   88.5690 O.2   150  GLN150     -0.2717
      9  NE2        5.0350   39.2470   86.6320 N.am  150  GLN150     -0.0878
     10  N          4.0980   33.4080   88.4670 N.am  151  THR151     -0.1953
     11  CA         4.6200   32.2950   87.6670 C.3   151  THR151      0.1897
     12  C          3.4760   31.3570   87.2600 C.2   151  THR151      0.2313
     13  O          3.4650   30.8970   86.1180 O.2   151  THR151     -0.2863
     14  CB         5.7360   31.5500   88.4210 C.3   151  THR151      0.1794
     15  OG1        6.6380   32.4990   88.9950 O.3   151  THR151     -0.2208
     16  CG2        6.5240   30.6000   87.5180 C.3   151  THR151      0.0378
     17  N          1.4670   33.0110   84.5160 N.3   154  ARG154     -0.1231
     18  CA         2.2810   32.9510   83.3050 C.3   154  ARG154      0.1694
     19  C          2.2560   31.5640   82.6600 C.2   154  ARG154      0.2591
     20  O          2.0960   31.4890   81.4470 O.2   154  ARG154     -0.2718
     21  CB         3.7320   33.3630   83.5990 C.3   154  ARG154      0.0321
     22  CG         3.9370   34.8650   83.5910 C.3   154  ARG154      0.0489
     23  CD         5.3970   35.2330   83.7210 C.3   154  ARG154      0.2205
     24  NE         5.5950   36.6820   83.6580 N.pl3 154  ARG154     -0.0865
     25  CZ         6.7790   37.2830   83.7080 C.cat 154  ARG154      0.5346
     26  NH1        7.8930   36.5680   83.8200 N.pl3 154  ARG154      0.1354
     27  NH2        6.8610   38.6060   83.6450 N.pl3 154  ARG154      0.1354
     28  N          2.4080   30.4830   83.4550 N.am  155  VAL155     -0.1980
     29  CA         2.4350   29.0950   82.9700 C.3   155  VAL155      0.1595
     30  C          1.0540   28.6980   82.3880 C.2   155  VAL155      0.2287
     31  O          1.0100   28.1480   81.2830 O.2   155  VAL155     -0.2864
     32  CB         2.9290   28.1110   84.0740 C.3   155  VAL155      0.0276
     33  CG1        2.7080   26.6490   83.6840 C.3   155  VAL155      0.0022
     34  CG2        4.4030   28.3500   84.3940 C.3   155  VAL155      0.0022
     35  N          0.3500   30.8010   79.0380 N.3   158  THR158     -0.1203
     36  CA         1.2670   30.3670   77.9770 C.3   158  THR158      0.1994
     37  C          0.7690   29.0590   77.3520 C.2   158  THR158      0.2617
     38  O          0.6710   28.9970   76.1290 O.2   158  THR158     -0.2717
     39  CB         2.7140   30.2660   78.5050 C.3   158  THR158      0.1784
     40  OG1        3.1270   31.5580   78.9520 O.3   158  THR158     -0.2211
     41  CG2        3.6970   29.7800   77.4560 C.3   158  THR158      0.0376
     42  N          0.4050   28.0520   78.1830 N.am  159  ILE159     -0.1979
     43  CA        -0.1130   26.7500   77.7330 C.3   159  ILE159      0.1595
     44  C         -1.3550   26.9840   76.8550 C.2   159  ILE159      0.2287
     45  O         -1.4660   26.3670   75.7920 O.2   159  ILE159     -0.2864
     46  CB        -0.3730   25.7950   78.9350 C.3   159  ILE159      0.0276
     47  CG1        0.9700   25.2720   79.4910 C.3   159  ILE159      0.0022
     48  CG2       -1.3060   24.6220   78.5640 C.3   159  ILE159      0.0022
     49  CD1        0.9620   24.8660   80.9490 C.3   159  ILE159      0.0001
     50  N         -0.1980   28.4130   73.5340 N.3   162  ILE162     -0.1245
     51  CA         0.3830   27.2820   72.7990 C.3   162  ILE162      0.1561
     52  C         -0.7480   26.4650   72.1530 C.2   162  ILE162      0.2260
     53  O         -0.7310   26.2690   70.9340 O.2   162  ILE162     -0.2867
     54  CB         1.2870   26.3920   73.7100 C.3   162  ILE162      0.0252
     55  CG1        2.5110   27.1640   74.2360 C.3   162  ILE162      0.0019
     56  CG2        1.7280   25.1130   72.9840 C.3   162  ILE162      0.0019
     57  CD1        3.0780   26.6280   75.5800 C.3   162  ILE162      0.0001
     58  N          8.7330   33.3370   76.2100 N.3   234  ILE234     -0.1245
     59  CA         9.2210   32.3660   77.2050 C.3   234  ILE234      0.1561
     60  C         10.7230   32.6040   77.4650 C.2   234  ILE234      0.2260
     61  O         11.1460   32.6210   78.6250 O.2   234  ILE234     -0.2867
     62  CB         8.9150   30.8930   76.7980 C.3   234  ILE234      0.0252
     63  CG1        7.4000   30.6210   76.8030 C.3   234  ILE234      0.0019
     64  CG2        9.6280   29.8860   77.7100 C.3   234  ILE234      0.0019
     65  CD1        6.9770   29.4300   75.9600 C.3   234  ILE234      0.0001
     66  N         11.5710   35.7730   79.5700 N.3   237  TRP237     -0.1227
     67  CA        11.2510   35.5060   80.9730 C.3   237  TRP237      0.1737
     68  C         12.3570   34.7220   81.6590 C.2   237  TRP237      0.2595
     69  O         12.6850   35.0370   82.8010 O.2   237  TRP237     -0.2718
     70  CB         9.9340   34.7260   81.1000 C.3   237  TRP237      0.0564
     71  CG         8.6910   35.4700   80.7160 C.ar  237  TRP237      0.0003
     72  CD1        8.5420   36.8200   80.5660 C.ar  237  TRP237      0.0946
     73  CD2        7.4030   34.8960   80.4870 C.ar  237  TRP237      0.0152
     74  NE1        7.2440   37.1180   80.2300 N.ar  237  TRP237     -0.2442
     75  CE2        6.5190   35.9540   80.1820 C.ar  237  TRP237      0.0810
     76  CE3        6.9080   33.5810   80.4990 C.ar  237  TRP237      0.0012
     77  CZ2        5.1650   35.7400   79.9050 C.ar  237  TRP237      0.0191
     78  CZ3        5.5700   33.3700   80.2140 C.ar  237  TRP237      0.0001
     79  CH2        4.7130   34.4400   79.9220 C.ar  237  TRP237      0.0015
     80  N         12.9090   33.6900   80.9760 N.am  238  LEU238     -0.1980
     81  CA        13.9710   32.8210   81.4870 C.3   238  LEU238      0.1596
     82  C         15.2620   33.6000   81.7550 C.2   238  LEU238      0.2287
     83  O         15.9210   33.3450   82.7640 O.2   238  LEU238     -0.2864
     84  CB        14.2460   31.6710   80.5120 C.3   238  LEU238      0.0297
     85  CG        13.3280   30.4680   80.6160 C.3   238  LEU238      0.0022
     86  CD1       13.0860   29.8690   79.2630 C.3   238  LEU238      0.0001
     87  CD2       13.9060   29.4200   81.5420 C.3   238  LEU238      0.0001
     88  N         14.5420   35.7590   84.7560 N.3   241  LEU241     -0.1245
     89  CA        14.5740   34.8640   85.9170 C.3   241  LEU241      0.1561
     90  C         16.0230   34.4710   86.2440 C.2   241  LEU241      0.2260
     91  O         16.3400   34.2600   87.4170 O.2   241  LEU241     -0.2867
     92  CB        13.7150   33.6110   85.6590 C.3   241  LEU241      0.0270
     93  CG        13.5210   32.6220   86.8160 C.3   241  LEU241      0.0019
     94  CD1       12.5440   33.1550   87.8490 C.3   241  LEU241      0.0001
     95  CD2       13.0460   31.2800   86.3020 C.3   241  LEU241      0.0001
@<TRIPOS>BOND
     1    53    52    2
     2    52    51    1
     3    51    50    1
     4    51    54    1
     5    56    54    1
     6    54    55    1
     7    55    57    1
     8    45    44    2
     9    65    63    1
    10    38    37    2
    11    58    59    1
    12    62    63    1
    13    62    59    1
    14    62    64    1
    15    44    43    1
    16    59    60    1
    17    37    36    1
    18    37    42   am
    19    41    39    1
    20    60    61    2
    21    43    42    1
    22    43    46    1
    23    36    39    1
    24    36    35    1
    25    39    40    1
    26    48    46    1
    27    46    47    1
    28    86    85    1
    29    47    49    1
    30    66    67    1
    31    77    79   ar
    32    77    75   ar
    33    79    78   ar
    34    75    74   ar
    35    75    73   ar
    36    78    76   ar
    37    74    72   ar
    38    73    76   ar
    39    73    71   ar
    40    84    85    1
    41    84    81    1
    42    72    71   ar
    43    85    87    1
    44    71    70    1
    45    67    70    1
    46    67    68    1
    47    80    81    1
    48    80    68   am
    49    31    30    2
    50    20    19    2
    51    81    82    1
    52    68    69    2
    53    82    83    2
    54    30    29    1
    55    19    18    1
    56    19    28   am
    57    29    28    1
    58    29    32    1
    59    18    21    1
    60    18    17    1
    61    22    21    1
    62    22    23    1
    63    27    25    1
    64    24    25    2
    65    24    23    1
    66    33    32    1
    67    25    26    1
    68    32    34    1
    69    88    89    1
    70    92    89    1
    71    92    93    1
    72    89    90    1
    73    13    12    2
    74    90    91    2
    75    95    93    1
    76     9     7   am
    77     4     3    2
    78    93    94    1
    79    12    11    1
    80    16    14    1
    81     6     7    1
    82     6     5    1
    83     7     8    2
    84    11    14    1
    85    11    10    1
    86     3    10   am
    87     3     2    1
    88    14    15    1
    89     2     5    1
    90     2     1    1
