@<TRIPOS>MOLECULE
tmp/4xdkD03.pdb
 90 82 0 0 0
SMALL
GASTEIGER

@<TRIPOS>ATOM
      1  N         59.3940   10.8580   14.8560 N.3   128  LEU128     -0.1245
      2  CA        58.0000   11.1320   15.1920 C.3   128  LEU128      0.1561
      3  C         57.4600   10.1080   16.1970 C.2   128  LEU128      0.2260
      4  O         56.6480   10.4680   17.0560 O.2   128  LEU128     -0.2867
      5  CB        57.1440   11.1670   13.9230 C.3   128  LEU128      0.0270
      6  CG        56.1240   12.3100   13.8580 C.3   128  LEU128      0.0019
      7  CD1       56.8050   13.6900   13.7100 C.3   128  LEU128      0.0001
      8  CD2       55.1530   12.0910   12.7320 C.3   128  LEU128      0.0001
      9  N         42.8820   16.9940   22.1290 N.3   151  ILE151     -0.1245
     10  CA        42.6500   17.3470   20.7260 C.3   151  ILE151      0.1561
     11  C         42.3810   18.8600   20.6360 C.2   151  ILE151      0.2260
     12  O         42.9770   19.5270   19.7870 O.2   151  ILE151     -0.2867
     13  CB        41.5110   16.4780   20.1120 C.3   151  ILE151      0.0252
     14  CG1       42.0370   15.0660   19.7830 C.3   151  ILE151      0.0019
     15  CG2       40.8890   17.1290   18.8640 C.3   151  ILE151      0.0019
     16  CD1       40.9850   13.9810   19.7280 C.3   151  ILE151      0.0001
     17  N         44.4920   22.1010   19.2510 N.3   155  CYS155     -0.1235
     18  CA        43.6900   22.8390   18.2730 C.3   155  CYS155      0.1677
     19  C         43.7800   24.3490   18.5450 C.2   155  CYS155      0.2270
     20  O         43.4740   25.1420   17.6570 O.2   155  CYS155     -0.2867
     21  CB        42.2410   22.3570   18.3020 C.3   155  CYS155      0.0956
     22  SG        41.5050   22.1070   16.6660 S.3   155  CYS155     -0.0801
     23  N         46.9910   24.8120   15.9570 N.3   159  VAL159     -0.1245
     24  CA        46.0900   25.0350   14.8180 C.3   159  VAL159      0.1561
     25  C         45.6030   26.5070   14.7640 C.2   159  VAL159      0.2260
     26  O         45.8430   27.1640   13.7520 O.2   159  VAL159     -0.2867
     27  CB        44.9020   24.0270   14.7760 C.3   159  VAL159      0.0252
     28  CG1       43.9810   24.2960   13.5890 C.3   159  VAL159      0.0019
     29  CG2       45.4010   22.5840   14.7370 C.3   159  VAL159      0.0019
     30  N         45.6690   23.2000    8.1870 N.3   182  VAL182     -0.1245
     31  CA        45.0020   21.8900    8.0650 C.3   182  VAL182      0.1561
     32  C         45.6460   21.0580    6.9230 C.2   182  VAL182      0.2260
     33  O         45.9580   19.8920    7.1580 O.2   182  VAL182     -0.2867
     34  CB        43.4550   22.0080    7.9020 C.3   182  VAL182      0.0252
     35  CG1       42.8070   20.6480    7.6390 C.3   182  VAL182      0.0019
     36  CG2       42.8170   22.6700    9.1220 C.3   182  VAL182      0.0019
     37  N         49.3760   20.0650    8.2380 N.3   185  LEU185     -0.1231
     38  CA        49.3850   19.0440    9.2920 C.3   185  LEU185      0.1693
     39  C         48.8920   17.6720    8.7970 C.2   185  LEU185      0.2593
     40  O         49.4580   16.6610    9.2090 O.2   185  LEU185     -0.2718
     41  CB        48.5780   19.4950   10.5220 C.3   185  LEU185      0.0284
     42  CG        49.0610   20.7580   11.2670 C.3   185  LEU185      0.0019
     43  CD1       48.0980   21.1310   12.3720 C.3   185  LEU185      0.0001
     44  CD2       50.4670   20.5890   11.8410 C.3   185  LEU185      0.0001
     45  N         47.8960   17.6300    7.8830 N.am  186  THR186     -0.1939
     46  CA        47.3940   16.3690    7.3100 C.3   186  THR186      0.2028
     47  C         48.3970   15.7610    6.3210 C.2   186  THR186      0.2642
     48  O         48.1500   14.6730    5.7900 O.2   186  THR186     -0.2714
     49  CB        46.0520   16.5650    6.5960 C.3   186  THR186      0.1808
     50  OG1       46.1580   17.6490    5.6750 O.3   186  THR186     -0.2208
     51  CG2       44.8920   16.7600    7.5500 C.3   186  THR186      0.0379
     52  N         49.5080   16.4870    6.0520 N.am  187  THR187     -0.1950
     53  CA        50.6080   16.1580    5.1290 C.3   187  THR187      0.1897
     54  C         50.0920   16.0240    3.6850 C.2   187  THR187      0.2313
     55  O         50.7730   15.4380    2.8380 O.2   187  THR187     -0.2863
     56  CB        51.4290   14.9230    5.5690 C.3   187  THR187      0.1794
     57  OG1       50.6540   13.7290    5.4310 O.3   187  THR187     -0.2208
     58  CG2       52.0070   15.0640    6.9690 C.3   187  THR187      0.0378
     59  N         53.0670   18.1090   14.3100 N.3   218  LEU218     -0.1245
     60  CA        52.8130   16.7450   13.8260 C.3   218  LEU218      0.1561
     61  C         53.0150   15.7240   14.9460 C.2   218  LEU218      0.2260
     62  O         52.1530   14.8620   15.1380 O.2   218  LEU218     -0.2867
     63  CB        53.7120   16.3820   12.6260 C.3   218  LEU218      0.0270
     64  CG        53.1530   16.6390   11.2320 C.3   218  LEU218      0.0019
     65  CD1       54.2620   16.6940   10.2210 C.3   218  LEU218      0.0001
     66  CD2       52.1750   15.5540   10.8230 C.3   218  LEU218      0.0001
     67  N         50.0310   15.6810   17.6280 N.3   221  PHE221     -0.1227
     68  CA        48.8210   14.9800   17.1900 C.3   221  PHE221      0.1736
     69  C         49.0820   13.4790   17.0040 C.2   221  PHE221      0.2595
     70  O         48.1870   12.6710   17.2730 O.2   221  PHE221     -0.2718
     71  CB        48.2470   15.6040   15.9090 C.3   221  PHE221      0.0547
     72  CG        47.5530   16.9310   16.1260 C.ar  221  PHE221     -0.0202
     73  CD1       46.3430   17.0000   16.8120 C.ar  221  PHE221     -0.0042
     74  CD2       48.0780   18.1030   15.5980 C.ar  221  PHE221     -0.0042
     75  CE1       45.6960   18.2250   17.0020 C.ar  221  PHE221     -0.0003
     76  CE2       47.4290   19.3270   15.7850 C.ar  221  PHE221     -0.0003
     77  CZ        46.2420   19.3800   16.4860 C.ar  221  PHE221     -0.0000
     78  N         50.3170   13.1110   16.5900 N.am  222  ALA222     -0.1980
     79  CA        50.7400   11.7190   16.4280 C.3   222  ALA222      0.1597
     80  C         50.7940   11.0200   17.7930 C.2   222  ALA222      0.2287
     81  O         50.4150    9.8520   17.8870 O.2   222  ALA222     -0.2864
     82  CB        52.0960   11.6520   15.7400 C.3   222  ALA222      0.0319
     83  N         47.3350   10.0780   19.0560 N.3   225  LEU225     -0.1245
     84  CA        46.9710    8.8470   18.3490 C.3   225  LEU225      0.1561
     85  C         47.7350    7.6570   18.9580 C.2   225  LEU225      0.2260
     86  O         47.1740    6.5640   19.0820 O.2   225  LEU225     -0.2867
     87  CB        47.2650    8.9800   16.8490 C.3   225  LEU225      0.0270
     88  CG        46.3580    9.9230   16.0600 C.3   225  LEU225      0.0019
     89  CD1       46.8870   10.0340   14.6490 C.3   225  LEU225      0.0001
     90  CD2       44.9330    9.4340   16.0160 C.3   225  LEU225      0.0001
@<TRIPOS>BOND
     1    55    54    2
     2    54    53    1
     3    53    56    1
     4    53    52    1
     5    57    56    1
     6    56    58    1
     7    50    49    1
     8    48    47    2
     9    52    47   am
    10    47    46    1
    11    49    46    1
    12    49    51    1
    13    32    33    2
    14    32    31    1
    15    46    45    1
    16    35    34    1
    17    45    39   am
    18    34    31    1
    19    34    36    1
    20    31    30    1
    21    37    38    1
    22    39    40    2
    23    39    38    1
    24    38    41    1
    25    65    64    1
    26    41    42    1
    27    66    64    1
    28    64    63    1
    29    42    44    1
    30    42    43    1
    31    63    60    1
    32     8     6    1
    33    28    27    1
    34     7     6    1
    35    26    25    2
    36    60    59    1
    37    60    61    1
    38     6     5    1
    39     5     2    1
    40    89    88    1
    41    29    27    1
    42    25    24    1
    43    27    24    1
    44    24    23    1
    45     1     2    1
    46    61    62    2
    47     2     3    1
    48    74    76   ar
    49    74    72   ar
    50    82    79    1
    51    76    77   ar
    52    71    72    1
    53    71    68    1
    54    90    88    1
    55    88    87    1
    56    72    73   ar
    57     3     4    2
    58    79    78    1
    59    79    80    1
    60    77    75   ar
    61    78    69   am
    62    22    21    1
    63    73    75   ar
    64    87    84    1
    65    69    68    1
    66    69    70    2
    67    68    67    1
    68    20    19    2
    69    80    81    2
    70    18    21    1
    71    18    19    1
    72    18    17    1
    73    84    85    1
    74    84    83    1
    75    15    13    1
    76    85    86    2
    77    16    14    1
    78    14    13    1
    79    12    11    2
    80    13    10    1
    81    11    10    1
    82    10     9    1
