@<TRIPOS>MOLECULE
tmp/4xdkA02.pdb
 82 75 0 0 0
SMALL
GASTEIGER

@<TRIPOS>ATOM
      1  N         10.3670   39.8480   61.7570 N.3   127  LEU127     -0.1245
      2  CA         9.9160   38.9000   62.7750 C.3   127  LEU127      0.1561
      3  C         10.0840   39.4830   64.1810 C.2   127  LEU127      0.2260
      4  O          9.2680   39.1870   65.0600 O.2   127  LEU127     -0.2867
      5  CB        10.6720   37.5700   62.6360 C.3   127  LEU127      0.0270
      6  CG         9.8390   36.3110   62.7800 C.3   127  LEU127      0.0019
      7  CD1        8.9110   36.1260   61.6100 C.3   127  LEU127      0.0001
      8  CD2       10.7170   35.1080   62.8910 C.3   127  LEU127      0.0001
      9  N         -1.3110   27.0660   69.2310 N.3   172  CYS172     -0.1235
     10  CA        -1.4670   25.6590   68.8670 C.3   172  CYS172      0.1677
     11  C         -2.8260   25.3810   68.2390 C.2   172  CYS172      0.2270
     12  O         -2.9540   24.4230   67.4810 O.2   172  CYS172     -0.2867
     13  CB        -1.2190   24.7590   70.0680 C.3   172  CYS172      0.0956
     14  SG         0.5180   24.3010   70.2770 S.3   172  CYS172     -0.0801
     15  N         -1.6350   26.0240   64.4680 N.3   176  VAL176     -0.1245
     16  CA        -1.1970   24.6300   64.3190 C.3   176  VAL176      0.1561
     17  C         -2.3880   23.7140   63.9640 C.2   176  VAL176      0.2260
     18  O         -2.3450   23.0880   62.9060 O.2   176  VAL176     -0.2867
     19  CB        -0.3930   24.0940   65.5390 C.3   176  VAL176      0.0252
     20  CG1        0.0840   22.6630   65.3120 C.3   176  VAL176      0.0019
     21  CG2        0.7930   24.9970   65.8600 C.3   176  VAL176      0.0019
     22  N          4.1630   21.1990   61.7480 N.3   199  VAL199     -0.1245
     23  CA         5.2480   21.1400   62.7350 C.3   199  VAL199      0.1561
     24  C          6.6030   21.3490   62.0380 C.2   199  VAL199      0.2260
     25  O          7.3370   22.2560   62.4270 O.2   199  VAL199     -0.2867
     26  CB         5.2080   19.8270   63.5680 C.3   199  VAL199      0.0252
     27  CG1        6.4820   19.6370   64.3980 C.3   199  VAL199      0.0019
     28  CG2        3.9740   19.7960   64.4650 C.3   199  VAL199      0.0019
     29  N          6.7650   25.1560   60.7360 N.3   202  LEU202     -0.1231
     30  CA         6.9330   26.1700   61.7820 C.3   202  LEU202      0.1693
     31  C          8.2430   26.0030   62.5840 C.2   202  LEU202      0.2593
     32  O          8.7440   26.9990   63.1100 O.2   202  LEU202     -0.2718
     33  CB         5.7180   26.2260   62.7240 C.3   202  LEU202      0.0284
     34  CG         4.3760   26.6520   62.1050 C.3   202  LEU202      0.0019
     35  CD1        3.2590   26.5180   63.1110 C.3   202  LEU202      0.0001
     36  CD2        4.4210   28.0810   61.5520 C.3   202  LEU202      0.0001
     37  N          8.8230   24.7850   62.6450 N.am  203  THR203     -0.1939
     38  CA        10.1170   24.5890   63.3140 C.3   203  THR203      0.2028
     39  C         11.2610   25.0230   62.3850 C.2   203  THR203      0.2642
     40  O         12.4200   24.9940   62.7980 O.2   203  THR203     -0.2714
     41  CB        10.3270   23.1410   63.7430 C.3   203  THR203      0.1808
     42  OG1       10.0460   22.2830   62.6450 O.3   203  THR203     -0.2208
     43  CG2        9.5140   22.7570   64.9480 C.3   203  THR203      0.0379
     44  N         10.9290   25.4010   61.1210 N.am  204  THR204     -0.1950
     45  CA        11.8120   25.8160   60.0140 C.3   204  THR204      0.1897
     46  C         12.7720   24.6810   59.6250 C.2   204  THR204      0.2313
     47  O         13.7830   24.9290   58.9600 O.2   204  THR204     -0.2863
     48  CB        12.5580   27.1390   60.2770 C.3   204  THR204      0.1794
     49  OG1       13.5490   26.9630   61.2880 O.3   204  THR204     -0.2208
     50  CG2       11.6240   28.2890   60.5980 C.3   204  THR204      0.0378
     51  N          5.3510   31.9180   62.5330 N.3   230  LEU230     -0.1245
     52  CA         6.7450   32.0450   62.9900 C.3   230  LEU230      0.1561
     53  C          6.8940   33.2090   63.9490 C.2   230  LEU230      0.2260
     54  O          7.5700   33.0660   64.9630 O.2   230  LEU230     -0.2867
     55  CB         7.7320   32.2410   61.8190 C.3   230  LEU230      0.0270
     56  CG         7.9420   31.1070   60.8230 C.3   230  LEU230      0.0019
     57  CD1        8.9660   31.5010   59.7740 C.3   230  LEU230      0.0001
     58  CD2        8.3630   29.8280   61.5090 C.3   230  LEU230      0.0001
     59  N          5.1410   32.5320   67.5460 N.3   233  PHE233     -0.1227
     60  CA         5.9480   31.6380   68.3600 C.3   233  PHE233      0.1736
     61  C          7.3340   32.2260   68.6590 C.2   233  PHE233      0.2595
     62  O          7.9000   31.8990   69.7050 O.2   233  PHE233     -0.2718
     63  CB         6.0370   30.2490   67.7240 C.3   233  PHE233      0.0547
     64  CG         4.7580   29.4600   67.8970 C.ar  233  PHE233     -0.0202
     65  CD1        4.3190   29.0820   69.1640 C.ar  233  PHE233     -0.0042
     66  CD2        4.0180   29.0540   66.7950 C.ar  233  PHE233     -0.0042
     67  CE1        3.1480   28.3370   69.3240 C.ar  233  PHE233     -0.0003
     68  CE2        2.8480   28.3040   66.9560 C.ar  233  PHE233     -0.0003
     69  CZ         2.4240   27.9490   68.2200 C.ar  233  PHE233     -0.0000
     70  N          7.8410   33.1370   67.7950 N.am  234  ALA234     -0.1980
     71  CA         9.1160   33.8250   68.0180 C.3   234  ALA234      0.1597
     72  C          8.9630   34.8640   69.1360 C.2   234  ALA234      0.2287
     73  O          9.9200   35.1290   69.8650 O.2   234  ALA234     -0.2864
     74  CB         9.5960   34.4930   66.7390 C.3   234  ALA234      0.0319
     75  N          9.0110   32.7510   72.4100 N.3   237  LEU237     -0.1245
     76  CA        10.3860   32.3670   72.7580 C.3   237  LEU237      0.1561
     77  C         11.1910   33.5610   73.2410 C.2   237  LEU237      0.2260
     78  O         12.0310   33.3970   74.1250 O.2   237  LEU237     -0.2867
     79  CB        11.1240   31.7060   71.5870 C.3   237  LEU237      0.0270
     80  CG        10.9410   30.1990   71.3720 C.3   237  LEU237      0.0019
     81  CD1       12.0500   29.6550   70.4830 C.3   237  LEU237      0.0001
     82  CD2       10.9150   29.4130   72.6950 C.3   237  LEU237      0.0001
@<TRIPOS>BOND
     1    47    46    2
     2    46    45    1
     3    57    56    1
     4    45    48    1
     5    45    44    1
     6    48    50    1
     7    48    49    1
     8    29    30    1
     9    56    58    1
    10    56    55    1
    11    44    39   am
    12    36    34    1
    13     7     6    1
    14    22    23    1
    15     1     2    1
    16    30    31    1
    17    30    33    1
    18    55    52    1
    19    24    25    2
    20    24    23    1
    21    34    33    1
    22    34    35    1
    23    39    40    2
    24    39    38    1
    25    51    52    1
    26    31    37   am
    27    31    32    2
    28     5     2    1
    29     5     6    1
    30    37    38    1
    31    42    41    1
    32    23    26    1
    33     2     3    1
    34     6     8    1
    35    18    17    2
    36    52    53    1
    37    38    41    1
    38    26    27    1
    39    26    28    1
    40    41    43    1
    41    53    54    2
    42    17    16    1
    43     3     4    2
    44    16    15    1
    45    16    19    1
    46    20    19    1
    47    19    21    1
    48    74    71    1
    49    66    68   ar
    50    66    64   ar
    51    68    69   ar
    52    12    11    2
    53    59    60    1
    54    63    64    1
    55    63    60    1
    56    70    71    1
    57    70    61   am
    58    64    65   ar
    59    71    72    1
    60    69    67   ar
    61    11    10    1
    62    60    61    1
    63    61    62    2
    64    10     9    1
    65    10    13    1
    66    72    73    2
    67    65    67   ar
    68    13    14    1
    69    81    80    1
    70    80    79    1
    71    80    82    1
    72    79    76    1
    73    75    76    1
    74    76    77    1
    75    77    78    2
