@<TRIPOS>MOLECULE
tmp/4xdkB03.pdb
 86 81 0 0 0
SMALL
GASTEIGER

@<TRIPOS>ATOM
      1  N         31.6100   53.4550   68.4330 N.3   153  THR153     -0.1218
      2  CA        30.7910   52.9000   67.3520 C.3   153  THR153      0.1862
      3  C         31.6830   52.4640   66.1780 C.2   153  THR153      0.2287
      4  O         31.4100   51.4260   65.5770 O.2   153  THR153     -0.2866
      5  CB        29.7200   53.9070   66.9090 C.3   153  THR153      0.1770
      6  OG1       29.2180   54.6090   68.0500 O.3   153  THR153     -0.2211
      7  CG2       28.5630   53.2420   66.1670 C.3   153  THR153      0.0375
      8  N         33.6210   49.2530   67.2700 N.3   156  ARG156     -0.1231
      9  CA        32.6490   48.1620   67.2410 C.3   156  ARG156      0.1694
     10  C         32.3400   47.6820   65.8200 C.2   156  ARG156      0.2591
     11  O         32.0890   46.4910   65.6380 O.2   156  ARG156     -0.2718
     12  CB        31.3510   48.5860   67.9260 C.3   156  ARG156      0.0321
     13  CG        31.3860   48.4390   69.4330 C.3   156  ARG156      0.0489
     14  CD        30.0580   48.8510   70.0240 C.3   156  ARG156      0.2205
     15  NE        30.0140   48.6410   71.4680 N.pl3 156  ARG156     -0.0865
     16  CZ        28.9260   48.8010   72.2140 C.cat 156  ARG156      0.5346
     17  NH1       27.7790   49.1710   71.6560 N.pl3 156  ARG156      0.1354
     18  NH2       28.9740   48.5870   73.5210 N.pl3 156  ARG156      0.1354
     19  N         32.3480   48.5960   64.8220 N.am  157  VAL157     -0.1980
     20  CA        32.0910   48.2560   63.4150 C.3   157  VAL157      0.1595
     21  C         33.3280   47.5210   62.8550 C.2   157  VAL157      0.2287
     22  O         33.1700   46.4670   62.2390 O.2   157  VAL157     -0.2864
     23  CB        31.6740   49.4990   62.5770 C.3   157  VAL157      0.0276
     24  CG1       31.7740   49.2430   61.0740 C.3   157  VAL157      0.0022
     25  CG2       30.2590   49.9370   62.9410 C.3   157  VAL157      0.0022
     26  N         33.4440   43.9030   64.5780 N.3   160  THR160     -0.1203
     27  CA        32.4320   42.9950   64.0300 C.3   160  THR160      0.1994
     28  C         32.8620   42.4770   62.6470 C.2   160  THR160      0.2617
     29  O         32.8060   41.2650   62.4390 O.2   160  THR160     -0.2717
     30  CB        31.0550   43.6790   64.0060 C.3   160  THR160      0.1784
     31  OG1       30.7560   44.1530   65.3190 O.3   160  THR160     -0.2211
     32  CG2       29.9440   42.7480   63.5680 C.3   160  THR160      0.0376
     33  N         33.3360   43.3730   61.7330 N.am  161  ILE161     -0.1979
     34  CA        33.7970   43.0050   60.3790 C.3   161  ILE161      0.1595
     35  C         34.9170   41.9520   60.4870 C.2   161  ILE161      0.2287
     36  O         34.9040   40.9700   59.7410 O.2   161  ILE161     -0.2864
     37  CB        34.2370   44.2500   59.5440 C.3   161  ILE161      0.0276
     38  CG1       33.0290   45.1610   59.2330 C.3   161  ILE161      0.0022
     39  CG2       34.9540   43.8450   58.2430 C.3   161  ILE161      0.0022
     40  CD1       33.3790   46.6150   58.8740 C.3   161  ILE161      0.0001
     41  N         33.4260   38.5590   61.6890 N.3   164  ILE164     -0.1245
     42  CA        32.6730   37.9850   60.5690 C.3   164  ILE164      0.1561
     43  C         33.6610   37.3250   59.5900 C.2   164  ILE164      0.2260
     44  O         33.4240   36.1890   59.1740 O.2   164  ILE164     -0.2867
     45  CB        31.7710   39.0550   59.8980 C.3   164  ILE164      0.0252
     46  CG1       30.5190   39.3130   60.7610 C.3   164  ILE164      0.0019
     47  CG2       31.3750   38.6730   58.4590 C.3   164  ILE164      0.0019
     48  CD1       29.8680   40.6650   60.5320 C.3   164  ILE164      0.0001
     49  N         25.4120   41.8170   68.0110 N.3   242  ILE242     -0.1245
     50  CA        24.8440   42.8820   67.1680 C.3   242  ILE242      0.1561
     51  C         23.4260   43.2310   67.6630 C.2   242  ILE242      0.2260
     52  O         23.0540   44.4060   67.6690 O.2   242  ILE242     -0.2867
     53  CB        24.8640   42.5130   65.6500 C.3   242  ILE242      0.0252
     54  CG1       26.3060   42.2060   65.1750 C.3   242  ILE242      0.0019
     55  CG2       24.2490   43.6400   64.7860 C.3   242  ILE242      0.0019
     56  CD1       26.4150   41.3170   63.9240 C.3   242  ILE242      0.0001
     57  N         23.5800   45.2120   71.0460 N.3   245  TRP245     -0.1227
     58  CA        24.0660   46.5540   70.7440 C.3   245  TRP245      0.1737
     59  C         22.9640   47.4080   70.1170 C.2   245  TRP245      0.2595
     60  O         22.8910   48.6010   70.4180 O.2   245  TRP245     -0.2718
     61  CB        25.2950   46.4960   69.8220 C.3   245  TRP245      0.0564
     62  CG        26.5740   46.0660   70.4910 C.ar  245  TRP245      0.0003
     63  CD1       26.8290   46.0040   71.8330 C.ar  245  TRP245      0.0946
     64  CD2       27.7880   45.6830   69.8340 C.ar  245  TRP245      0.0152
     65  NE1       28.1200   45.5820   72.0500 N.ar  245  TRP245     -0.2442
     66  CE2       28.7350   45.3850   70.8400 C.ar  245  TRP245      0.0810
     67  CE3       28.1650   45.5490   68.4870 C.ar  245  TRP245      0.0012
     68  CZ2       30.0410   44.9740   70.5410 C.ar  245  TRP245      0.0191
     69  CZ3       29.4550   45.1340   68.1930 C.ar  245  TRP245      0.0001
     70  CH2       30.3790   44.8570   69.2110 C.ar  245  TRP245      0.0015
     71  N         22.1010   46.7990   69.2700 N.am  246  LEU246     -0.1980
     72  CA        20.9800   47.4780   68.6120 C.3   246  LEU246      0.1596
     73  C         19.8850   47.8530   69.6190 C.2   246  LEU246      0.2287
     74  O         19.2100   48.8680   69.4280 O.2   246  LEU246     -0.2864
     75  CB        20.4000   46.6200   67.4820 C.3   246  LEU246      0.0297
     76  CG        21.0930   46.7580   66.1220 C.3   246  LEU246      0.0022
     77  CD1       20.8910   45.5160   65.2800 C.3   246  LEU246      0.0001
     78  CD2       20.6050   47.9910   65.3630 C.3   246  LEU246      0.0001
     79  N         21.0480   50.9560   71.3050 N.3   249  LEU249     -0.1245
     80  CA        20.8510   52.0450   70.3410 C.3   249  LEU249      0.1561
     81  C         19.3950   52.5410   70.3500 C.2   249  LEU249      0.2260
     82  O         19.1650   53.7450   70.2150 O.2   249  LEU249     -0.2867
     83  CB        21.2450   51.5840   68.9320 C.3   249  LEU249      0.0270
     84  CG        21.4340   52.6790   67.8960 C.3   249  LEU249      0.0019
     85  CD1       22.9060   52.9420   67.6460 C.3   249  LEU249      0.0001
     86  CD2       20.7380   52.3170   66.6110 C.3   249  LEU249      0.0001
@<TRIPOS>BOND
     1    39    37    1
     2    47    45    1
     3    40    38    1
     4    44    43    2
     5    38    37    1
     6    37    34    1
     7    43    42    1
     8    36    35    2
     9    45    42    1
    10    45    46    1
    11    34    35    1
    12    34    33    1
    13    48    46    1
    14    42    41    1
    15    24    23    1
    16    33    28   am
    17    22    21    2
    18    29    28    2
    19    23    25    1
    20    23    20    1
    21    28    27    1
    22    21    20    1
    23    20    19    1
    24    32    30    1
    25    56    54    1
    26    30    27    1
    27    30    31    1
    28    27    26    1
    29    55    53    1
    30    19    10   am
    31    54    53    1
    32    77    76    1
    33    78    76    1
    34     4     3    2
    35    11    10    2
    36    53    50    1
    37    10     9    1
    38    76    75    1
    39     7     5    1
    40     3     2    1
    41    86    84    1
    42     5     2    1
    43     5     6    1
    44    50    51    1
    45    50    49    1
    46     9     8    1
    47     9    12    1
    48     2     1    1
    49    75    72    1
    50    85    84    1
    51    51    52    2
    52    84    83    1
    53    12    13    1
    54    69    67   ar
    55    69    70   ar
    56    67    64   ar
    57    72    71    1
    58    72    73    1
    59    83    80    1
    60    70    68   ar
    61    71    59   am
    62    74    73    2
    63    13    14    1
    64    61    62    1
    65    61    58    1
    66    64    62   ar
    67    64    66   ar
    68    14    15    1
    69    59    60    2
    70    59    58    1
    71    82    81    2
    72    80    81    1
    73    80    79    1
    74    62    63   ar
    75    68    66   ar
    76    58    57    1
    77    66    65   ar
    78    15    16    2
    79    17    16    1
    80    63    65   ar
    81    16    18    1
