@<TRIPOS>MOLECULE
tmp/4xdlA00.pdb
 111 111 0 0 0
SMALL
GASTEIGER

@<TRIPOS>ATOM
      1  N         -7.7980  143.1690    1.4130 N.3   179  VAL179     -0.1231
      2  CA        -7.0110  144.4070    1.3540 C.3   179  VAL179      0.1692
      3  C         -5.9270  144.4810    2.4650 C.2   179  VAL179      0.2592
      4  O         -4.7720  144.7890    2.1520 O.2   179  VAL179     -0.2718
      5  CB        -7.9550  145.6510    1.3940 C.3   179  VAL179      0.0266
      6  CG1       -7.1780  146.9600    1.5080 C.3   179  VAL179      0.0020
      7  CG2       -8.8730  145.6870    0.1770 C.3   179  VAL179      0.0020
      8  N         -6.2960  144.2130    3.7360 N.am  180  PHE180     -0.1976
      9  CA        -5.3810  144.3500    4.8780 C.3   180  PHE180      0.1639
     10  C         -4.8630  143.0230    5.4640 C.2   180  PHE180      0.2290
     11  O         -3.9400  143.0620    6.2830 O.2   180  PHE180     -0.2864
     12  CB        -6.0520  145.1620    6.0030 C.3   180  PHE180      0.0560
     13  CG        -6.6260  146.4830    5.5520 C.ar  180  PHE180     -0.0200
     14  CD1       -5.8040  147.5850    5.3530 C.ar  180  PHE180     -0.0042
     15  CD2       -7.9890  146.6220    5.3190 C.ar  180  PHE180     -0.0042
     16  CE1       -6.3340  148.8000    4.9260 C.ar  180  PHE180     -0.0003
     17  CE2       -8.5190  147.8390    4.8890 C.ar  180  PHE180     -0.0003
     18  CZ        -7.6890  148.9230    4.7050 C.ar  180  PHE180     -0.0000
     19  N         -3.6430  140.2920    0.8780 N.3   183  ILE183     -0.1231
     20  CA        -2.6820  141.0300    0.0470 C.3   183  ILE183      0.1678
     21  C         -1.3630  141.3260    0.8300 C.2   183  ILE183      0.2434
     22  O         -0.3110  140.9620    0.2930 O.2   183  ILE183     -0.2733
     23  CB        -3.3290  142.3120   -0.5690 C.3   183  ILE183      0.0265
     24  CG1       -4.3870  141.9250   -1.6350 C.3   183  ILE183      0.0019
     25  CG2       -2.2730  143.2650   -1.1610 C.3   183  ILE183      0.0020
     26  CD1       -5.5060  142.9260   -1.8560 C.3   183  ILE183      0.0001
     27  N         -1.3600  141.8950    2.0760 N.am  184  PRO184     -0.2729
     28  CA        -0.0780  142.1370    2.7670 C.3   184  PRO184      0.1401
     29  C          0.6780  140.8550    3.1170 C.2   184  PRO184      0.2269
     30  O          1.9040  140.8590    3.0270 O.2   184  PRO184     -0.2865
     31  CB        -0.4900  142.8950    4.0290 C.3   184  PRO184      0.0296
     32  CG        -1.8140  143.4670    3.7070 C.3   184  PRO184      0.0237
     33  CD        -2.4750  142.4080    2.8940 C.3   184  PRO184      0.0939
     34  N          2.6460  139.8340    0.2080 N.3   187  ILE187     -0.1231
     35  CA         3.7930  140.7480    0.1150 C.3   187  ILE187      0.1692
     36  C          4.8800  140.2990    1.1140 C.2   187  ILE187      0.2592
     37  O          6.0370  140.1700    0.7130 O.2   187  ILE187     -0.2718
     38  CB         3.3790  142.2380    0.3030 C.3   187  ILE187      0.0266
     39  CG1        2.3980  142.6800   -0.8130 C.3   187  ILE187      0.0019
     40  CG2        4.6090  143.1690    0.3640 C.3   187  ILE187      0.0020
     41  CD1        1.4360  143.7770   -0.4380 C.3   187  ILE187      0.0001
     42  N          4.5040  140.0040    2.3810 N.am  188  PHE188     -0.1976
     43  CA         5.4470  139.5300    3.4080 C.3   188  PHE188      0.1639
     44  C          6.0540  138.1710    3.0380 C.2   188  PHE188      0.2290
     45  O          7.2090  137.9170    3.3770 O.2   188  PHE188     -0.2864
     46  CB         4.7840  139.4410    4.7960 C.3   188  PHE188      0.0560
     47  CG         4.4340  140.7660    5.4320 C.ar  188  PHE188     -0.0200
     48  CD1        5.4120  141.7280    5.6600 C.ar  188  PHE188     -0.0042
     49  CD2        3.1390  141.0280    5.8580 C.ar  188  PHE188     -0.0042
     50  CE1        5.0870  142.9510    6.2460 C.ar  188  PHE188     -0.0003
     51  CE2        2.8150  142.2520    6.4430 C.ar  188  PHE188     -0.0003
     52  CZ         3.7930  143.2030    6.6400 C.ar  188  PHE188     -0.0000
     53  N         10.5620  150.4510    3.9810 N.3   229  TYR229     -0.1241
     54  CA         9.9500  149.1920    4.4080 C.3   229  TYR229      0.1605
     55  C          9.2910  149.2960    5.7940 C.2   229  TYR229      0.2264
     56  O          8.0650  149.2100    5.8570 O.2   229  TYR229     -0.2867
     57  CB        10.9500  148.0250    4.3640 C.3   229  TYR229      0.0534
     58  CG        10.3080  146.6870    4.6630 C.ar  229  TYR229     -0.0201
     59  CD1        9.4430  146.0880    3.7510 C.ar  229  TYR229     -0.0009
     60  CD2       10.5390  146.0350    5.8700 C.ar  229  TYR229     -0.0009
     61  CE1        8.8150  144.8770    4.0390 C.ar  229  TYR229      0.0417
     62  CE2        9.9310  144.8150    6.1610 C.ar  229  TYR229      0.0417
     63  CZ         9.0770  144.2340    5.2380 C.ar  229  TYR229      0.1957
     64  OH         8.4780  143.0300    5.5170 O.3   229  TYR229     -0.2866
     65  N          6.3500  151.7450    6.0360 N.3   232  LEU232     -0.1231
     66  CA         5.2030  151.2050    5.2870 C.3   232  LEU232      0.1693
     67  C          4.4680  150.1320    6.1090 C.2   232  LEU232      0.2591
     68  O          3.2350  150.0760    6.0700 O.2   232  LEU232     -0.2718
     69  CB         5.6330  150.6300    3.9220 C.3   232  LEU232      0.0284
     70  CG         4.5040  150.1720    2.9910 C.3   232  LEU232      0.0019
     71  CD1        3.9470  151.3270    2.1850 C.3   232  LEU232      0.0001
     72  CD2        4.9670  149.0740    2.0770 C.3   232  LEU232      0.0001
     73  N          5.2240  149.2950    6.8530 N.am  233  VAL233     -0.1980
     74  CA         4.6610  148.2480    7.7060 C.3   233  VAL233      0.1595
     75  C          3.8180  148.9190    8.8070 C.2   233  VAL233      0.2287
     76  O          2.6480  148.5580    8.9370 O.2   233  VAL233     -0.2864
     77  CB         5.7280  147.2700    8.2800 C.3   233  VAL233      0.0276
     78  CG1        5.0930  146.2440    9.2150 C.3   233  VAL233      0.0022
     79  CG2        6.4830  146.5620    7.1610 C.3   233  VAL233      0.0022
     80  N          2.5650  151.9320    8.7670 N.3   235  PHE235     -0.1227
     81  CA         1.4800  152.6310    8.0710 C.3   235  PHE235      0.1736
     82  C          0.3440  151.6550    7.7780 C.2   235  PHE235      0.2595
     83  O         -0.8150  152.0040    7.9930 O.2   235  PHE235     -0.2718
     84  CB         1.9720  153.3020    6.7760 C.3   235  PHE235      0.0547
     85  CG         0.8760  153.9190    5.9360 C.ar  235  PHE235     -0.0202
     86  CD1        0.3180  155.1450    6.2820 C.ar  235  PHE235     -0.0042
     87  CD2        0.4050  153.2770    4.7980 C.ar  235  PHE235     -0.0042
     88  CE1       -0.6990  155.7130    5.5090 C.ar  235  PHE235     -0.0003
     89  CE2       -0.6130  153.8440    4.0270 C.ar  235  PHE235     -0.0003
     90  CZ        -1.1520  155.0630    4.3830 C.ar  235  PHE235     -0.0000
     91  N          0.6860  150.4230    7.3200 N.am  236  TRP236     -0.1976
     92  CA        -0.2820  149.3600    7.0310 C.3   236  TRP236      0.1640
     93  C         -0.9980  148.9660    8.3230 C.2   236  TRP236      0.2290
     94  O         -2.2070  148.7250    8.3030 O.2   236  TRP236     -0.2864
     95  CB         0.3870  148.1350    6.3690 C.3   236  TRP236      0.0576
     96  CG        -0.3420  146.8360    6.6070 C.ar  236  TRP236      0.0006
     97  CD1       -1.5580  146.4680    6.1030 C.ar  236  TRP236      0.0946
     98  CD2        0.0700  145.7710    7.4770 C.ar  236  TRP236      0.0152
     99  NE1       -1.9260  145.2400    6.6050 N.ar  236  TRP236     -0.2442
    100  CE2       -0.9370  144.7810    7.4360 C.ar  236  TRP236      0.0810
    101  CE3        1.2050  145.5470    8.2770 C.ar  236  TRP236      0.0012
    102  CZ2       -0.8420  143.5880    8.1610 C.ar  236  TRP236      0.0191
    103  CZ3        1.2930  144.3680    9.0000 C.ar  236  TRP236      0.0001
    104  CH2        0.2810  143.4020    8.9350 C.ar  236  TRP236      0.0015
    105  N         -3.5480  151.8770    9.0180 N.3   239  VAL239     -0.1245
    106  CA        -4.7260  151.8180    8.1340 C.3   239  VAL239      0.1561
    107  C         -5.5540  150.5540    8.4460 C.2   239  VAL239      0.2260
    108  O         -6.7830  150.6320    8.5290 O.2   239  VAL239     -0.2867
    109  CB        -4.3730  151.9100    6.6250 C.3   239  VAL239      0.0252
    110  CG1       -5.6260  152.1410    5.7870 C.3   239  VAL239      0.0019
    111  CG2       -3.3710  153.0260    6.3620 C.3   239  VAL239      0.0019
@<TRIPOS>BOND
     1    26    24    1
     2    24    23    1
     3    25    23    1
     4    39    41    1
     5    39    38    1
     6    23    20    1
     7    20    21    1
     8    20    19    1
     9    35    34    1
    10    35    38    1
    11    35    36    1
    12     7     5    1
    13    22    21    2
    14    38    40    1
    15    37    36    2
    16    21    27   am
    17    36    42   am
    18     2     5    1
    19     2     1    1
    20     2     3    1
    21     5     6    1
    22    27    28    1
    23    27    33    1
    24    72    70    1
    25     4     3    2
    26    71    70    1
    27    42    43    1
    28     3     8   am
    29    28    29    1
    30    28    31    1
    31    33    32    1
    32    70    69    1
    33    30    29    2
    34    44    45    2
    35    44    43    1
    36    43    46    1
    37    32    31    1
    38     8     9    1
    39    59    61   ar
    40    59    58   ar
    41    69    66    1
    42    53    54    1
    43    89    90   ar
    44    89    87   ar
    45    61    63   ar
    46    57    54    1
    47    57    58    1
    48    90    88   ar
    49    54    55    1
    50    58    60   ar
    51    18    17   ar
    52    18    16   ar
    53    46    47    1
    54    87    85   ar
    55     9    10    1
    56     9    12    1
    57    17    15   ar
    58    16    14   ar
    59    63    64    1
    60    63    62   ar
    61    66    65    1
    62    66    67    1
    63    15    13   ar
    64    14    13   ar
    65    47    48   ar
    66    47    49   ar
    67    10    11    2
    68    88    86   ar
    69    13    12    1
    70    48    50   ar
    71   110   109    1
    72    55    56    2
    73    49    51   ar
    74    60    62   ar
    75    85    86   ar
    76    85    84    1
    77    68    67    2
    78    97    99   ar
    79    97    96   ar
    80    67    73   am
    81    50    52   ar
    82   111   109    1
    83    95    96    1
    84    95    92    1
    85    51    52   ar
    86    99   100   ar
    87    96    98   ar
    88   109   106    1
    89    84    81    1
    90    73    74    1
    91    92    91    1
    92    92    93    1
    93    79    77    1
    94    91    82   am
    95   100    98   ar
    96   100   102   ar
    97    98   101   ar
    98    74    77    1
    99    74    75    1
   100    82    83    2
   101    82    81    1
   102    81    80    1
   103   106   107    1
   104   106   105    1
   105   102   104   ar
   106   101   103   ar
   107    77    78    1
   108    94    93    2
   109   107   108    2
   110    75    76    2
   111   104   103   ar
