@<TRIPOS>MOLECULE
tmp/4xdlD00.pdb
 86 81 0 0 0
SMALL
GASTEIGER

@<TRIPOS>ATOM
      1  N         74.1310   73.6090   40.1850 N.3   162  THR162     -0.1218
      2  CA        72.7510   74.0740   40.0050 C.3   162  THR162      0.1862
      3  C         72.6840   75.6050   40.1420 C.2   162  THR162      0.2287
      4  O         72.0450   76.2530   39.3100 O.2   162  THR162     -0.2866
      5  CB        71.7890   73.3710   40.9780 C.3   162  THR162      0.1770
      6  OG1       72.1080   71.9790   41.0580 O.3   162  THR162     -0.2211
      7  CG2       70.3240   73.5370   40.5680 C.3   162  THR162      0.0375
      8  N         74.3120   77.1410   37.0190 N.3   165  ARG165     -0.1231
      9  CA        73.3830   76.9190   35.9100 C.3   165  ARG165      0.1694
     10  C         72.1830   77.8690   35.9730 C.2   165  ARG165      0.2591
     11  O         71.7830   78.3860   34.9330 O.2   165  ARG165     -0.2718
     12  CB        72.8910   75.4690   35.9030 C.3   165  ARG165      0.0321
     13  CG        73.8150   74.4790   35.2090 C.3   165  ARG165      0.0489
     14  CD        73.2500   73.0790   35.3520 C.3   165  ARG165      0.2205
     15  NE        73.9260   72.0950   34.5080 N.pl3 165  ARG165     -0.0865
     16  CZ        73.4800   70.8580   34.2960 C.cat 165  ARG165      0.5346
     17  NH1       72.3480   70.4430   34.8540 N.pl3 165  ARG165      0.1354
     18  NH2       74.1590   70.0300   33.5120 N.pl3 165  ARG165      0.1354
     19  N         71.6220   78.1050   37.1810 N.am  166  VAL166     -0.1980
     20  CA        70.4620   78.9800   37.3930 C.3   166  VAL166      0.1595
     21  C         70.8390   80.4480   37.0840 C.2   166  VAL166      0.2287
     22  O         70.1490   81.0760   36.2790 O.2   166  VAL166     -0.2864
     23  CB        69.8470   78.7930   38.8100 C.3   166  VAL166      0.0276
     24  CG1       68.9780   79.9780   39.2300 C.3   166  VAL166      0.0022
     25  CG2       69.0490   77.4930   38.8840 C.3   166  VAL166      0.0022
     26  N         71.4990   81.0130   33.2810 N.3   169  THR169     -0.1203
     27  CA        70.2390   80.9990   32.5370 C.3   169  THR169      0.1994
     28  C         69.5440   82.3620   32.6730 C.2   169  THR169      0.2617
     29  O         69.0830   82.8890   31.6600 O.2   169  THR169     -0.2717
     30  CB        69.3660   79.8250   32.9940 C.3   169  THR169      0.1784
     31  OG1       70.1070   78.6160   32.8360 O.3   169  THR169     -0.2211
     32  CG2       68.0810   79.7110   32.2040 C.3   169  THR169      0.0376
     33  N         69.5190   82.9490   33.8980 N.am  170  ILE170     -0.1979
     34  CA        68.9330   84.2730   34.1720 C.3   170  ILE170      0.1595
     35  C         69.6610   85.3280   33.3160 C.2   170  ILE170      0.2287
     36  O         69.0070   86.1930   32.7310 O.2   170  ILE170     -0.2864
     37  CB        68.9640   84.6200   35.6880 C.3   170  ILE170      0.0276
     38  CG1       68.1030   83.6270   36.5040 C.3   170  ILE170      0.0022
     39  CG2       68.5160   86.0720   35.9490 C.3   170  ILE170      0.0022
     40  CD1       68.4910   83.4900   37.9880 C.3   170  ILE170      0.0001
     41  N         68.6530   84.8730   29.6560 N.3   173  ILE173     -0.1245
     42  CA        67.2830   85.3760   29.5570 C.3   173  ILE173      0.1561
     43  C         67.3380   86.9090   29.4820 C.2   173  ILE173      0.2260
     44  O         66.7410   87.4770   28.5710 O.2   173  ILE173     -0.2867
     45  CB        66.4160   84.8380   30.7330 C.3   173  ILE173      0.0252
     46  CG1       65.9850   83.3810   30.4530 C.3   173  ILE173      0.0019
     47  CG2       65.2000   85.7340   31.0220 C.3   173  ILE173      0.0019
     48  CD1       65.6530   82.5580   31.6750 C.3   173  ILE173      0.0001
     49  N         67.2920   74.3340   29.1810 N.3   251  ILE251     -0.1245
     50  CA        66.6080   74.1360   30.4720 C.3   251  ILE251      0.1561
     51  C         65.9180   72.7690   30.4680 C.2   251  ILE251      0.2260
     52  O         65.9810   72.0450   31.4650 O.2   251  ILE251     -0.2867
     53  CB        65.6020   75.2860   30.7830 C.3   251  ILE251      0.0252
     54  CG1       66.2960   76.6510   30.7900 C.3   251  ILE251      0.0019
     55  CG2       64.8770   75.0700   32.1220 C.3   251  ILE251      0.0019
     56  CD1       65.3770   77.8160   30.4400 C.3   251  ILE251      0.0001
     57  N         68.3190   69.7150   30.9110 N.3   254  TRP254     -0.1227
     58  CA        68.7510   69.5860   32.3040 C.3   254  TRP254      0.1737
     59  C         67.6620   68.9510   33.1720 C.2   254  TRP254      0.2595
     60  O         67.9780   68.1220   34.0290 O.2   254  TRP254     -0.2718
     61  CB        69.1360   70.9540   32.8910 C.3   254  TRP254      0.0564
     62  CG        70.3210   71.6370   32.2670 C.ar  254  TRP254      0.0003
     63  CD1       71.3520   71.0570   31.5870 C.ar  254  TRP254      0.0946
     64  CD2       70.6320   73.0320   32.3560 C.ar  254  TRP254      0.0152
     65  NE1       72.2680   72.0140   31.2120 N.ar  254  TRP254     -0.2442
     66  CE2       71.8530   73.2370   31.6760 C.ar  254  TRP254      0.0810
     67  CE3       69.9830   74.1360   32.9290 C.ar  254  TRP254      0.0012
     68  CZ2       72.4430   74.5050   31.5610 C.ar  254  TRP254      0.0191
     69  CZ3       70.5630   75.3870   32.8110 C.ar  254  TRP254      0.0001
     70  CH2       71.7800   75.5630   32.1410 C.ar  254  TRP254      0.0015
     71  N         66.3880   69.3500   32.9580 N.am  255  LEU255     -0.1980
     72  CA        65.2290   68.8540   33.7070 C.3   255  LEU255      0.1596
     73  C         64.9260   67.3750   33.4080 C.2   255  LEU255      0.2287
     74  O         64.3600   66.6900   34.2640 O.2   255  LEU255     -0.2864
     75  CB        63.9870   69.7080   33.4210 C.3   255  LEU255      0.0297
     76  CG        63.9470   71.0960   34.0640 C.3   255  LEU255      0.0022
     77  CD1       62.9800   71.9970   33.3260 C.3   255  LEU255      0.0001
     78  CD2       63.5700   71.0230   35.5420 C.3   255  LEU255      0.0001
     79  N         67.2620   65.4690   35.5220 N.3   258  LEU258     -0.1245
     80  CA        66.7600   65.6860   36.8820 C.3   258  LEU258      0.1561
     81  C         65.5780   64.7650   37.1800 C.2   258  LEU258      0.2260
     82  O         65.3670   64.3780   38.3250 O.2   258  LEU258     -0.2867
     83  CB        66.3410   67.1520   37.0620 C.3   258  LEU258      0.0270
     84  CG        66.1200   67.6000   38.5030 C.3   258  LEU258      0.0019
     85  CD1       67.4260   67.8200   39.1830 C.3   258  LEU258      0.0001
     86  CD2       65.3240   68.9040   38.6020 C.3   258  LEU258      0.0001
@<TRIPOS>BOND
     1    44    43    2
     2    49    50    1
     3    43    42    1
     4    42    41    1
     5    42    45    1
     6    56    54    1
     7    46    45    1
     8    46    48    1
     9    51    50    1
    10    51    52    2
    11    50    53    1
    12    45    47    1
    13    53    54    1
    14    53    55    1
    15    57    58    1
    16    65    63   ar
    17    65    66   ar
    18    68    66   ar
    19    68    70   ar
    20    63    62   ar
    21    29    28    2
    22    66    64   ar
    23    70    69   ar
    24    32    30    1
    25    62    64   ar
    26    62    61    1
    27    58    61    1
    28    58    59    1
    29    64    67   ar
    30    27    28    1
    31    27    30    1
    32    27    26    1
    33    28    33   am
    34    36    35    2
    35    69    67   ar
    36    31    30    1
    37    71    59   am
    38    71    72    1
    39    59    60    2
    40    35    34    1
    41    77    76    1
    42    73    72    1
    43    73    74    2
    44    75    72    1
    45    75    76    1
    46    18    16    1
    47    33    34    1
    48    76    78    1
    49    34    37    1
    50    16    15    2
    51    16    17    1
    52    15    14    1
    53    11    10    2
    54    13    14    1
    55    13    12    1
    56    79    80    1
    57    37    39    1
    58    37    38    1
    59    12     9    1
    60     9    10    1
    61     9     8    1
    62    10    19   am
    63    22    21    2
    64    38    40    1
    65    80    83    1
    66    80    81    1
    67    83    84    1
    68    21    20    1
    69    81    82    2
    70    19    20    1
    71    20    23    1
    72    84    86    1
    73    84    85    1
    74    23    25    1
    75    23    24    1
    76     4     3    2
    77     2     3    1
    78     2     1    1
    79     2     5    1
    80     7     5    1
    81     5     6    1
