@<TRIPOS>MOLECULE
tmp/4xdlA02.pdb
 86 81 0 0 0
SMALL
GASTEIGER

@<TRIPOS>ATOM
      1  N        -32.0590  144.3440   10.0080 N.3   162  THR162     -0.1218
      2  CA       -31.0590  143.5180   10.6970 C.3   162  THR162      0.1862
      3  C        -30.3380  142.6090    9.6810 C.2   162  THR162      0.2287
      4  O        -29.1100  142.5270    9.7200 O.2   162  THR162     -0.2866
      5  CB       -31.7070  142.7140   11.8410 C.3   162  THR162      0.1770
      6  OG1      -32.5860  143.5620   12.5840 O.3   162  THR162     -0.2211
      7  CG2      -30.6770  142.0950   12.7840 C.3   162  THR162      0.0375
      8  N        -28.0340  144.8230    7.5330 N.3   165  ARG165     -0.1231
      9  CA       -26.9200  145.2270    8.3950 C.3   165  ARG165      0.1694
     10  C        -25.9170  144.0910    8.6190 C.2   165  ARG165      0.2591
     11  O        -24.7130  144.3420    8.5840 O.2   165  ARG165     -0.2718
     12  CB       -27.4370  145.7210    9.7510 C.3   165  ARG165      0.0321
     13  CG       -27.8750  147.1740    9.7620 C.3   165  ARG165      0.0489
     14  CD       -28.4400  147.5460   11.1180 C.3   165  ARG165      0.2205
     15  NE       -28.6500  148.9880   11.2520 N.pl3 165  ARG165     -0.0865
     16  CZ       -28.9260  149.6000   12.4000 C.cat 165  ARG165      0.5346
     17  NH1      -29.0220  148.9050   13.5270 N.pl3 165  ARG165      0.1354
     18  NH2      -29.0990  150.9150   12.4300 N.pl3 165  ARG165      0.1354
     19  N        -26.4080  142.8500    8.8360 N.am  166  VAL166     -0.1980
     20  CA       -25.5740  141.6670    9.0810 C.3   166  VAL166      0.1595
     21  C        -24.7640  141.3170    7.8120 C.2   166  VAL166      0.2287
     22  O        -23.5410  141.2040    7.9060 O.2   166  VAL166     -0.2864
     23  CB       -26.4130  140.4690    9.6170 C.3   166  VAL166      0.0276
     24  CG1      -25.6930  139.1340    9.4400 C.3   166  VAL166      0.0022
     25  CG2      -26.7820  140.6800   11.0840 C.3   166  VAL166      0.0022
     26  N        -22.0310  143.9840    7.0340 N.3   169  THR169     -0.1203
     27  CA       -20.9170  143.8770    7.9790 C.3   169  THR169      0.1994
     28  C        -19.9850  142.7280    7.5570 C.2   169  THR169      0.2617
     29  O        -18.7690  142.9260    7.5540 O.2   169  THR169     -0.2717
     30  CB       -21.4490  143.7350    9.4150 C.3   169  THR169      0.1784
     31  OG1      -22.3030  144.8430    9.6930 O.3   169  THR169     -0.2211
     32  CG2      -20.3450  143.7110   10.4560 C.3   169  THR169      0.0376
     33  N        -20.5510  141.5620    7.1530 N.am  170  ILE170     -0.1979
     34  CA       -19.7930  140.3910    6.6730 C.3   170  ILE170      0.1595
     35  C        -18.9580  140.8060    5.4470 C.2   170  ILE170      0.2287
     36  O        -17.7830  140.4420    5.3540 O.2   170  ILE170     -0.2864
     37  CB       -20.7330  139.1810    6.3630 C.3   170  ILE170      0.0276
     38  CG1      -21.4490  138.6850    7.6400 C.3   170  ILE170      0.0022
     39  CG2      -19.9700  138.0290    5.6810 C.3   170  ILE170      0.0022
     40  CD1      -22.7660  137.9270    7.4080 C.3   170  ILE170      0.0001
     41  N        -16.0950  143.0930    6.5530 N.3   173  ILE173     -0.1245
     42  CA       -15.1220  142.2300    7.2180 C.3   173  ILE173      0.1561
     43  C        -14.2930  141.5150    6.1360 C.2   173  ILE173      0.2260
     44  O        -13.0660  141.5620    6.2010 O.2   173  ILE173     -0.2867
     45  CB       -15.8420  141.2610    8.2020 C.3   173  ILE173      0.0252
     46  CG1      -16.1970  141.9990    9.5100 C.3   173  ILE173      0.0019
     47  CG2      -15.0200  139.9870    8.4810 C.3   173  ILE173      0.0019
     48  CD1      -17.3500  141.4170   10.2930 C.3   173  ILE173      0.0001
     49  N        -20.5920  148.2910   14.7130 N.3   251  ILE251     -0.1245
     50  CA       -21.3180  147.1800   15.3580 C.3   251  ILE251      0.1561
     51  C        -21.7110  147.5930   16.7930 C.2   251  ILE251      0.2260
     52  O        -22.8390  147.3350   17.2200 O.2   251  ILE251     -0.2867
     53  CB       -20.4930  145.8510   15.3380 C.3   251  ILE251      0.0252
     54  CG1      -20.1080  145.4430   13.9010 C.3   251  ILE251      0.0019
     55  CG2      -21.2540  144.7020   16.0230 C.3   251  ILE251      0.0019
     56  CD1      -18.8230  144.6230   13.7950 C.3   251  ILE251      0.0001
     57  N        -24.6870  150.1290   16.9900 N.3   254  TRP254     -0.1227
     58  CA       -25.9650  149.4550   16.7520 C.3   254  TRP254      0.1737
     59  C        -26.4420  148.6990   17.9910 C.2   254  TRP254      0.2595
     60  O        -27.6360  148.7320   18.2990 O.2   254  TRP254     -0.2718
     61  CB       -25.8560  148.4780   15.5700 C.3   254  TRP254      0.0564
     62  CG       -25.5950  149.0970   14.2260 C.ar  254  TRP254      0.0003
     63  CD1      -25.8760  150.3750   13.8350 C.ar  254  TRP254      0.0946
     64  CD2      -25.0840  148.4260   13.0660 C.ar  254  TRP254      0.0152
     65  NE1      -25.5360  150.5510   12.5130 N.ar  254  TRP254     -0.2442
     66  CE2      -25.0500  149.3690   12.0150 C.ar  254  TRP254      0.0810
     67  CE3      -24.6330  147.1170   12.8160 C.ar  254  TRP254      0.0012
     68  CZ2      -24.5870  149.0450   10.7310 C.ar  254  TRP254      0.0191
     69  CZ3      -24.1720  146.7980   11.5470 C.ar  254  TRP254      0.0001
     70  CH2      -24.1560  147.7530   10.5200 C.ar  254  TRP254      0.0015
     71  N        -25.5110  148.0120   18.6910 N.am  255  LEU255     -0.1980
     72  CA       -25.7970  147.2200   19.8930 C.3   255  LEU255      0.1596
     73  C        -26.2050  148.0990   21.0910 C.2   255  LEU255      0.2287
     74  O        -26.9440  147.6280   21.9610 O.2   255  LEU255     -0.2864
     75  CB       -24.5930  146.3420   20.2640 C.3   255  LEU255      0.0297
     76  CG       -24.3390  145.1260   19.3630 C.3   255  LEU255      0.0022
     77  CD1      -22.9080  144.6640   19.4760 C.3   255  LEU255      0.0001
     78  CD2      -25.2940  143.9760   19.6770 C.3   255  LEU255      0.0001
     79  N        -29.7720  148.8590   20.5610 N.3   258  LEU258     -0.1245
     80  CA       -30.4370  147.5700   20.8110 C.3   258  LEU258      0.1561
     81  C        -30.6430  147.3440   22.3260 C.2   258  LEU258      0.2260
     82  O        -31.6750  146.7900   22.7200 O.2   258  LEU258     -0.2867
     83  CB       -29.6110  146.4200   20.2020 C.3   258  LEU258      0.0270
     84  CG       -30.2410  145.0250   20.2000 C.3   258  LEU258      0.0019
     85  CD1      -30.9100  144.7250   18.8690 C.3   258  LEU258      0.0001
     86  CD2      -29.2040  143.9670   20.5100 C.3   258  LEU258      0.0001
@<TRIPOS>BOND
     1    36    35    2
     2    35    34    1
     3    39    37    1
     4    43    44    2
     5    43    42    1
     6    37    34    1
     7    37    38    1
     8    41    42    1
     9    34    33    1
    10    26    27    1
    11    33    28   am
    12    42    45    1
    13    40    38    1
    14     8     9    1
    15    29    28    2
    16    28    27    1
    17    21    22    2
    18    21    20    1
    19    27    30    1
    20    45    47    1
    21    45    46    1
    22     9    10    1
    23     9    12    1
    24    11    10    2
    25    10    19   am
    26    19    20    1
    27    20    23    1
    28    30    31    1
    29    30    32    1
    30    24    23    1
    31    46    48    1
    32    23    25    1
    33     3     4    2
    34     3     2    1
    35    12    13    1
    36    13    14    1
    37     1     2    1
    38    70    68   ar
    39    70    69   ar
    40     2     5    1
    41    68    66   ar
    42    14    15    1
    43    15    16    2
    44    69    67   ar
    45     5     6    1
    46     5     7    1
    47    66    65   ar
    48    66    64   ar
    49    16    18    1
    50    16    17    1
    51    65    63   ar
    52    67    64   ar
    53    64    62   ar
    54    56    54    1
    55    63    62   ar
    56    54    53    1
    57    62    61    1
    58    49    50    1
    59    53    50    1
    60    53    55    1
    61    50    51    1
    62    61    58    1
    63    58    57    1
    64    58    59    1
    65    51    52    2
    66    59    60    2
    67    59    71   am
    68    71    72    1
    69    85    84    1
    70    76    77    1
    71    76    78    1
    72    76    75    1
    73    72    75    1
    74    72    73    1
    75    84    83    1
    76    84    86    1
    77    83    80    1
    78    79    80    1
    79    80    81    1
    80    73    74    2
    81    81    82    2
