@<TRIPOS>MOLECULE
tmp/4xdmA00.pdb
 184 171 0 0 0
SMALL
GASTEIGER

@<TRIPOS>ATOM
      1  N         13.6370    8.2850   47.1190 N.3    37  LEU37      -0.1245
      2  CA        13.1460    7.6260   45.9010 C.3    37  LEU37       0.1561
      3  C         12.7920    6.1640   46.1830 C.2    37  LEU37       0.2260
      4  O         11.7490    5.6750   45.7750 O.2    37  LEU37      -0.2867
      5  CB        14.1710    7.7040   44.7620 C.3    37  LEU37       0.0270
      6  CG        14.4430    9.0360   44.0600 C.3    37  LEU37       0.0019
      7  CD1       15.7120    8.9440   43.2110 C.3    37  LEU37       0.0001
      8  CD2       13.2710    9.4050   43.1990 C.3    37  LEU37       0.0001
      9  N         12.2740    4.6870   49.2130 N.3    39  SER39      -0.1202
     10  CA        11.2170    4.5920   50.2140 C.3    39  SER39       0.2020
     11  C          9.8530    4.8200   49.5810 C.2    39  SER39       0.2619
     12  O          8.9090    4.0900   49.8730 O.2    39  SER39      -0.2717
     13  CB        11.4440    5.5840   51.3520 C.3    39  SER39       0.2103
     14  OG        10.3460    5.5850   52.2520 O.3    39  SER39      -0.2182
     15  N          9.7650    5.8240   48.7080 N.am   40  ASN40      -0.1960
     16  CA         8.5130    6.1150   48.0150 C.3    40  ASN40       0.1819
     17  C          8.1050    4.9850   47.0950 C.2    40  ASN40       0.2621
     18  O          6.9320    4.6170   47.0520 O.2    40  ASN40      -0.2715
     19  CB         8.5880    7.4380   47.2640 C.3    40  ASN40       0.1195
     20  CG         8.6300    8.6290   48.1910 C.2    40  ASN40       0.2630
     21  OD1        8.3550    8.5180   49.3920 O.2    40  ASN40      -0.2716
     22  ND2        8.9800    9.7810   47.6410 N.am   40  ASN40      -0.0877
     23  N          9.0730    4.4220   46.3710 N.am   41  ALA41      -0.1977
     24  CA         8.7920    3.2410   45.5490 C.3    41  ALA41       0.1597
     25  C          8.2400    2.1100   46.4140 C.2    41  ALA41       0.2287
     26  O          7.2420    1.5080   46.0530 O.2    41  ALA41      -0.2864
     27  CB        10.0390    2.7860   44.7920 C.3    41  ALA41       0.0319
     28  N          6.7470    2.2800   49.3480 N.3    43  ASP43      -0.1225
     29  CA         5.4160    2.6580   49.8330 C.3    43  ASP43       0.1805
     30  C          4.3670    2.3500   48.7740 C.2    43  ASP43       0.2597
     31  O          3.3050    1.8160   49.0820 O.2    43  ASP43      -0.2718
     32  CB         5.3630    4.1480   50.1840 C.3    43  ASP43       0.1424
     33  CG         4.0170    4.5730   50.7670 C.2    43  ASP43       0.3668
     34  OD1        3.6260    4.0380   51.8290 O.co2  43  ASP43      -0.2456
     35  OD2        3.3500    5.4520   50.1720 O.co2  43  ASP43      -0.2456
     36  N          4.6660    2.7120   47.5280 N.am   44  ALA44      -0.1979
     37  CA         3.7500    2.4820   46.4130 C.3    44  ALA44       0.1597
     38  C          3.5680    0.9970   46.1380 C.2    44  ALA44       0.2287
     39  O          2.4800    0.5520   45.7860 O.2    44  ALA44      -0.2864
     40  CB         4.2480    3.2170   45.1540 C.3    44  ALA44       0.0319
     41  N          1.3460   -0.3930   48.8310 N.3    47  LYS47      -0.1245
     42  CA        -0.0490   -0.0150   48.6370 C.3    47  LYS47       0.1561
     43  C         -0.7550   -0.9290   47.6490 C.2    47  LYS47       0.2260
     44  O         -1.8740   -1.3700   47.9090 O.2    47  LYS47      -0.2867
     45  CB        -0.1750    1.4670   48.2620 C.3    47  LYS47       0.0271
     46  CG        -0.0990    2.3690   49.4800 C.3    47  LYS47       0.0035
     47  CD        -0.0360    3.8440   49.1380 C.3    47  LYS47       0.0206
     48  CE         0.2090    4.6450   50.4060 C.3    47  LYS47       0.1093
     49  NZ         0.6600    6.0430   50.1620 N.3    47  LYS47      -0.1314
     50  N         14.3550    5.8170   38.3820 N.3    80  LEU80      -0.1245
     51  CA        13.9070    4.7780   39.2990 C.3    80  LEU80       0.1561
     52  C         12.4840    4.4040   38.9370 C.2    80  LEU80       0.2260
     53  O         11.5880    5.2640   38.9170 O.2    80  LEU80      -0.2867
     54  CB        14.0040    5.2190   40.7690 C.3    80  LEU80       0.0270
     55  CG        13.9390    4.0570   41.7790 C.3    80  LEU80       0.0019
     56  CD1       14.7980    4.3410   42.9950 C.3    80  LEU80       0.0001
     57  CD2       12.5080    3.7210   42.1990 C.3    80  LEU80       0.0001
     58  N          9.2080    1.8960   39.6910 N.3    82  ASP82      -0.1239
     59  CA         8.5300    0.8890   40.5000 C.3    82  ASP82       0.1674
     60  C          7.2890    0.3950   39.7820 C.2    82  ASP82       0.2266
     61  O          6.7310    1.0820   38.9270 O.2    82  ASP82      -0.2867
     62  CB         8.1790    1.4220   41.8910 C.3    82  ASP82       0.1410
     63  CG         7.1230    2.5170   41.8600 C.2    82  ASP82       0.3668
     64  OD1        5.9230    2.2000   41.7260 O.co2  82  ASP82      -0.2456
     65  OD2        7.4840    3.6970   42.0110 O.co2  82  ASP82      -0.2456
     66  N          1.5210    1.1260   43.0540 N.3    85  ILE85      -0.1231
     67  CA         0.1500    1.5350   42.7430 C.3    85  ILE85       0.1692
     68  C          0.0310    2.5270   41.5690 C.2    85  ILE85       0.2593
     69  O         -0.9410    2.4900   40.7940 O.2    85  ILE85      -0.2718
     70  CB        -0.5740    2.0590   44.0150 C.3    85  ILE85       0.0266
     71  CG1       -2.0870    2.1470   43.7760 C.3    85  ILE85       0.0019
     72  CG2        0.0430    3.3680   44.5170 C.3    85  ILE85       0.0020
     73  CD1       -2.9010    2.2950   45.0340 C.3    85  ILE85       0.0001
     74  N          1.0200    3.3990   41.4270 N.am   86  GLY86      -0.1942
     75  CA         0.9480    4.4580   40.4140 C.3    86  GLY86       0.2014
     76  C         -0.0250    5.5530   40.8120 C.2    86  GLY86       0.2638
     77  O         -0.7660    5.4360   41.8090 O.2    86  GLY86      -0.2714
     78  N         -0.0240    6.6230   40.0320 N.am   87  MET87      -0.1976
     79  CA        -0.8120    7.8040   40.3440 C.3    87  MET87       0.1605
     80  C         -1.6280    8.2310   39.1390 C.2    87  MET87       0.2287
     81  O         -1.1150    8.2770   38.0160 O.2    87  MET87      -0.2864
     82  CB         0.1170    8.9490   40.7480 C.3    87  MET87       0.0413
     83  CG         0.8460    8.7100   42.0760 C.3    87  MET87       0.0598
     84  SD         1.9690   10.0430   42.4740 S.3    87  MET87      -0.1393
     85  CE         3.3910    9.6070   41.4720 C.3    87  MET87       0.0692
     86  N         -4.1780   12.5960   41.0080 N.3    91  ASP91      -0.1239
     87  CA        -3.2300   12.2490   42.0750 C.3    91  ASP91       0.1674
     88  C         -1.9610   13.0790   41.9490 C.2    91  ASP91       0.2266
     89  O         -1.4590   13.6050   42.9310 O.2    91  ASP91      -0.2867
     90  CB        -2.8390   10.7710   42.0320 C.3    91  ASP91       0.1410
     91  CG        -3.9000    9.8410   42.5670 C.2    91  ASP91       0.3668
     92  OD1       -4.8280   10.2750   43.2930 O.co2  91  ASP91      -0.2456
     93  OD2       -3.7780    8.6330   42.2640 O.co2  91  ASP91      -0.2456
     94  N         -1.0130   16.0740   44.5160 N.3    95  ASN95      -0.1225
     95  CA         0.0270   15.6480   45.4470 C.3    95  ASN95       0.1785
     96  C          1.4440   16.0090   45.0310 C.2    95  ASN95       0.2597
     97  O          2.3740   15.9140   45.8480 O.2    95  ASN95      -0.2718
     98  CB        -0.0740   14.1470   45.6930 C.3    95  ASN95       0.1169
     99  CG        -1.3410   13.7630   46.4250 C.2    95  ASN95       0.2627
    100  OD1       -1.4320   13.9000   47.6490 O.2    95  ASN95      -0.2716
    101  ND2       -2.3330   13.2930   45.6810 N.am   95  ASN95      -0.0877
    102  N          1.6150   16.4080   43.7700 N.am   96  LEU96      -0.1980
    103  CA         2.9070   16.8620   43.2840 C.3    96  LEU96       0.1596
    104  C          2.9210   18.3560   42.9940 C.2    96  LEU96       0.2287
    105  O          3.5520   18.8040   42.0420 O.2    96  LEU96      -0.2864
    106  CB         3.3770   16.0440   42.0670 C.3    96  LEU96       0.0297
    107  CG         3.5390   14.5360   42.2910 C.3    96  LEU96       0.0022
    108  CD1        4.0120   13.8730   40.9990 C.3    96  LEU96       0.0001
    109  CD2        4.4910   14.2210   43.4340 C.3    96  LEU96       0.0001
    110  N          0.5330   20.9950   51.8000 N.3   101  ARG101     -0.1245
    111  CA         0.4950   19.8380   52.6860 C.3   101  ARG101      0.1563
    112  C          0.9990   20.0640   54.1100 C.2   101  ARG101      0.2260
    113  O          1.7280   21.0240   54.3900 O.2   101  ARG101     -0.2867
    114  CB         1.1030   18.5890   52.0360 C.3   101  ARG101      0.0307
    115  CG         2.5030   18.7350   51.4720 C.3   101  ARG101      0.0489
    116  CD         2.8120   17.5960   50.4840 C.3   101  ARG101      0.2205
    117  NE         2.2600   16.3040   50.9070 N.pl3 101  ARG101     -0.0865
    118  CZ         1.2700   15.6590   50.2880 C.cat 101  ARG101      0.5346
    119  NH1        0.7110   16.1640   49.1950 N.pl3 101  ARG101      0.1354
    120  NH2        0.8400   14.4960   50.7590 N.pl3 101  ARG101      0.1354
    121  N         11.9010   13.2410   54.7400 N.3   122  GLY122     -0.1225
    122  CA        10.8950   12.2010   54.5290 C.3   122  GLY122      0.1811
    123  C          9.8470   12.1190   55.6210 C.2   122  GLY122      0.2280
    124  O          8.6840   11.7910   55.3520 O.2   122  GLY122     -0.2866
    125  N          6.7070   14.2870   54.9490 N.3   125  GLY125     -0.1210
    126  CA         5.8180   14.0180   53.8040 C.3   125  GLY125      0.1956
    127  C          6.0740   14.8380   52.5470 C.2   125  GLY125      0.2612
    128  O          5.2010   14.9290   51.6670 O.2   125  GLY125     -0.2717
    129  N          7.2690   15.4220   52.4520 N.am  126  VAL126     -0.1965
    130  CA         7.6870   16.2390   51.3040 C.3   126  VAL126      0.1727
    131  C          9.0390   15.7560   50.7390 C.2   126  VAL126      0.2617
    132  O          9.7250   16.4870   50.0270 O.2   126  VAL126     -0.2715
    133  CB         7.7330   17.7740   51.6270 C.3   126  VAL126      0.0290
    134  CG1        6.3320   18.3570   51.7450 C.3   126  VAL126      0.0023
    135  CG2        8.5640   18.0740   52.8820 C.3   126  VAL126      0.0023
    136  N          9.3910   14.5160   51.0670 N.am  127  GLY127     -0.1940
    137  CA        10.6570   13.9120   50.6370 C.3   127  GLY127      0.2014
    138  C         10.8500   13.7940   49.1310 C.2   127  GLY127      0.2639
    139  O         11.9810   13.7440   48.6550 O.2   127  GLY127     -0.2714
    140  N          9.7590   13.7590   48.3780 N.am  128  PHE128     -0.1959
    141  CA         9.8780   13.7850   46.9110 C.3   128  PHE128      0.1771
    142  C         10.7610   14.9320   46.4270 C.2   128  PHE128      0.2619
    143  O         11.5940   14.7580   45.5180 O.2   128  PHE128     -0.2715
    144  CB         8.5000   13.9070   46.2530 C.3   128  PHE128      0.0574
    145  CG         8.5580   14.3290   44.8040 C.ar  128  PHE128     -0.0200
    146  CD1        9.0300   13.4560   43.8310 C.ar  128  PHE128     -0.0042
    147  CD2        8.1700   15.6080   44.4250 C.ar  128  PHE128     -0.0042
    148  CE1        9.0870   13.8490   42.4900 C.ar  128  PHE128     -0.0003
    149  CE2        8.2210   16.0080   43.0960 C.ar  128  PHE128     -0.0003
    150  CZ         8.6790   15.1240   42.1260 C.ar  128  PHE128     -0.0000
    151  N         10.5900   16.1070   47.0300 N.am  129  TYR129     -0.1974
    152  CA        11.2540   17.3010   46.5500 C.3   129  TYR129      0.1639
    153  C         12.7630   17.2790   46.7730 C.2   129  TYR129      0.2290
    154  O         13.4800   18.1050   46.2200 O.2   129  TYR129     -0.2864
    155  CB        10.5990   18.5350   47.1730 C.3   129  TYR129      0.0560
    156  CG         9.1760   18.6640   46.7210 C.ar  129  TYR129     -0.0198
    157  CD1        8.8770   19.1970   45.4690 C.ar  129  TYR129     -0.0009
    158  CD2        8.1190   18.2420   47.5350 C.ar  129  TYR129     -0.0009
    159  CE1        7.5510   19.3110   45.0290 C.ar  129  TYR129      0.0417
    160  CE2        6.7900   18.3440   47.1070 C.ar  129  TYR129      0.0417
    161  CZ         6.5170   18.8830   45.8520 C.ar  129  TYR129      0.1957
    162  OH         5.2080   18.9850   45.4300 O.3   129  TYR129     -0.2866
    163  N          8.1760   12.7600   36.2220 N.3   140  VAL140     -0.1245
    164  CA         7.4750   11.6700   36.8630 C.3   140  VAL140      0.1561
    165  C          6.4600   11.1070   35.8920 C.2   140  VAL140      0.2260
    166  O          5.4760   11.7580   35.5710 O.2   140  VAL140     -0.2867
    167  CB         6.7640   12.1120   38.1780 C.3   140  VAL140      0.0252
    168  CG1        6.0280   10.9210   38.8200 C.3   140  VAL140      0.0019
    169  CG2        7.7690   12.7520   39.1610 C.3   140  VAL140      0.0019
    170  N          5.3690    3.7880   38.6040 N.3   174  THR174     -0.1218
    171  CA         5.9020    5.1320   38.4940 C.3   174  THR174      0.1862
    172  C          7.3550    5.0580   38.0730 C.2   174  THR174      0.2287
    173  O          8.1110    4.1990   38.5500 O.2   174  THR174     -0.2866
    174  CB         5.7440    5.8780   39.8230 C.3   174  THR174      0.1770
    175  OG1        4.3500    5.9430   40.1520 O.3   174  THR174     -0.2211
    176  CG2        6.2850    7.2800   39.7370 C.3   174  THR174      0.0375
    177  N         10.4540    7.6860   37.7270 N.3   176  ILE176     -0.1245
    178  CA        10.9620    9.0150   38.0400 C.3   176  ILE176      0.1561
    179  C         12.3340    9.1660   37.4010 C.2   176  ILE176      0.2260
    180  O         13.1990    8.3000   37.5740 O.2   176  ILE176     -0.2867
    181  CB        11.0190    9.2510   39.5720 C.3   176  ILE176      0.0252
    182  CG1        9.5980    9.1770   40.1510 C.3   176  ILE176      0.0019
    183  CG2       11.6390   10.6110   39.8980 C.3   176  ILE176      0.0019
    184  CD1        9.5070    9.3490   41.6650 C.3   176  ILE176      0.0001
@<TRIPOS>BOND
     1   166   165    2
     2   165   164    1
     3   163   164    1
     4   164   167    1
     5   179   180    2
     6   179   178    1
     7   177   178    1
     8    81    80    2
     9   178   181    1
    10   172   171    1
    11   172   173    2
    12   167   168    1
    13   167   169    1
    14    50    51    1
    15   171   170    1
    16   171   174    1
    17    53    52    2
    18    61    60    2
    19    52    51    1
    20    80    79    1
    21    51    54    1
    22   181   183    1
    23   181   182    1
    24    58    59    1
    25   176   174    1
    26    60    59    1
    27   174   175    1
    28    78    79    1
    29    78    76   am
    30   182   184    1
    31    79    82    1
    32    75    76    1
    33    75    74    1
    34    59    62    1
    35    82    83    1
    36    54    55    1
    37    69    68    2
    38    76    77    2
    39   108   107    1
    40    86    87    1
    41    74    68   am
    42    85    84    1
    43    68    67    1
    44    64    63   ar
    45    55    57    1
    46    55    56    1
    47    63    62    1
    48    63    65   ar
    49    88    87    1
    50    88    89    2
    51    90    87    1
    52    90    91    1
    53   105   104    2
    54   106   107    1
    55   106   103    1
    56    83    84    1
    57   150   148   ar
    58   150   149   ar
    59    93    91   ar
    60   107   109    1
    61   148   146   ar
    62    91    92   ar
    63    67    66    1
    64    67    70    1
    65   104   103    1
    66   149   147   ar
    67     8     6    1
    68     7     6    1
    69   103   102    1
    70   102    96   am
    71    71    70    1
    72    71    73    1
    73   146   145   ar
    74    70    72    1
    75     6     5    1
    76   147   145   ar
    77    94    95    1
    78     5     2    1
    79    27    24    1
    80   145   144    1
    81   159   157   ar
    82   159   161   ar
    83    96    95    1
    84    96    97    2
    85    40    37    1
    86   162   161    1
    87    95    98    1
    88   157   156   ar
    89   143   142    2
    90    24    23    1
    91    24    25    1
    92   101    99   am
    93    98    99    1
    94     4     3    2
    95    39    38    2
    96   161   160   ar
    97     2     3    1
    98     2     1    1
    99    26    25    2
   100    38    37    1
   101   154   153    2
   102   144   141    1
   103    23    17   am
   104    37    36    1
   105    99   100    2
   106   142   141    1
   107   142   151   am
   108   152   153    1
   109   152   151    1
   110   152   155    1
   111   156   155    1
   112   156   158   ar
   113   141   140    1
   114    18    17    2
   115    17    16    1
   116   160   158   ar
   117    19    16    1
   118    19    20    1
   119    36    30   am
   120    22    20   am
   121    43    44    2
   122    43    42    1
   123    16    15    1
   124    20    21    2
   125    45    42    1
   126    45    46    1
   127   140   138   am
   128    42    41    1
   129   139   138    2
   130    15    11   am
   131    30    31    2
   132    30    29    1
   133   138   137    1
   134    47    46    1
   135    47    48    1
   136   119   118    1
   137     9    10    1
   138    28    29    1
   139    11    12    2
   140    11    10    1
   141    29    32    1
   142   132   131    2
   143    49    48    1
   144    35    33   ar
   145    32    33    1
   146    10    13    1
   147   118   120    1
   148   118   117    2
   149   116   117    1
   150   116   115    1
   151   137   136    1
   152   131   136   am
   153   131   130    1
   154    33    34   ar
   155   130   133    1
   156   130   129    1
   157    13    14    1
   158   115   114    1
   159   133   134    1
   160   133   135    1
   161   128   127    2
   162   110   111    1
   163   114   111    1
   164   129   127   am
   165   127   126    1
   166   111   112    1
   167   126   125    1
   168   112   113    2
   169   122   121    1
   170   122   123    1
   171   124   123    2
