@<TRIPOS>MOLECULE
tmp/4xdoA01.pdb
 85 80 0 0 0
SMALL
GASTEIGER

@<TRIPOS>ATOM
      1  N        -41.9100   -8.4290   35.0220 N.3    49  ARG49      -0.1245
      2  CA       -43.2570   -7.8870   34.7850 C.3    49  ARG49       0.1563
      3  C        -43.5900   -7.9670   33.3160 C.2    49  ARG49       0.2260
      4  O        -42.8110   -7.5290   32.4830 O.2    49  ARG49      -0.2867
      5  CB       -43.3940   -6.4220   35.2560 C.3    49  ARG49       0.0307
      6  CG       -44.8480   -6.0140   35.5710 C.3    49  ARG49       0.0489
      7  CD       -45.0760   -4.5140   35.5690 C.3    49  ARG49       0.2205
      8  NE       -46.4920   -4.1830   35.6820 N.pl3  49  ARG49      -0.0865
      9  CZ       -47.2140   -4.1880   36.8060 C.cat  49  ARG49       0.5346
     10  NH1      -46.6930   -4.5580   37.9570 N.pl3  49  ARG49       0.1354
     11  NH2      -48.5060   -3.8690   36.7710 N.pl3  49  ARG49       0.1354
     12  N        -49.5480   -0.2160   32.8970 N.3    54  ASP54      -0.1225
     13  CA       -50.3360    0.1650   34.0930 C.3    54  ASP54       0.1805
     14  C        -49.5860    1.0890   35.0700 C.2    54  ASP54       0.2597
     15  O        -50.1950    1.8210   35.8680 O.2    54  ASP54      -0.2718
     16  CB       -50.7860   -1.1230   34.8440 C.3    54  ASP54       0.1424
     17  CG       -51.9010   -0.8670   35.8640 C.2    54  ASP54       0.3668
     18  OD1      -52.7040    0.0910   35.7030 O.co2  54  ASP54      -0.2456
     19  OD2      -51.9970   -1.6410   36.8470 O.co2  54  ASP54      -0.2456
     20  N        -48.2540    1.1020   34.9950 N.am   55  ILE55      -0.1980
     21  CA       -47.5120    1.8940   35.9720 C.3    55  ILE55       0.1595
     22  C        -47.7360    3.3730   35.7430 C.2    55  ILE55       0.2287
     23  O        -47.6330    4.1660   36.6840 O.2    55  ILE55      -0.2864
     24  CB       -46.0120    1.5140   35.9840 C.3    55  ILE55       0.0276
     25  CG1      -45.8610    0.0260   36.2920 C.3    55  ILE55       0.0022
     26  CG2      -45.2020    2.3380   36.9850 C.3    55  ILE55       0.0022
     27  CD1      -46.5600   -0.4440   37.5490 C.3    55  ILE55       0.0001
     28  N        -50.3430    4.8240   35.8650 N.3    57  ASN57      -0.1225
     29  CA       -51.3720    5.2830   36.8190 C.3    57  ASN57       0.1785
     30  C        -50.8940    5.4230   38.2250 C.2    57  ASN57       0.2597
     31  O        -51.5960    5.9530   39.0630 O.2    57  ASN57      -0.2718
     32  CB       -52.5370    4.3140   36.8150 C.3    57  ASN57       0.1169
     33  CG       -53.1330    4.2060   35.4700 C.2    57  ASN57       0.2627
     34  OD1      -53.3270    5.2200   34.8420 O.2    57  ASN57      -0.2716
     35  ND2      -53.2970    3.0090   34.9690 N.am   57  ASN57      -0.0877
     36  N        -49.6960    4.9540   38.5160 N.am   58  LEU58      -0.1980
     37  CA       -49.1970    5.0580   39.9000 C.3    58  LEU58       0.1596
     38  C        -49.0270    6.5100   40.3520 C.2    58  LEU58       0.2287
     39  O        -48.5630    7.3360   39.5640 O.2    58  LEU58      -0.2864
     40  CB       -47.8590    4.3540   39.9680 C.3    58  LEU58       0.0297
     41  CG       -47.3120    3.9030   41.2910 C.3    58  LEU58       0.0022
     42  CD1      -48.1880    2.7850   41.8190 C.3    58  LEU58       0.0001
     43  CD2      -45.8990    3.4350   41.0750 C.3    58  LEU58       0.0001
     44  N        -40.8980    5.6510   47.2560 N.3   129  ILE129     -0.1231
     45  CA       -42.2720    5.2050   47.2040 C.3   129  ILE129      0.1692
     46  C        -42.2470    3.7510   47.6380 C.2   129  ILE129      0.2592
     47  O        -41.5280    2.9610   47.0300 O.2   129  ILE129     -0.2718
     48  CB       -42.8590    5.3140   45.7530 C.3   129  ILE129      0.0266
     49  CG1      -42.8700    6.7740   45.2580 C.3   129  ILE129      0.0019
     50  CG2      -44.2450    4.7060   45.6650 C.3   129  ILE129      0.0020
     51  CD1      -42.5150    6.9170   43.7900 C.3   129  ILE129      0.0001
     52  N        -43.0820    3.3820   48.6200 N.am  130  ASN130     -0.1960
     53  CA       -43.1520    1.9830   49.0690 C.3   130  ASN130      0.1819
     54  C        -43.8090    1.1240   48.0060 C.2   130  ASN130      0.2622
     55  O        -44.7970    1.5220   47.4230 O.2   130  ASN130     -0.2715
     56  CB       -43.9070    1.8480   50.3990 C.3   130  ASN130      0.1195
     57  CG       -43.2440    2.6130   51.5040 C.2   130  ASN130      0.2630
     58  OD1      -43.4650    3.8230   51.6580 O.2   130  ASN130     -0.2716
     59  ND2      -42.3730    1.9500   52.2420 N.am  130  ASN130     -0.0877
     60  N        -43.2590   -0.0420   47.7200 N.am  131  GLY131     -0.1940
     61  CA       -43.9210   -0.9480   46.7620 C.3   131  GLY131      0.2014
     62  C        -42.9500   -1.5070   45.7570 C.2   131  GLY131      0.2640
     63  O        -41.8410   -0.9920   45.5860 O.2   131  GLY131     -0.2714
     64  N        -43.3440   -2.6340   45.1870 N.am  132  SER132     -0.1935
     65  CA       -42.6330   -3.3460   44.1550 C.3   132  SER132      0.2055
     66  C        -43.5730   -3.3630   42.9820 C.2   132  SER132      0.2642
     67  O        -44.8350   -3.3490   43.1490 O.2   132  SER132     -0.2714
     68  CB       -42.3830   -4.8000   44.6120 C.3   132  SER132      0.2130
     69  OG       -41.9070   -5.6620   43.5680 O.3   132  SER132     -0.2179
     70  N        -43.0300   -3.4260   41.7910 N.am  133  ILE133     -0.1977
     71  CA       -43.9070   -3.5840   40.6090 C.3   133  ILE133      0.1596
     72  C        -43.6190   -4.8970   39.8660 C.2   133  ILE133      0.2287
     73  O        -44.0140   -5.0530   38.7540 O.2   133  ILE133     -0.2864
     74  CB       -43.8950   -2.3780   39.6910 C.3   133  ILE133      0.0276
     75  CG1      -42.5130   -2.1520   39.0740 C.3   133  ILE133      0.0022
     76  CG2      -44.3200   -1.1650   40.4830 C.3   133  ILE133      0.0022
     77  CD1      -42.4560   -1.0630   38.0480 C.3   133  ILE133      0.0001
     78  N        -39.6700    2.2420   45.0700 N.3   169  LEU169     -0.1245
     79  CA       -39.6780    2.6750   43.7100 C.3   169  LEU169      0.1561
     80  C        -39.1040    4.0780   43.6070 C.2   169  LEU169      0.2260
     81  O        -39.3090    4.9070   44.5350 O.2   169  LEU169     -0.2867
     82  CB       -41.1320    2.6660   43.1850 C.3   169  LEU169      0.0270
     83  CG       -41.6930    1.2620   43.1040 C.3   169  LEU169      0.0019
     84  CD1      -43.1830    1.3010   42.7820 C.3   169  LEU169      0.0001
     85  CD2      -40.9840    0.4410   42.0300 C.3   169  LEU169      0.0001
@<TRIPOS>BOND
     1     4     3    2
     2    12    13    1
     3     3     2    1
     4    13    16    1
     5    13    14    1
     6     2     1    1
     7     2     5    1
     8    34    33    2
     9    16    17    1
    10    35    33   am
    11    20    14   am
    12    20    21    1
    13    14    15    2
    14     5     6    1
    15    33    32    1
    16     7     6    1
    17     7     8    1
    18     8     9    2
    19    18    17   ar
    20    22    21    1
    21    22    23    2
    22    17    19   ar
    23    28    29    1
    24    21    24    1
    25    24    25    1
    26    24    26    1
    27    25    27    1
    28    11     9    1
    29     9    10    1
    30    32    29    1
    31    29    30    1
    32    77    75    1
    33    30    36   am
    34    30    31    2
    35    36    37    1
    36    73    72    2
    37    75    74    1
    38    39    38    2
    39    74    76    1
    40    74    71    1
    41    72    71    1
    42    37    40    1
    43    37    38    1
    44    40    41    1
    45    71    70    1
    46    43    41    1
    47    41    42    1
    48    70    66   am
    49    85    83    1
    50    84    83    1
    51    66    67    2
    52    66    65    1
    53    83    82    1
    54    82    79    1
    55    69    68    1
    56    80    79    1
    57    80    81    2
    58    79    78    1
    59    51    49    1
    60    65    68    1
    61    65    64    1
    62    64    62   am
    63    49    48    1
    64    63    62    2
    65    50    48    1
    66    48    45    1
    67    62    61    1
    68    61    60    1
    69    47    46    2
    70    45    44    1
    71    45    46    1
    72    55    54    2
    73    46    52   am
    74    60    54   am
    75    54    53    1
    76    52    53    1
    77    53    56    1
    78    56    57    1
    79    57    58    2
    80    57    59   am
