@<TRIPOS>MOLECULE
tmp/4xdpB00.pdb
 111 105 0 0 0
SMALL
GASTEIGER

@<TRIPOS>ATOM
      1  N        -23.8460   -9.1080   93.5430 N.3   170  TYR170     -0.1241
      2  CA       -24.3990  -10.3980   93.1500 C.3   170  TYR170      0.1605
      3  C        -23.8530  -10.7490   91.7780 C.2   170  TYR170      0.2264
      4  O        -23.8300   -9.9020   90.8900 O.2   170  TYR170     -0.2867
      5  CB       -25.9250  -10.3310   93.0840 C.3   170  TYR170      0.0534
      6  CG       -26.5620   -9.9450   94.3930 C.ar  170  TYR170     -0.0201
      7  CD1      -26.5690   -8.6270   94.8200 C.ar  170  TYR170     -0.0009
      8  CD2      -27.1460  -10.9030   95.2090 C.ar  170  TYR170     -0.0009
      9  CE1      -27.1370   -8.2780   96.0240 C.ar  170  TYR170      0.0417
     10  CE2      -27.7280  -10.5600   96.4150 C.ar  170  TYR170      0.0417
     11  CZ       -27.7170   -9.2460   96.8190 C.ar  170  TYR170      0.1957
     12  OH       -28.2870   -8.8950   98.0280 O.3   170  TYR170     -0.2866
     13  N        -33.9990  -15.9670   91.4670 N.3   178  PHE178     -0.1241
     14  CA       -34.4570  -15.2980   92.6810 C.3   178  PHE178      0.1605
     15  C        -35.9480  -15.5810   92.8410 C.2   178  PHE178      0.2264
     16  O        -36.7800  -15.2460   92.0150 O.2   178  PHE178     -0.2867
     17  CB       -34.0440  -13.8130   92.8430 C.3   178  PHE178      0.0534
     18  CG       -34.2870  -12.9430   91.6540 C.ar  178  PHE178     -0.0203
     19  CD1      -33.4620  -13.0220   90.5440 C.ar  178  PHE178     -0.0042
     20  CD2      -35.2930  -11.9530   91.6880 C.ar  178  PHE178     -0.0042
     21  CE1      -33.6720  -12.1990   89.4570 C.ar  178  PHE178     -0.0003
     22  CE2      -35.4930  -11.1110   90.6100 C.ar  178  PHE178     -0.0003
     23  CZ       -34.6800  -11.2400   89.4830 C.ar  178  PHE178     -0.0000
     24  N        -40.4460  -13.0780   96.6630 N.3   181  HIS181     -0.1241
     25  CA       -40.2770  -12.4030   97.9530 C.3   181  HIS181      0.1621
     26  C        -40.6930  -10.9490   97.8440 C.2   181  HIS181      0.2264
     27  O        -40.7500  -10.3730   96.7480 O.2   181  HIS181     -0.2867
     28  CB       -38.8060  -12.4510   98.4340 C.3   181  HIS181      0.0745
     29  CG       -37.8710  -11.6350   97.5880 C.ar  181  HIS181      0.0817
     30  ND1      -37.4570  -12.0530   96.3540 N.ar  181  HIS181     -0.2268
     31  CD2      -37.2820  -10.4240   97.7880 C.ar  181  HIS181      0.1154
     32  CE1      -36.6630  -11.1420   95.8190 C.ar  181  HIS181      0.1986
     33  NE2      -36.5390  -10.1350   96.6680 N.ar  181  HIS181     -0.2212
     34  N        -39.1670   -7.4420  100.1360 N.3   183  GLU183     -0.1245
     35  CA       -37.8980   -7.1510  100.7990 C.3   183  GLU183      0.1567
     36  C        -38.0600   -7.2850  102.3070 C.2   183  GLU183      0.2260
     37  O        -39.1910   -7.2780  102.8050 O.2   183  GLU183     -0.2867
     38  CB       -37.4270   -5.7530  100.4420 C.3   183  GLU183      0.0388
     39  CG       -37.1720   -5.5580   98.9550 C.3   183  GLU183      0.1160
     40  CD       -36.1600   -6.5660   98.4290 C.2   183  GLU183      0.3649
     41  OE1      -34.9680   -6.4730   98.7310 O.co2 183  GLU183     -0.2457
     42  OE2      -36.5810   -7.4940   97.7450 O.co2 183  GLU183     -0.2457
     43  N        -36.3440   -1.5510   97.3030 N.3   189  SER189     -0.1217
     44  CA       -34.9940   -1.9130   96.9250 C.3   189  SER189      0.1889
     45  C        -34.6350   -1.2860   95.5870 C.2   189  SER189      0.2288
     46  O        -35.5020   -0.9000   94.8050 O.2   189  SER189     -0.2866
     47  CB       -34.8150   -3.4440   96.8750 C.3   189  SER189      0.2089
     48  OG       -35.5360   -4.0480   95.8070 O.3   189  SER189     -0.2183
     49  N        -31.6280   -1.9000   92.3760 N.3   191  ASN191     -0.1240
     50  CA       -30.6870   -2.8410   91.8110 C.3   191  ASN191      0.1653
     51  C        -30.1070   -2.2680   90.4880 C.2   191  ASN191      0.2266
     52  O        -30.8600   -1.9000   89.6030 O.2   191  ASN191     -0.2867
     53  CB       -31.4100   -4.1680   91.5400 C.3   191  ASN191      0.1155
     54  CG       -30.5330   -5.1840   90.8270 C.2   191  ASN191      0.2627
     55  OD1      -30.0580   -4.9490   89.7070 O.2   191  ASN191     -0.2716
     56  ND2      -30.3110   -6.3240   91.4680 N.am  191  ASN191     -0.0877
     57  N        -31.1980   -9.6720   83.3190 N.3   199  LYS199     -0.1197
     58  CA       -31.9480  -10.3280   84.3760 C.3   199  LYS199      0.1778
     59  C        -33.4270  -10.1300   84.0560 C.2   199  LYS199      0.2305
     60  O        -33.8420   -9.0270   83.7760 O.2   199  LYS199     -0.2863
     61  CB       -31.5600   -9.7020   85.7440 C.2   199  LYS199     -0.0042
     62  CG       -32.3490  -10.1790   86.9540 C.2   199  LYS199     -0.0273
     63  CD       -31.8840   -9.6080   88.3300 C.3   199  LYS199      0.0462
     64  CE       -30.4140   -9.1080   88.4360 C.3   199  LYS199      0.1140
     65  NZ       -29.3740  -10.1100   88.8580 N.3   199  LYS199     -0.1310
     66  N        -37.3490  -10.1770   85.3210 N.3   201  TRP201     -0.1241
     67  CA       -38.1010   -9.9610   86.5650 C.3   201  TRP201      0.1605
     68  C        -39.5800  -10.2280   86.3400 C.2   201  TRP201      0.2264
     69  O        -40.0990   -9.9350   85.2710 O.2   201  TRP201     -0.2867
     70  CB       -37.9760   -8.5110   87.0380 C.3   201  TRP201      0.0550
     71  CG       -36.6170   -8.0640   87.3470 C.ar  201  TRP201      0.0003
     72  CD1      -35.5570   -7.9970   86.4890 C.ar  201  TRP201      0.0946
     73  CD2      -36.1490   -7.5690   88.6090 C.ar  201  TRP201      0.0152
     74  NE1      -34.4560   -7.5190   87.1420 N.ar  201  TRP201     -0.2442
     75  CE2      -34.7880   -7.2460   88.4480 C.ar  201  TRP201      0.0810
     76  CE3      -36.7470   -7.3860   89.8680 C.ar  201  TRP201      0.0012
     77  CZ2      -34.0120   -6.7480   89.4890 C.ar  201  TRP201      0.0191
     78  CZ3      -35.9740   -6.8920   90.9170 C.ar  201  TRP201      0.0001
     79  CH2      -34.6150   -6.5860   90.7220 C.ar  201  TRP201      0.0015
     80  N        -37.0490  -17.2180  100.5550 N.3   234  LYS234     -0.1245
     81  CA       -36.6580  -17.1520   99.1370 C.3   234  LYS234      0.1561
     82  C        -36.3360  -18.5170   98.5380 C.2   234  LYS234      0.2260
     83  O        -35.3370  -18.6810   97.8380 O.2   234  LYS234     -0.2867
     84  CB       -35.4870  -16.1960   98.9340 C.3   234  LYS234      0.0271
     85  CG       -35.7370  -14.8200   99.5400 C.3   234  LYS234      0.0035
     86  CD       -35.2010  -13.6800   98.6700 C.3   234  LYS234      0.0206
     87  CE       -33.8560  -13.1600   99.1240 C.3   234  LYS234      0.1093
     88  NZ       -33.9580  -12.6320  100.5110 N.3   234  LYS234     -0.1314
     89  N        -37.7670   -1.8730   93.3650 N.3   263  THR263     -0.1218
     90  CA       -38.9520   -2.5210   93.8930 C.3   263  THR263      0.1862
     91  C        -39.5940   -1.6260   94.9530 C.2   263  THR263      0.2287
     92  O        -38.9200   -0.8580   95.6420 O.2   263  THR263     -0.2866
     93  CB       -38.6810   -3.9360   94.4690 C.3   263  THR263      0.1770
     94  OG1      -38.1130   -3.8700   95.7880 O.3   263  THR263     -0.2211
     95  CG2      -37.7590   -4.7620   93.5400 C.3   263  THR263      0.0375
     96  N        -41.7740   -9.9050   93.9790 N.3   269  HIS269     -0.1241
     97  CA       -41.0230  -10.0600   92.7550 C.3   269  HIS269      0.1621
     98  C        -40.2240  -11.3700   92.7460 C.2   269  HIS269      0.2264
     99  O        -39.9830  -11.9910   93.8020 O.2   269  HIS269     -0.2867
    100  CB       -40.1140   -8.8470   92.5230 C.3   269  HIS269      0.0745
    101  CG       -39.1570   -8.5610   93.6390 C.ar  269  HIS269      0.0817
    102  ND1      -39.5410   -7.9090   94.7880 N.ar  269  HIS269     -0.2268
    103  CD2      -37.8270   -8.7840   93.7620 C.ar  269  HIS269      0.1154
    104  CE1      -38.4980   -7.7730   95.5870 C.ar  269  HIS269      0.1986
    105  NE2      -37.4400   -8.2920   94.9890 N.ar  269  HIS269     -0.2212
    106  N        -26.8650   -3.9370   94.7600 N.3   281  SER281     -0.1217
    107  CA       -28.1490   -3.5660   95.3570 C.3   281  SER281      0.1889
    108  C        -28.0750   -3.1730   96.8530 C.2   281  SER281      0.2288
    109  O        -27.0450   -3.3210   97.5180 O.2   281  SER281     -0.2866
    110  CB       -29.1690   -4.6860   95.1690 C.3   281  SER281      0.2089
    111  OG       -28.7330   -5.8420   95.8600 O.3   281  SER281     -0.2183
@<TRIPOS>BOND
     1    57    58    1
     2    60    59    2
     3    59    58    1
     4    58    61    1
     5    69    68    2
     6    66    67    1
     7    61    62    2
     8    68    67    1
     9    72    74   ar
    10    72    71   ar
    11    67    70    1
    12    62    63    1
    13    70    71    1
    14    74    75   ar
    15    71    73   ar
    16    63    64    1
    17    64    65    1
    18    75    73   ar
    19    75    77   ar
    20    73    76   ar
    21    21    23   ar
    22    21    19   ar
    23    23    22   ar
    24    77    79   ar
    25    52    51    2
    26    55    54    2
    27    76    78   ar
    28    51    50    1
    29    19    18   ar
    30    22    20   ar
    31    79    78   ar
    32    54    56   am
    33    54    53    1
    34     4     3    2
    35    13    14    1
    36    53    50    1
    37    18    20   ar
    38    18    17    1
    39     3     2    1
    40    50    49    1
    41    16    15    2
    42   100    97    1
    43   100   101    1
    44    14    15    1
    45    14    17    1
    46    98    97    1
    47    98    99    2
    48    97    96    1
    49     5     2    1
    50     5     6    1
    51     2     1    1
    52    89    90    1
    53    95    93    1
    54   101   103   ar
    55   101   102   ar
    56   103   105   ar
    57    90    93    1
    58    90    91    1
    59     6     7   ar
    60     6     8   ar
    61    93    94    1
    62   106   107    1
    63   102   104   ar
    64    46    45    2
    65     7     9   ar
    66    91    92    2
    67   105   104   ar
    68   110   107    1
    69   110   111    1
    70     8    10   ar
    71   107   108    1
    72    45    44    1
    73    48    47    1
    74    32    30   ar
    75    32    33   ar
    76     9    11   ar
    77    30    29   ar
    78    10    11   ar
    79    24    25    1
    80    33    31   ar
    81    27    26    2
    82    11    12    1
    83   108   109    2
    84    47    44    1
    85    44    43    1
    86    29    31   ar
    87    29    28    1
    88    42    40   ar
    89    83    82    2
    90    26    25    1
    91    25    28    1
    92    40    41   ar
    93    40    39    1
    94    82    81    1
    95    86    87    1
    96    86    85    1
    97    84    81    1
    98    84    85    1
    99    39    38    1
   100    87    88    1
   101    81    80    1
   102    34    35    1
   103    38    35    1
   104    35    36    1
   105    36    37    2
