@<TRIPOS>MOLECULE
tmp/4xdpB01.pdb
 77 72 0 0 0
SMALL
GASTEIGER

@<TRIPOS>ATOM
      1  N        -18.7880    3.3260   86.8440 N.3    49  ARG49      -0.1245
      2  CA       -17.3840    2.8900   86.8860 C.3    49  ARG49       0.1563
      3  C        -16.8000    2.8330   85.4910 C.2    49  ARG49       0.2260
      4  O        -17.3640    2.1810   84.6210 O.2    49  ARG49      -0.2867
      5  CB       -17.2510    1.5190   87.5560 C.3    49  ARG49       0.0307
      6  CG       -15.8170    1.0570   87.8010 C.3    49  ARG49       0.0489
      7  CD       -15.7860   -0.4220   88.1590 C.3    49  ARG49       0.2205
      8  NE       -14.4630   -0.8710   88.5830 N.pl3  49  ARG49      -0.0865
      9  CZ       -14.0220   -0.9040   89.8390 C.cat  49  ARG49       0.5346
     10  NH1      -14.7860   -0.5000   90.8560 N.pl3  49  ARG49       0.1354
     11  NH2      -12.7860   -1.3340   90.0860 N.pl3  49  ARG49       0.1354
     12  N        -10.8030   -4.8940   86.7110 N.3    54  ASP54      -0.1225
     13  CA       -10.4190   -5.3320   88.0790 C.3    54  ASP54       0.1805
     14  C        -11.3840   -6.3130   88.7460 C.2    54  ASP54       0.2597
     15  O        -10.9840   -7.1030   89.5950 O.2    54  ASP54      -0.2718
     16  CB       -10.3450   -4.1550   89.0430 C.3    54  ASP54       0.1424
     17  CG        -9.5160   -3.0240   88.5250 C.2    54  ASP54       0.3668
     18  OD1       -8.3490   -3.2420   88.1230 O.co2  54  ASP54      -0.2456
     19  OD2      -10.0490   -1.8990   88.5300 O.co2  54  ASP54      -0.2456
     20  N        -12.6550   -6.2440   88.3920 N.am   55  ILE55      -0.1980
     21  CA       -13.6520   -6.9960   89.1180 C.3    55  ILE55       0.1595
     22  C        -13.4070   -8.5110   89.0550 C.2    55  ILE55       0.2287
     23  O        -13.8120   -9.2390   89.9590 O.2    55  ILE55      -0.2864
     24  CB       -15.0720   -6.6350   88.6460 C.3    55  ILE55       0.0276
     25  CG1      -15.3090   -5.1190   88.7330 C.3    55  ILE55       0.0022
     26  CG2      -16.1160   -7.3940   89.4510 C.3    55  ILE55       0.0022
     27  CD1      -14.9420   -4.4860   90.0550 C.3    55  ILE55       0.0001
     28  N        -12.1020  -10.1710   92.3190 N.3    58  LEU58      -0.1245
     29  CA       -12.9110  -10.2520   93.5390 C.3    58  LEU58       0.1561
     30  C        -13.0650  -11.6910   93.9700 C.2    58  LEU58       0.2260
     31  O        -13.2220  -12.5840   93.1350 O.2    58  LEU58      -0.2867
     32  CB       -14.3050   -9.6760   93.3410 C.3    58  LEU58       0.0270
     33  CG       -14.4460   -8.2150   93.7440 C.3    58  LEU58       0.0019
     34  CD1      -13.5910   -7.3690   92.8150 C.3    58  LEU58       0.0001
     35  CD2      -15.9130   -7.8130   93.6930 C.3    58  LEU58       0.0001
     36  N        -22.4320  -10.2620   98.8550 N.3   129  ILE129     -0.1231
     37  CA       -21.0700   -9.7810   98.9690 C.3   129  ILE129      0.1692
     38  C        -21.1610   -8.3220   99.3990 C.2   129  ILE129      0.2592
     39  O        -21.7960   -7.5200   98.7290 O.2   129  ILE129     -0.2718
     40  CB       -20.3260   -9.9130   97.6180 C.3   129  ILE129      0.0266
     41  CG1      -20.2910  -11.3860   97.1830 C.3   129  ILE129      0.0019
     42  CG2      -18.9090   -9.3410   97.6940 C.3   129  ILE129      0.0020
     43  CD1      -20.1530  -11.5910   95.6830 C.3   129  ILE129      0.0001
     44  N        -20.5510   -7.9940  100.5280 N.am  130  ASN130     -0.1960
     45  CA       -20.4560   -6.6010  100.9600 C.3   130  ASN130      0.1819
     46  C        -19.5060   -5.8290  100.0720 C.2   130  ASN130      0.2622
     47  O        -18.3400   -6.1880   99.9460 O.2   130  ASN130     -0.2715
     48  CB       -19.9410   -6.4900  102.3910 C.3   130  ASN130      0.1195
     49  CG       -20.9280   -7.0090  103.4130 C.2   130  ASN130      0.2630
     50  OD1      -20.6030   -7.9030  104.1740 O.2   130  ASN130     -0.2716
     51  ND2      -22.1280   -6.4360  103.4520 N.am  130  ASN130     -0.0877
     52  N        -20.0070   -4.7530   99.4870 N.am  131  GLY131     -0.1940
     53  CA       -19.2090   -3.9410   98.5940 C.3   131  GLY131      0.2014
     54  C        -20.0500   -3.2290   97.5610 C.2   131  GLY131      0.2640
     55  O        -21.1720   -3.6400   97.2510 O.2   131  GLY131     -0.2714
     56  N        -19.4980   -2.1290   97.0750 N.am  132  SER132     -0.1935
     57  CA       -20.0060   -1.3980   95.9360 C.3   132  SER132      0.2055
     58  C        -18.8590   -1.3590   94.9550 C.2   132  SER132      0.2642
     59  O        -17.7040   -1.3650   95.3770 O.2   132  SER132     -0.2714
     60  CB       -20.3600    0.0350   96.3330 C.3   132  SER132      0.2130
     61  OG       -20.6170    0.8320   95.1840 O.3   132  SER132     -0.2179
     62  N        -19.1590   -1.3220   93.6580 N.am  133  ILE133     -0.1977
     63  CA       -18.1040   -1.1400   92.6690 C.3   133  ILE133      0.1596
     64  C        -18.2520    0.1590   91.8710 C.2   133  ILE133      0.2287
     65  O        -17.6510    0.2960   90.8070 O.2   133  ILE133     -0.2864
     66  CB       -17.8990   -2.3810   91.7690 C.3   133  ILE133      0.0276
     67  CG1      -19.1290   -2.6780   90.9060 C.3   133  ILE133      0.0022
     68  CG2      -17.5470   -3.5710   92.6450 C.3   133  ILE133      0.0022
     69  CD1      -18.9200   -3.8130   89.9240 C.3   133  ILE133      0.0001
     70  N        -23.1290   -6.9730   96.3200 N.3   169  LEU169     -0.1245
     71  CA       -22.8800   -7.4450   94.9760 C.3   169  LEU169      0.1561
     72  C        -23.4260   -8.8410   94.7750 C.2   169  LEU169      0.2260
     73  O        -23.4500   -9.6580   95.7000 O.2   169  LEU169     -0.2867
     74  CB       -21.3780   -7.4760   94.6920 C.3   169  LEU169      0.0270
     75  CG       -20.7070   -6.1170   94.7170 C.3   169  LEU169      0.0019
     76  CD1      -19.2120   -6.3150   94.6560 C.3   169  LEU169      0.0001
     77  CD2      -21.2280   -5.2700   93.5710 C.3   169  LEU169      0.0001
@<TRIPOS>BOND
     1     4     3    2
     2     3     2    1
     3    12    13    1
     4     1     2    1
     5     2     5    1
     6     5     6    1
     7     6     7    1
     8    13    14    1
     9    13    16    1
    10    18    17   ar
    11     7     8    1
    12    20    14   am
    13    20    21    1
    14    17    19   ar
    15    17    16    1
    16     8     9    2
    17    24    25    1
    18    24    21    1
    19    24    26    1
    20    25    27    1
    21    14    15    2
    22    22    21    1
    23    22    23    2
    24     9    11    1
    25     9    10    1
    26    69    67    1
    27    65    64    2
    28    67    66    1
    29    66    68    1
    30    66    63    1
    31    64    63    1
    32    28    29    1
    33    63    62    1
    34    34    33    1
    35    31    30    2
    36    32    29    1
    37    32    33    1
    38    29    30    1
    39    77    75    1
    40    62    58   am
    41    35    33    1
    42    76    75    1
    43    74    75    1
    44    74    71    1
    45    72    71    1
    46    72    73    2
    47    58    59    2
    48    58    57    1
    49    71    70    1
    50    61    60    1
    51    43    41    1
    52    57    60    1
    53    57    56    1
    54    56    54   am
    55    41    40    1
    56    55    54    2
    57    54    53    1
    58    40    42    1
    59    40    37    1
    60    53    52    1
    61    39    38    2
    62    36    37    1
    63    37    38    1
    64    38    44   am
    65    52    46   am
    66    47    46    2
    67    46    45    1
    68    44    45    1
    69    45    48    1
    70    48    49    1
    71    49    51   am
    72    49    50    2
