@<TRIPOS>MOLECULE
tmp/4xdrA00.pdb
 138 130 0 0 0
SMALL
GASTEIGER

@<TRIPOS>ATOM
      1  N         27.8620   32.8570   19.1680 N.3    92  ALA92      -0.1231
      2  CA        29.0970   32.0820   18.9940 C.3    92  ALA92       0.1694
      3  C         30.2660   33.0490   18.8420 C.2    92  ALA92       0.2592
      4  O         31.3360   32.8270   19.4090 O.2    92  ALA92      -0.2718
      5  CB        28.9690   31.1500   17.8310 C.3    92  ALA92       0.0304
      6  N         30.0480   34.0960   18.0560 N.am   93  PHE93      -0.1962
      7  CA        30.8820   35.2930   18.1000 C.3    93  PHE93       0.1771
      8  C         30.2180   36.2560   19.0640 C.2    93  PHE93       0.2620
      9  O         29.0330   36.5370   18.9360 O.2    93  PHE93      -0.2715
     10  CB        30.9650   35.9600   16.7210 C.3    93  PHE93       0.0574
     11  CG        31.5930   37.3500   16.7580 C.ar   93  PHE93      -0.0200
     12  CD1       32.9380   37.5010   16.8450 C.ar   93  PHE93      -0.0042
     13  CD2       30.8030   38.4780   16.7780 C.ar   93  PHE93      -0.0042
     14  CE1       33.5050   38.7830   16.9270 C.ar   93  PHE93      -0.0003
     15  CE2       31.3580   39.7420   16.8720 C.ar   93  PHE93      -0.0003
     16  CZ        32.7040   39.8930   16.9440 C.ar   93  PHE93      -0.0000
     17  N         30.9640   36.7180   20.0790 N.am   94  ASN94      -0.1959
     18  CA        30.4110   37.5800   21.1200 C.3    94  ASN94       0.1804
     19  C         31.4430   38.6730   21.4300 C.2    94  ASN94       0.2463
     20  O         32.5170   38.3810   21.9340 O.2    94  ASN94      -0.2730
     21  CB        30.0990   36.7590   22.3760 C.3    94  ASN94       0.1195
     22  CG        29.4870   37.5790   23.4840 C.2    94  ASN94       0.2630
     23  OD1       29.5630   38.7960   23.4880 O.2    94  ASN94      -0.2716
     24  ND2       28.8050   36.8900   24.3920 N.am   94  ASN94      -0.0877
     25  N         31.1340   39.9340   21.0790 N.am   95  PRO95      -0.2727
     26  CA        32.0830   41.0340   21.2870 C.3    95  PRO95       0.1402
     27  C         32.0870   41.5800   22.7190 C.2    95  PRO95       0.2269
     28  O         32.8260   42.5170   22.9950 O.2    95  PRO95      -0.2865
     29  CB        31.5620   42.1160   20.3430 C.3    95  PRO95       0.0296
     30  CG        30.0800   41.8990   20.3150 C.3    95  PRO95       0.0237
     31  CD        29.9110   40.3860   20.3910 C.3    95  PRO95       0.0939
     32  N         32.7140   39.5410   25.4930 N.3    97  LEU97      -0.1245
     33  CA        33.2100   38.3750   26.2150 C.3    97  LEU97       0.1561
     34  C         34.4040   38.7220   27.1070 C.2    97  LEU97       0.2260
     35  O         35.0850   37.8330   27.6350 O.2    97  LEU97      -0.2867
     36  CB        33.5910   37.3060   25.1950 C.3    97  LEU97       0.0270
     37  CG        33.5730   35.8460   25.5940 C.3    97  LEU97       0.0019
     38  CD1       32.2090   35.3490   26.0630 C.3    97  LEU97       0.0001
     39  CD2       34.0220   35.0250   24.4190 C.3    97  LEU97       0.0001
     40  N         37.4420   36.4970   28.7240 N.3   101  VAL101     -0.1245
     41  CA        38.7130   36.5110   28.0320 C.3   101  VAL101      0.1561
     42  C         39.8040   37.0110   28.9480 C.2   101  VAL101      0.2260
     43  O         40.8870   36.4310   28.9490 O.2   101  VAL101     -0.2867
     44  CB        38.6540   37.4000   26.8090 C.3   101  VAL101      0.0252
     45  CG1       40.0660   37.5710   26.2430 C.3   101  VAL101      0.0019
     46  CG2       37.7250   36.8320   25.7420 C.3   101  VAL101      0.0019
     47  N         43.2730   35.5670   29.4650 N.3   105  ASN105     -0.1240
     48  CA        44.4800   36.3130   29.0930 C.3   105  ASN105      0.1653
     49  C         45.5360   36.2720   30.2010 C.2   105  ASN105      0.2266
     50  O         46.7470   36.2400   29.9260 O.2   105  ASN105     -0.2867
     51  CB        44.1590   37.7630   28.7010 C.3   105  ASN105      0.1155
     52  CG        43.7150   37.8960   27.2640 C.2   105  ASN105      0.2627
     53  OD1       43.8930   36.9830   26.4570 O.2   105  ASN105     -0.2716
     54  ND2       43.1350   39.0440   26.9320 N.am  105  ASN105     -0.0877
     55  N         35.4150   43.2800   24.1000 N.3   155  ASP155     -0.1239
     56  CA        36.7210   42.7960   23.6230 C.3   155  ASP155      0.1674
     57  C         36.5390   42.5830   22.1410 C.2   155  ASP155      0.2266
     58  O         35.7930   41.6930   21.7430 O.2   155  ASP155     -0.2867
     59  CB        37.1030   41.4850   24.3150 C.3   155  ASP155      0.1410
     60  CG        38.4070   40.8880   23.8040 C.2   155  ASP155      0.3668
     61  OD1       38.9130   41.3200   22.7640 O.co2 155  ASP155     -0.2456
     62  OD2       38.9310   39.9540   24.4490 O.co2 155  ASP155     -0.2456
     63  N         39.0210   41.8200   20.0390 N.3   157  GLY157     -0.1210
     64  CA        40.2120   41.1420   19.5630 C.3   157  GLY157      0.1956
     65  C         40.0040   40.2680   18.3570 C.2   157  GLY157      0.2611
     66  O         40.9400   40.0360   17.5860 O.2   157  GLY157     -0.2717
     67  N         38.8040   39.7120   18.1680 N.am  158  ALA158     -0.1979
     68  CA        38.5950   38.8070   17.0560 C.3   158  ALA158      0.1597
     69  C         38.3680   39.5470   15.7730 C.2   158  ALA158      0.2287
     70  O         38.5600   38.9620   14.7010 O.2   158  ALA158     -0.2864
     71  CB        37.4160   37.8810   17.3300 C.3   158  ALA158      0.0319
     72  N         41.5310   43.4780   13.7800 N.3   161  LYS161     -0.1197
     73  CA        42.4520   43.4500   12.6300 C.3   161  LYS161      0.1778
     74  C         41.6350   43.5050   11.3400 C.2   161  LYS161      0.2305
     75  O         42.0690   44.1350   10.3310 O.2   161  LYS161     -0.2863
     76  CB        43.3830   42.2170   12.6790 C.2   161  LYS161     -0.0042
     77  CG        44.4510   42.2580   13.7470 C.2   161  LYS161     -0.0273
     78  CD        45.4270   41.0710   13.7690 C.3   161  LYS161      0.0462
     79  CE        44.7730   39.7270   13.7540 C.3   161  LYS161      0.1140
     80  NZ        44.1630   39.4250   15.0570 N.3   161  LYS161     -0.1310
     81  N         47.1600   31.0660   18.7370 N.3   234  ARG234     -0.1245
     82  CA        47.4350   31.4960   20.1030 C.3   234  ARG234      0.1563
     83  C         46.9120   30.4650   21.1030 C.2   234  ARG234      0.2260
     84  O         45.7080   30.2350   21.1940 O.2   234  ARG234     -0.2867
     85  CB        46.8240   32.8740   20.3750 C.3   234  ARG234      0.0307
     86  CG        46.9140   33.2990   21.8130 C.3   234  ARG234      0.0489
     87  CD        46.3920   34.6940   22.0420 C.3   234  ARG234      0.2205
     88  NE        46.5630   35.0510   23.4430 N.pl3 234  ARG234     -0.0865
     89  CZ        46.3670   36.2590   23.9470 C.cat 234  ARG234      0.5346
     90  NH1       45.9700   37.2590   23.1650 N.pl3 234  ARG234      0.1354
     91  NH2       46.5600   36.4590   25.2430 N.pl3 234  ARG234      0.1354
     92  N         42.8510   30.3210   22.0890 N.3   245  HIS245     -0.1226
     93  CA        42.3090   31.6570   22.2940 C.3   245  HIS245      0.1752
     94  C         40.8340   31.8330   21.9540 C.2   245  HIS245      0.2596
     95  O         40.2770   32.8470   22.3430 O.2   245  HIS245     -0.2718
     96  CB        43.1120   32.6670   21.4530 C.3   245  HIS245      0.0759
     97  CG        42.9750   32.4600   19.9790 C.ar  245  HIS245      0.0818
     98  ND1       42.3820   33.3910   19.1610 N.ar  245  HIS245     -0.2268
     99  CD2       43.3260   31.4310   19.1810 C.ar  245  HIS245      0.1154
    100  CE1       42.3940   32.9580   17.9140 C.ar  245  HIS245      0.1986
    101  NE2       42.9650   31.7690   17.8970 N.ar  245  HIS245     -0.2212
    102  N         40.2060   30.9060   21.2240 N.am  246  ILE246     -0.1966
    103  CA        38.8290   31.1330   20.8060 C.3   246  ILE246      0.1727
    104  C         37.8920   30.4450   21.7980 C.2   246  ILE246      0.2616
    105  O         37.8290   29.2240   21.8900 O.2   246  ILE246     -0.2715
    106  CB        38.5840   30.6470   19.3640 C.3   246  ILE246      0.0290
    107  CG1       39.5320   31.3670   18.3950 C.3   246  ILE246      0.0022
    108  CG2       37.1060   30.8210   18.9850 C.3   246  ILE246      0.0023
    109  CD1       39.5050   30.8810   16.9620 C.3   246  ILE246      0.0001
    110  N         37.1720   31.2560   22.5450 N.am  247  ILE247     -0.1977
    111  CA        36.3520   30.7830   23.6460 C.3   247  ILE247      0.1596
    112  C         34.9610   30.4250   23.1540 C.2   247  ILE247      0.2287
    113  O         34.3600   31.1700   22.3860 O.2   247  ILE247     -0.2864
    114  CB        36.2710   31.8380   24.7590 C.3   247  ILE247      0.0276
    115  CG1       37.6420   32.1690   25.3480 C.3   247  ILE247      0.0022
    116  CG2       35.3270   31.3490   25.8650 C.3   247  ILE247      0.0022
    117  CD1       38.3960   30.9920   25.9490 C.3   247  ILE247      0.0001
    118  N         31.3840   30.6090   24.1160 N.3   249  PRO249     -0.2116
    119  CA        30.6900   31.3240   25.1940 C.3   249  PRO249      0.1372
    120  C         29.7110   30.5170   26.0010 C.2   249  PRO249      0.2244
    121  O         29.3020   31.0170   27.0540 O.2   249  PRO249     -0.2868
    122  CB        29.9500   32.4420   24.4350 C.3   249  PRO249      0.0268
    123  CG        30.8070   32.6750   23.1820 C.3   249  PRO249      0.0207
    124  CD        31.1780   31.2620   22.8070 C.3   249  PRO249      0.0892
    125  N         35.4230   33.5170   13.3870 N.3   277  THR277     -0.1218
    126  CA        35.3560   33.2360   14.8110 C.3   277  THR277      0.1862
    127  C         34.0990   32.4350   15.1370 C.2   277  THR277      0.2287
    128  O         34.1690   31.3960   15.8090 O.2   277  THR277     -0.2866
    129  CB        35.4120   34.5220   15.5790 C.3   277  THR277      0.1770
    130  OG1       36.6350   35.2090   15.2560 O.3   277  THR277     -0.2211
    131  CG2       35.3820   34.2490   17.0440 C.3   277  THR277      0.0375
    132  N         33.7520   28.2940   16.4890 N.3   281  VAL281     -0.1245
    133  CA        32.9480   27.8800   17.6580 C.3   281  VAL281      0.1561
    134  C         31.8260   26.9290   17.2870 C.2   281  VAL281      0.2260
    135  O         31.6040   25.9550   18.0210 O.2   281  VAL281     -0.2867
    136  CB        32.4040   29.1280   18.3870 C.3   281  VAL281      0.0252
    137  CG1       31.5000   28.7360   19.5260 C.3   281  VAL281      0.0019
    138  CG2       33.5700   29.9410   18.9290 C.3   281  VAL281      0.0019
@<TRIPOS>BOND
     1    75    74    2
     2    74    73    1
     3    73    76    1
     4    73    72    1
     5    76    77    2
     6   125   126    1
     7    77    78    1
     8    79    78    1
     9    79    80    1
    10    70    69    2
    11   126   127    1
    12   126   129    1
    13   127   128    2
    14   130   129    1
    15   129   131    1
    16    69    68    1
    17   132   133    1
    18    10    11    1
    19    10     7    1
    20    11    13   ar
    21    11    12   ar
    22    13    15   ar
    23    12    14   ar
    24    15    16   ar
    25    14    16   ar
    26   109   107    1
    27    68    71    1
    28    68    67    1
    29   134   133    1
    30   134   135    2
    31    66    65    2
    32   133   136    1
    33     5     2    1
    34   101   100   ar
    35   101    99   ar
    36   100    98   ar
    37     6     7    1
    38     6     3   am
    39     7     8    1
    40    67    65   am
    41    65    64    1
    42   136   138    1
    43   136   137    1
    44   107   106    1
    45    81    82    1
    46     3     2    1
    47     3     4    2
    48     9     8    2
    49   108   106    1
    50     2     1    1
    51     8    17   am
    52    98    97   ar
    53    99    97   ar
    54   106   103    1
    55    64    63    1
    56    97    96    1
    57    17    18    1
    58    82    85    1
    59    82    83    1
    60    30    29    1
    61    30    31    1
    62    29    26    1
    63    85    86    1
    64    31    25    1
    65   103   102    1
    66   103   104    1
    67    25    26    1
    68    25    19   am
    69    83    84    2
    70    18    19    1
    71    18    21    1
    72   102    94   am
    73    26    27    1
    74    19    20    2
    75    96    93    1
    76    58    57    2
    77   104   105    2
    78   104   110   am
    79    86    87    1
    80    94    93    1
    81    94    95    2
    82    87    88    1
    83    92    93    1
    84    57    56    1
    85    21    22    1
    86   113   112    2
    87   110   111    1
    88    27    28    2
    89    61    60   ar
    90   124   123    1
    91   124   118    1
    92   112   111    1
    93    90    89    1
    94   123   122    1
    95    88    89    2
    96    22    23    2
    97    22    24   am
    98    56    55    1
    99    56    59    1
   100   111   114    1
   101    60    59    1
   102    60    62   ar
   103    89    91    1
   104   118   119    1
   105    39    37    1
   106   122   119    1
   107   114   115    1
   108   114   116    1
   109   119   120    1
   110    36    37    1
   111    36    33    1
   112   115   117    1
   113    32    33    1
   114    37    38    1
   115    46    44    1
   116   120   121    2
   117    33    34    1
   118    45    44    1
   119    53    52    2
   120    44    41    1
   121    54    52   am
   122    34    35    2
   123    52    51    1
   124    41    40    1
   125    41    42    1
   126    51    48    1
   127    42    43    2
   128    48    47    1
   129    48    49    1
   130    50    49    2
