@<TRIPOS>MOLECULE
tmp/4xdvA00.pdb
 150 142 0 0 0
SMALL
GASTEIGER

@<TRIPOS>ATOM
      1  N        123.2300   25.7640   72.9930 N.3    31  LEU31      -0.1245
      2  CA       122.8460   26.1250   71.6270 C.3    31  LEU31       0.1561
      3  C        123.7690   25.5310   70.5750 C.2    31  LEU31       0.2260
      4  O        123.3290   25.2070   69.4790 O.2    31  LEU31      -0.2867
      5  CB       122.7810   27.6500   71.4440 C.3    31  LEU31       0.0270
      6  CG       121.5170   28.3600   71.9400 C.3    31  LEU31       0.0019
      7  CD1      121.4980   29.8600   71.5680 C.3    31  LEU31       0.0001
      8  CD2      120.2910   27.6550   71.3940 C.3    31  LEU31       0.0001
      9  N        108.8470   31.6220   71.8130 N.3    49  TYR49      -0.1241
     10  CA       110.1630   31.8900   71.3000 C.3    49  TYR49       0.1605
     11  C        109.9730   32.7050   70.0390 C.2    49  TYR49       0.2264
     12  O        109.1550   32.3550   69.1730 O.2    49  TYR49      -0.2867
     13  CB       110.8870   30.5750   70.9920 C.3    49  TYR49       0.0534
     14  CG       112.1190   30.7330   70.1330 C.ar   49  TYR49      -0.0201
     15  CD1      113.1270   31.6230   70.4800 C.ar   49  TYR49      -0.0009
     16  CD2      112.2710   29.9960   68.9670 C.ar   49  TYR49      -0.0009
     17  CE1      114.2550   31.7640   69.7010 C.ar   49  TYR49       0.0417
     18  CE2      113.3920   30.1300   68.1770 C.ar   49  TYR49       0.0417
     19  CZ       114.3840   31.0120   68.5480 C.ar   49  TYR49       0.1957
     20  OH       115.5040   31.1420   67.7570 O.3    49  TYR49      -0.2866
     21  N        112.2510   35.3210   67.1530 N.3    51  ASN51      -0.1240
     22  CA       113.2690   36.1910   66.5980 C.3    51  ASN51       0.1653
     23  C        112.5150   37.3980   66.0710 C.2    51  ASN51       0.2266
     24  O        111.8640   37.3100   65.0340 O.2    51  ASN51      -0.2867
     25  CB       114.0100   35.5140   65.4310 C.3    51  ASN51       0.1155
     26  CG       114.8540   34.3170   65.8630 C.2    51  ASN51       0.2627
     27  OD1      114.7260   33.2160   65.3170 O.2    51  ASN51      -0.2716
     28  ND2      115.7170   34.5280   66.8270 N.am   51  ASN51      -0.0877
     29  N        112.9950   25.1760   66.0760 N.3    67  LEU67      -0.1245
     30  CA       114.4200   24.9640   66.2830 C.3    67  LEU67       0.1561
     31  C        114.9330   23.8450   65.3820 C.2    67  LEU67       0.2260
     32  O        116.0150   23.9570   64.7930 O.2    67  LEU67      -0.2867
     33  CB       114.7150   24.6300   67.7550 C.3    67  LEU67       0.0270
     34  CG       114.3380   25.7240   68.7560 C.3    67  LEU67       0.0019
     35  CD1      114.6460   25.3020   70.1760 C.3    67  LEU67       0.0001
     36  CD2      115.0580   27.0160   68.3990 C.3    67  LEU67       0.0001
     37  N        115.4400   25.1000   61.9970 N.3    70  PHE70      -0.1227
     38  CA       116.6260   25.9670   61.9090 C.3    70  PHE70       0.1736
     39  C        117.9050   25.1310   61.8050 C.2    70  PHE70       0.2595
     40  O        118.7210   25.3700   60.9340 O.2    70  PHE70      -0.2718
     41  CB       116.7070   26.9480   63.0880 C.3    70  PHE70       0.0547
     42  CG       115.7540   28.1070   62.9750 C.ar   70  PHE70      -0.0202
     43  CD1      115.2950   28.5290   61.7320 C.ar   70  PHE70      -0.0042
     44  CD2      115.2960   28.7710   64.1080 C.ar   70  PHE70      -0.0042
     45  CE1      114.4100   29.5920   61.6190 C.ar   70  PHE70      -0.0003
     46  CE2      114.4030   29.8340   63.9970 C.ar   70  PHE70      -0.0003
     47  CZ       113.9670   30.2420   62.7480 C.ar   70  PHE70      -0.0000
     48  N        118.0280   24.1120   62.6510 N.am   71  PHE71      -0.1976
     49  CA       119.2040   23.2360   62.6550 C.3    71  PHE71       0.1639
     50  C        119.3530   22.3300   61.4270 C.2    71  PHE71       0.2290
     51  O        120.3730   21.6870   61.2390 O.2    71  PHE71      -0.2864
     52  CB       119.2230   22.4130   63.9220 C.3    71  PHE71       0.0560
     53  CG       119.3650   23.2370   65.1530 C.ar   71  PHE71      -0.0200
     54  CD1      120.1790   24.3600   65.1560 C.ar   71  PHE71      -0.0042
     55  CD2      118.6890   22.8970   66.3070 C.ar   71  PHE71      -0.0042
     56  CE1      120.3160   25.1110   66.2930 C.ar   71  PHE71      -0.0003
     57  CE2      118.8190   23.6610   67.4500 C.ar   71  PHE71      -0.0003
     58  CZ       119.6300   24.7670   67.4440 C.ar   71  PHE71      -0.0000
     59  N        121.3720   25.4190   59.2840 N.3    74  VAL74      -0.1245
     60  CA       122.3020   26.3410   59.8920 C.3    74  VAL74       0.1561
     61  C        122.9020   25.7310   61.1470 C.2    74  VAL74       0.2260
     62  O        122.2250   25.0250   61.8840 O.2    74  VAL74      -0.2867
     63  CB       121.6380   27.7520   60.1950 C.3    74  VAL74       0.0252
     64  CG1      120.7830   27.7110   61.4400 C.3    74  VAL74       0.0019
     65  CG2      122.6940   28.8350   60.3520 C.3    74  VAL74       0.0019
     66  N        124.8660   26.6820   64.8000 N.3    76  VAL76      -0.1245
     67  CA       125.3620   27.6350   65.7760 C.3    76  VAL76       0.1561
     68  C        126.7660   27.2120   66.1900 C.2    76  VAL76       0.2260
     69  O        126.9200   26.2940   66.9750 O.2    76  VAL76      -0.2867
     70  CB       124.4780   27.6660   67.0220 C.3    76  VAL76       0.0252
     71  CG1      125.0510   28.6120   68.0230 C.3    76  VAL76       0.0019
     72  CG2      123.0750   28.0960   66.6470 C.3    76  VAL76       0.0019
     73  N        125.0730   39.4390   73.6730 N.3    95  ARG95      -0.1245
     74  CA       125.9800   38.4180   73.1540 C.3    95  ARG95       0.1563
     75  C        126.2150   38.4930   71.6480 C.2    95  ARG95       0.2260
     76  O        125.6990   39.3720   70.9690 O.2    95  ARG95      -0.2867
     77  CB       125.4600   37.0070   73.5300 C.3    95  ARG95       0.0307
     78  CG       124.0860   36.6730   72.9350 C.3    95  ARG95       0.0489
     79  CD       123.5640   35.2690   73.2940 C.3    95  ARG95       0.2205
     80  NE       122.7710   34.7150   72.1880 N.pl3  95  ARG95      -0.0865
     81  CZ       121.4400   34.6950   72.1310 C.cat  95  ARG95       0.5346
     82  NH1      120.7000   35.1620   73.1400 N.pl3  95  ARG95       0.1354
     83  NH2      120.8450   34.1880   71.0540 N.pl3  95  ARG95       0.1354
     84  N        126.2510   35.6130   68.3190 N.3    97  ASP97      -0.1239
     85  CA       126.1200   34.2450   67.8640 C.3    97  ASP97       0.1674
     86  C        126.7980   34.1670   66.5270 C.2    97  ASP97       0.2266
     87  O        126.7160   35.1030   65.7260 O.2    97  ASP97      -0.2867
     88  CB       124.6520   33.8220   67.7400 C.3    97  ASP97       0.1410
     89  CG       123.9740   33.6630   69.0960 C.2    97  ASP97       0.3668
     90  OD1      124.6710   33.8110   70.1140 O.co2  97  ASP97      -0.2456
     91  OD2      122.7560   33.3840   69.1410 O.co2  97  ASP97      -0.2456
     92  N        126.7790   31.9600   63.2200 N.3    99  LEU99      -0.1245
     93  CA       125.9190   31.0090   62.5580 C.3    99  LEU99       0.1561
     94  C        126.5530   30.6820   61.2340 C.2    99  LEU99       0.2260
     95  O        127.0300   31.5770   60.5180 O.2    99  LEU99      -0.2867
     96  CB       124.5140   31.5850   62.3400 C.3    99  LEU99       0.0270
     97  CG       123.4550   31.3740   63.4150 C.3    99  LEU99       0.0019
     98  CD1      123.9860   31.7390   64.7630 C.3    99  LEU99       0.0001
     99  CD2      122.2380   32.2450   63.0830 C.3    99  LEU99       0.0001
    100  N        111.2550   33.5640   75.3630 N.3   126  TRP126     -0.1241
    101  CA       112.5810   33.8290   74.8250 C.3   126  TRP126      0.1605
    102  C        112.4770   34.6500   73.5460 C.2   126  TRP126      0.2264
    103  O        111.9830   34.1810   72.5190 O.2   126  TRP126     -0.2867
    104  CB       113.3490   32.5350   74.5750 C.3   126  TRP126      0.0550
    105  CG       114.6840   32.7190   73.8730 C.ar  126  TRP126      0.0003
    106  CD1      115.4790   33.8400   73.8710 C.ar  126  TRP126      0.0946
    107  CD2      115.3610   31.7520   73.0560 C.ar  126  TRP126      0.0152
    108  NE1      116.6070   33.6220   73.1170 N.ar  126  TRP126     -0.2442
    109  CE2      116.5620   32.3480   72.6100 C.ar  126  TRP126      0.0810
    110  CE3      115.0790   30.4300   72.6790 C.ar  126  TRP126      0.0012
    111  CZ2      117.4680   31.6740   71.7850 C.ar  126  TRP126      0.0191
    112  CZ3      115.9730   29.7720   71.8640 C.ar  126  TRP126      0.0001
    113  CH2      117.1580   30.3930   71.4250 C.ar  126  TRP126      0.0015
    114  N        114.8580   37.1300   71.0850 N.3   128  ASP128     -0.1239
    115  CA       116.1580   37.6290   70.6950 C.3   128  ASP128      0.1674
    116  C        115.9250   38.8580   69.8130 C.2   128  ASP128      0.2266
    117  O        115.0450   38.8370   68.9500 O.2   128  ASP128     -0.2867
    118  CB       116.9370   36.5520   69.9100 C.3   128  ASP128      0.1410
    119  CG       117.8010   35.6550   70.8030 C.2   128  ASP128      0.3668
    120  OD1      118.0740   36.0100   71.9790 O.co2 128  ASP128     -0.2456
    121  OD2      118.2220   34.5810   70.3050 O.co2 128  ASP128     -0.2456
    122  N        117.8600   41.5730   67.1370 N.3   130  PHE130     -0.1241
    123  CA       119.0350   41.7110   66.2940 C.3   130  PHE130      0.1605
    124  C        118.6800   42.0510   64.8480 C.2   130  PHE130      0.2264
    125  O        117.5360   41.9680   64.4340 O.2   130  PHE130     -0.2867
    126  CB       119.9250   40.4520   66.3610 C.3   130  PHE130      0.0534
    127  CG       119.2720   39.1810   65.8430 C.ar  130  PHE130     -0.0203
    128  CD1      118.3150   38.5030   66.5980 C.ar  130  PHE130     -0.0042
    129  CD2      119.6330   38.6570   64.6030 C.ar  130  PHE130     -0.0042
    130  CE1      117.7280   37.3080   66.1240 C.ar  130  PHE130     -0.0003
    131  CE2      119.0570   37.4620   64.1180 C.ar  130  PHE130     -0.0003
    132  CZ       118.1000   36.7900   64.8760 C.ar  130  PHE130     -0.0000
    133  N        120.1140   37.3610   58.1710 N.3   135  PHE135     -0.1241
    134  CA       119.3650   36.1960   58.5980 C.3   135  PHE135      0.1605
    135  C        118.7630   35.4500   57.4130 C.2   135  PHE135      0.2264
    136  O        118.8440   34.2350   57.3490 O.2   135  PHE135     -0.2867
    137  CB       118.2730   36.6170   59.5740 C.3   135  PHE135      0.0534
    138  CG       117.8390   35.5250   60.5010 C.ar  135  PHE135     -0.0203
    139  CD1      118.7520   34.9200   61.3570 C.ar  135  PHE135     -0.0042
    140  CD2      116.5200   35.1060   60.5240 C.ar  135  PHE135     -0.0042
    141  CE1      118.3560   33.9160   62.2150 C.ar  135  PHE135     -0.0003
    142  CE2      116.1190   34.0960   61.3800 C.ar  135  PHE135     -0.0003
    143  CZ       117.0350   33.5030   62.2300 C.ar  135  PHE135     -0.0000
    144  N        119.9870   31.7510   56.8630 N.3   139  VAL139     -0.1245
    145  CA       119.0530   30.6740   57.1120 C.3   139  VAL139      0.1561
    146  C        118.2620   30.4210   55.8360 C.2   139  VAL139      0.2260
    147  O        117.5080   31.2880   55.3760 O.2   139  VAL139     -0.2867
    148  CB       118.1290   31.0300   58.2810 C.3   139  VAL139      0.0252
    149  CG1      117.1350   29.9240   58.5360 C.3   139  VAL139      0.0019
    150  CG2      118.9650   31.3030   59.5350 C.3   139  VAL139      0.0019
@<TRIPOS>BOND
     1   147   146    2
     2   146   145    1
     3   144   145    1
     4   145   148    1
     5   136   135    2
     6   135   134    1
     7   133   134    1
     8   148   149    1
     9   148   150    1
    10   134   137    1
    11    59    60    1
    12   137   138    1
    13    60    63    1
    14    60    61    1
    15    63    65    1
    16    63    64    1
    17   138   140   ar
    18   138   139   ar
    19    95    94    2
    20   140   142   ar
    21    40    39    2
    22    61    62    2
    23    94    93    1
    24    51    50    2
    25   139   141   ar
    26   142   143   ar
    27    50    49    1
    28    45    43   ar
    29    45    47   ar
    30    43    42   ar
    31    39    38    1
    32    39    48   am
    33    38    37    1
    34    38    41    1
    35   141   143   ar
    36    96    93    1
    37    96    97    1
    38    93    92    1
    39    48    49    1
    40    49    52    1
    41    47    46   ar
    42    42    41    1
    43    42    44   ar
    44    99    97    1
    45    97    98    1
    46    52    53    1
    47    46    44   ar
    48   131   129   ar
    49   131   132   ar
    50   125   124    2
    51   129   127   ar
    52    32    31    2
    53    66    67    1
    54   124   123    1
    55   132   130   ar
    56    24    23    2
    57    53    54   ar
    58    53    55   ar
    59    54    56   ar
    60    27    26    2
    61    31    30    1
    62    25    26    1
    63    25    22    1
    64    87    86    2
    65    67    68    1
    66    67    70    1
    67   127   126    1
    68   127   128   ar
    69    26    28   am
    70    23    22    1
    71    29    30    1
    72   130   128   ar
    73    68    69    2
    74    30    33    1
    75    56    58   ar
    76   123   126    1
    77   123   122    1
    78    55    57   ar
    79    86    85    1
    80    22    21    1
    81    72    70    1
    82    70    71    1
    83    58    57   ar
    84    88    85    1
    85    88    89    1
    86    33    34    1
    87    20    19    1
    88    85    84    1
    89    18    19   ar
    90    18    16   ar
    91    36    34    1
    92    19    17   ar
    93    34    35    1
    94   117   116    2
    95    16    14   ar
    96    89    91   ar
    97    89    90   ar
    98    12    11    2
    99     4     3    2
   100    17    15   ar
   101   116   115    1
   102   118   115    1
   103   118   119    1
   104    11    10    1
   105    14    15   ar
   106    14    13    1
   107   121   119   ar
   108     3     2    1
   109   115   114    1
   110   119   120   ar
   111    76    75    2
   112    13    10    1
   113    83    81    1
   114    10     9    1
   115     8     6    1
   116   113   111   ar
   117   113   112   ar
   118     5     2    1
   119     5     6    1
   120     7     6    1
   121     2     1    1
   122    75    74    1
   123   111   109   ar
   124   112   110   ar
   125    81    80    2
   126    81    82    1
   127    80    79    1
   128   103   102    2
   129   109   107   ar
   130   109   108   ar
   131   110   107   ar
   132    78    79    1
   133    78    77    1
   134   107   105   ar
   135   108   106   ar
   136    74    77    1
   137    74    73    1
   138   102   101    1
   139   106   105   ar
   140   105   104    1
   141   104   101    1
   142   101   100    1
