@<TRIPOS>MOLECULE
tmp/4xdyA01.pdb
 77 74 0 0 0
SMALL
GASTEIGER

@<TRIPOS>ATOM
      1  N         13.0620   95.6400   12.1100 N.3    87  ASP87      -0.1239
      2  CA        14.2960   96.3080   11.6840 C.3    87  ASP87       0.1674
      3  C         14.1870   96.9110   10.2920 C.2    87  ASP87       0.2266
      4  O         14.6770   98.0060   10.0270 O.2    87  ASP87      -0.2867
      5  CB        15.5360   95.4150   11.7450 C.3    87  ASP87       0.1410
      6  CG        15.7600   94.8610   13.1350 C.2    87  ASP87       0.3668
      7  OD1       16.1090   95.6860   14.0510 O.co2  87  ASP87      -0.2456
      8  OD2       15.5000   93.6540   13.3640 O.co2  87  ASP87      -0.2456
      9  N         18.0610   96.0870   19.1500 N.3   112  HIS112     -0.1241
     10  CA        19.0030   95.3830   18.2880 C.3   112  HIS112      0.1621
     11  C         19.7900   96.4930   17.6260 C.2   112  HIS112      0.2264
     12  O         19.1700   97.5010   17.1580 O.2   112  HIS112     -0.2867
     13  CB        18.2250   94.5990   17.2280 C.3   112  HIS112      0.0745
     14  CG        19.0720   93.7980   16.2920 C.ar  112  HIS112      0.0817
     15  ND1       20.2840   93.1740   16.6360 N.ar  112  HIS112     -0.2268
     16  CD2       18.8580   93.5100   14.9770 C.ar  112  HIS112      0.1154
     17  CE1       20.7130   92.4810   15.5770 C.ar  112  HIS112      0.1986
     18  NE2       19.8570   92.6690   14.5700 N.ar  112  HIS112     -0.2212
     19  N         17.4670   92.3140   24.6360 N.3   134  PRO134     -0.2102
     20  CA        17.2550   91.1130   25.4230 C.3   134  PRO134      0.1504
     21  C         17.7060   89.9250   24.5840 C.2   134  PRO134      0.2576
     22  O         17.3700   89.8840   23.4130 O.2   134  PRO134     -0.2718
     23  CB        15.7170   91.0930   25.6610 C.3   134  PRO134      0.0282
     24  CG        15.1770   91.8310   24.4750 C.3   134  PRO134      0.0208
     25  CD        16.2250   92.7490   23.9690 C.3   134  PRO134      0.0893
     26  N         18.3410   88.9260   25.2100 N.am  135  LYS135     -0.1966
     27  CA        18.7590   87.6890   24.5670 C.3   135  LYS135      0.1731
     28  C         17.6080   86.6860   24.7660 C.2   135  LYS135      0.2616
     29  O         17.6810   85.6930   25.5410 O.2   135  LYS135     -0.2715
     30  CB        20.1060   87.2010   25.1780 C.3   135  LYS135      0.0358
     31  CG        21.2430   88.1890   25.0630 C.3   135  LYS135      0.0298
     32  CD        21.6960   88.4710   23.6380 C.2   135  LYS135     -0.0067
     33  CE        21.0870   89.6890   22.9390 C.2   135  LYS135      0.1012
     34  NZ        21.4870   89.9460   21.4790 N.pl3 135  LYS135     -0.1270
     35  N         16.4430   87.0250   24.1490 N.am  136  ALA136     -0.1964
     36  CA        15.2310   86.2960   24.3870 C.3   136  ALA136      0.1713
     37  C         14.1450   86.6980   23.4030 C.2   136  ALA136      0.2458
     38  O         13.9990   87.8760   23.0600 O.2   136  ALA136     -0.2730
     39  CB        14.7020   86.5530   25.7650 C.3   136  ALA136      0.0333
     40  N         13.3620   85.7000   22.9480 N.am  137  PRO137     -0.2727
     41  CA        12.1190   86.0540   22.2880 C.3   137  PRO137      0.1402
     42  C         11.1100   86.7630   23.2590 C.2   137  PRO137      0.2269
     43  O         11.0120   86.4340   24.4390 O.2   137  PRO137     -0.2865
     44  CB        11.5680   84.7110   21.7860 C.3   137  PRO137      0.0296
     45  CG        12.1270   83.7340   22.7590 C.3   137  PRO137      0.0237
     46  CD        13.4590   84.2670   23.2050 C.3   137  PRO137      0.0939
     47  N         24.3660   88.7350   17.6710 N.3   195  ASP195     -0.1239
     48  CA        22.9030   88.4650   17.6110 C.3   195  ASP195      0.1674
     49  C         22.5370   87.8150   16.2720 C.2   195  ASP195      0.2266
     50  O         21.8590   86.8090   16.2360 O.2   195  ASP195     -0.2867
     51  CB        22.1240   89.7460   17.8030 C.3   195  ASP195      0.1410
     52  CG        20.6270   89.4790   17.9230 C.2   195  ASP195      0.3668
     53  OD1       20.2140   89.0170   19.0050 O.co2 195  ASP195     -0.2456
     54  OD2       19.9520   89.6470   16.8780 O.co2 195  ASP195     -0.2456
     55  N         21.2440   83.8390   15.8920 N.3   199  GLU199     -0.1245
     56  CA        19.9490   83.4530   15.3860 C.3   199  GLU199      0.1567
     57  C         20.1490   82.6190   14.0830 C.2   199  GLU199      0.2260
     58  O         19.3770   81.6690   13.8610 O.2   199  GLU199     -0.2867
     59  CB        19.0210   84.6670   15.1940 C.3   199  GLU199      0.0388
     60  CG        19.4520   85.6570   14.1780 C.3   199  GLU199      0.1160
     61  CD        18.9470   87.0910   14.4020 C.2   199  GLU199      0.3649
     62  OE1       18.5510   87.4640   15.5550 O.co2 199  GLU199     -0.2457
     63  OE2       18.8850   87.8410   13.3880 O.co2 199  GLU199     -0.2457
     64  N         20.4660   79.3380   17.1680 N.3   203  LEU203     -0.1231
     65  CA        19.1550   79.3380   17.7680 C.3   203  LEU203      0.1693
     66  C         17.9920   79.0570   16.8130 C.2   203  LEU203      0.2592
     67  O         17.0240   78.3880   17.2210 O.2   203  LEU203     -0.2718
     68  CB        18.8850   80.6810   18.4440 C.3   203  LEU203      0.0284
     69  CG        19.7960   81.1740   19.5830 C.3   203  LEU203      0.0019
     70  CD1       19.4400   82.6050   19.9780 C.3   203  LEU203      0.0001
     71  CD2       19.6550   80.2440   20.7690 C.3   203  LEU203      0.0001
     72  N         18.0470   79.5660   15.5970 N.am  204  CYS204     -0.1970
     73  CA        16.8870   79.4730   14.7020 C.3   204  CYS204      0.1712
     74  C         17.3610   78.6480   13.4630 C.2   204  CYS204      0.2296
     75  O         16.8610   77.5660   13.2440 O.2   204  CYS204     -0.2864
     76  CB        16.3660   80.8380   14.3100 C.3   204  CYS204      0.0983
     77  SG        15.9160   81.8580   15.7530 S.3   204  CYS204     -0.0798
@<TRIPOS>BOND
     1     4     3    2
     2     3     2    1
     3     2     5    1
     4     2     1    1
     5     5     6    1
     6     6     8   ar
     7     6     7   ar
     8    75    74    2
     9    63    61   ar
    10    74    73    1
    11    58    57    2
    12    57    56    1
    13    60    61    1
    14    60    59    1
    15    76    73    1
    16    76    77    1
    17    61    62   ar
    18    18    16   ar
    19    18    17   ar
    20    73    72    1
    21    16    14   ar
    22    59    56    1
    23    56    55    1
    24    17    15   ar
    25    72    66   am
    26    50    49    2
    27    49    48    1
    28    14    15   ar
    29    14    13    1
    30    66    67    2
    31    66    65    1
    32    54    52   ar
    33    12    11    2
    34    64    65    1
    35    13    10    1
    36    48    47    1
    37    48    51    1
    38    11    10    1
    39    65    68    1
    40    51    52    1
    41    52    53   ar
    42    10     9    1
    43    68    69    1
    44    69    70    1
    45    69    71    1
    46    34    33    1
    47    44    41    1
    48    44    45    1
    49    41    40    1
    50    41    42    1
    51    45    46    1
    52    33    32    2
    53    40    46    1
    54    40    37   am
    55    38    37    2
    56    42    43    2
    57    37    36    1
    58    22    21    2
    59    32    31    1
    60    25    24    1
    61    25    19    1
    62    35    36    1
    63    35    28   am
    64    36    39    1
    65    24    23    1
    66    27    28    1
    67    27    30    1
    68    27    26    1
    69    21    26   am
    70    21    20    1
    71    19    20    1
    72    28    29    2
    73    31    30    1
    74    20    23    1
