@<TRIPOS>MOLECULE
tmp/4xdyA00.pdb
 211 200 0 0 0
SMALL
GASTEIGER

@<TRIPOS>ATOM
      1  N          5.9070  100.4340   18.2460 N.3    23  GLY23      -0.1225
      2  CA         5.6310   99.0320   17.8820 C.3    23  GLY23       0.1811
      3  C          5.2430   98.1600   18.9980 C.2    23  GLY23       0.2280
      4  O          6.0560   97.8830   19.8670 O.2    23  GLY23      -0.2866
      5  N          4.6350   94.7330   19.1310 N.3    25  GLY25      -0.1210
      6  CA         4.7180   93.3640   18.6560 C.3    25  GLY25       0.1956
      7  C          5.4460   92.5170   19.6840 C.2    25  GLY25       0.2612
      8  O          5.2480   92.6910   20.8820 O.2    25  GLY25      -0.2717
      9  N          6.2520   91.5460   19.2510 N.am   26  ALA26      -0.1965
     10  CA         6.7590   90.5450   20.2380 C.3    26  ALA26       0.1728
     11  C          7.5150   91.2820   21.3540 C.2    26  ALA26       0.2616
     12  O          7.2950   91.0190   22.5460 O.2    26  ALA26      -0.2715
     13  CB         7.7160   89.5850   19.5290 C.3    26  ALA26       0.0334
     14  N          8.4240   92.1690   20.9640 N.am   27  GLN27      -0.1963
     15  CA         9.2210   92.9130   21.9320 C.3    27  GLN27       0.1733
     16  C          8.4590   94.1100   22.5740 C.2    27  GLN27       0.2616
     17  O          8.5600   94.3010   23.7740 O.2    27  GLN27      -0.2715
     18  CB        10.5400   93.3620   21.3310 C.3    27  GLN27       0.0408
     19  CG        11.5820   92.2280   21.2020 C.3    27  GLN27       0.0908
     20  CD        11.9650   91.5480   22.5040 C.2    27  GLN27       0.2608
     21  OE1       12.2580   90.3330   22.5360 O.2    27  GLN27      -0.2717
     22  NE2       11.9770   92.2940   23.5500 N.am   27  GLN27      -0.0878
     23  N          7.7560   94.8970   21.7930 N.am   28  GLY28      -0.1955
     24  CA         7.0760   96.0850   22.3030 C.3    28  GLY28       0.1869
     25  C          6.0340   95.6860   23.3370 C.2    28  GLY28       0.2309
     26  O          5.9010   96.3430   24.3860 O.2    28  GLY28      -0.2863
     27  N          1.9540  103.6180   17.7390 N.3    46  GLU46      -0.1231
     28  CA         1.5460  102.5880   16.7860 C.3    46  GLU46       0.1699
     29  C          0.8450  103.2140   15.6260 C.2    46  GLU46       0.2592
     30  O          0.7270  104.4460   15.5740 O.2    46  GLU46      -0.2718
     31  CB         0.6990  101.5020   17.4640 C.3    46  GLU46       0.0402
     32  CG         1.4590  100.2060   17.7380 C.3    46  GLU46       0.1161
     33  CD         1.8500   99.3670   16.5090 C.2    46  GLU46       0.3649
     34  OE1        1.6320   99.8040   15.3790 O.co2  46  GLU46      -0.2457
     35  OE2        2.5280   98.2840   16.6950 O.co2  46  GLU46      -0.2457
     36  N          0.5050  102.3680   14.6480 N.am   47  THR47      -0.1953
     37  CA        -0.1690  102.7800   13.4520 C.3    47  THR47       0.1897
     38  C         -1.5270  102.0490   13.3740 C.2    47  THR47       0.2313
     39  O         -1.6010  100.8250   13.4160 O.2    47  THR47      -0.2863
     40  CB         0.6710  102.4620   12.2210 C.3    47  THR47       0.1794
     41  OG1        1.9860  103.0300   12.3780 O.3    47  THR47      -0.2208
     42  CG2        0.0100  103.0650   10.9630 C.3    47  THR47       0.0378
     43  N         -2.8180   99.2840    8.9720 N.3    50  LEU50      -0.1245
     44  CA        -1.7000   98.7930    8.2020 C.3    50  LEU50       0.1561
     45  C         -2.2220   97.9240    7.0400 C.2    50  LEU50       0.2260
     46  O         -3.1020   97.0970    7.2770 O.2    50  LEU50      -0.2867
     47  CB        -0.7900   97.9640    9.1390 C.3    50  LEU50       0.0270
     48  CG         0.3010   98.7280    9.9050 C.3    50  LEU50       0.0019
     49  CD1        1.1370   97.6620   10.6160 C.3    50  LEU50       0.0001
     50  CD2        1.1920   99.6040    9.0150 C.3    50  LEU50       0.0001
     51  N         -4.9240   97.6140   12.2880 N.3    55  ASN55      -0.1240
     52  CA        -3.7560   96.9320   12.8580 C.3    55  ASN55       0.1653
     53  C         -4.1090   96.3200   14.1960 C.2    55  ASN55       0.2266
     54  O         -4.4020   97.0280   15.1340 O.2    55  ASN55      -0.2867
     55  CB        -2.6190   97.9490   12.9920 C.3    55  ASN55       0.1155
     56  CG        -1.3610   97.3390   13.5930 C.2    55  ASN55       0.2627
     57  OD1       -1.2840   96.1210   13.7480 O.2    55  ASN55      -0.2716
     58  ND2       -0.3730   98.1860   13.9310 N.am   55  ASN55      -0.0877
     59  N         -2.2570   95.2160   16.5260 N.3    57  SER57      -0.1217
     60  CA        -1.3370   95.6520   17.5720 C.3    57  SER57       0.1889
     61  C         -1.8190   96.9760   18.2140 C.2    57  SER57       0.2288
     62  O         -1.7520   97.1520   19.4490 O.2    57  SER57      -0.2866
     63  CB         0.0350   95.8600   16.9400 C.3    57  SER57       0.2089
     64  OG         0.5010   94.6160   16.4560 O.3    57  SER57      -0.2183
     65  N          2.7280  107.3150   15.9400 N.3    71  ILE71      -0.1245
     66  CA         4.1630  107.3510   16.2520 C.3    71  ILE71       0.1561
     67  C          4.6890  108.7810   16.4350 C.2    71  ILE71       0.2260
     68  O          5.4660  109.0410   17.3870 O.2    71  ILE71      -0.2867
     69  CB         4.9970  106.5500   15.1960 C.3    71  ILE71       0.0252
     70  CG1        4.6040  105.0650   15.2890 C.3    71  ILE71       0.0019
     71  CG2        6.4910  106.8000   15.3440 C.3    71  ILE71       0.0019
     72  CD1        5.1690  104.1670   14.2140 C.3    71  ILE71       0.0001
     73  N         12.5410  102.1470   19.8720 N.3    83  ILE83      -0.1231
     74  CA        12.1170  101.6740   18.5350 C.3    83  ILE83       0.1692
     75  C         12.0420  100.1510   18.5900 C.2    83  ILE83       0.2592
     76  O         13.0760   99.4930   18.6020 O.2    83  ILE83      -0.2718
     77  CB        13.0010  102.2300   17.4430 C.3    83  ILE83       0.0266
     78  CG1       12.8080  103.7670   17.3580 C.3    83  ILE83       0.0019
     79  CG2       12.5910  101.6610   16.0740 C.3    83  ILE83       0.0020
     80  CD1       13.7410  104.4620   16.4390 C.3    83  ILE83       0.0001
     81  N         10.8100   99.6380   18.6610 N.am   84  LEU84      -0.1966
     82  CA        10.5530   98.1840   18.6510 C.3    84  LEU84       0.1728
     83  C          9.6510   97.7920   17.4530 C.2    84  LEU84       0.2616
     84  O          8.8420   96.9110   17.5460 O.2    84  LEU84      -0.2715
     85  CB        10.0460   97.6970   19.9870 C.3    84  LEU84       0.0311
     86  CG        10.9910   97.8220   21.1790 C.3    84  LEU84       0.0022
     87  CD1       10.3640   97.4110   22.4960 C.3    84  LEU84       0.0001
     88  CD2       12.2890   97.0590   20.9310 C.3    84  LEU84       0.0001
     89  N          9.9300   98.4580   16.3360 N.am   85  LEU85      -0.1964
     90  CA         9.3830   98.1390   15.0730 C.3    85  LEU85       0.1713
     91  C         10.2970   97.1090   14.3640 C.2    85  LEU85       0.2458
     92  O         11.4680   97.0210   14.6490 O.2    85  LEU85      -0.2730
     93  CB         9.2770   99.4090   14.2450 C.3    85  LEU85       0.0310
     94  CG         8.2860  100.4540   14.7540 C.3    85  LEU85       0.0022
     95  CD1        8.5950  101.8230   14.1790 C.3    85  LEU85       0.0001
     96  CD2        6.8740  100.0820   14.4260 C.3    85  LEU85       0.0001
     97  N          9.7840   96.4070   13.3320 N.am   86  PRO86      -0.2716
     98  CA        10.6820   95.5190   12.5490 C.3    86  PRO86       0.1536
     99  C         11.8840   96.2500   12.0440 C.2    86  PRO86       0.2598
    100  O         11.7890   97.3900   11.5730 O.2    86  PRO86      -0.2715
    101  CB         9.7630   95.0170   11.3900 C.3    86  PRO86       0.0310
    102  CG         8.3640   95.1330   11.9250 C.3    86  PRO86       0.0237
    103  CD         8.4240   96.4210   12.7950 C.3    86  PRO86       0.0939
    104  N         13.0620   95.6400   12.1100 N.am   87  ASP87      -0.1972
    105  CA        14.2960   96.3080   11.6840 C.3    87  ASP87       0.1709
    106  C         14.1870   96.9110   10.2920 C.2    87  ASP87       0.2293
    107  O         14.6770   98.0060   10.0270 O.2    87  ASP87      -0.2864
    108  CB        15.5360   95.4150   11.7450 C.3    87  ASP87       0.1436
    109  CG        15.7600   94.8610   13.1350 C.2    87  ASP87       0.3671
    110  OD1       16.1090   95.6860   14.0510 O.co2  87  ASP87      -0.2456
    111  OD2       15.5000   93.6540   13.3640 O.co2  87  ASP87      -0.2456
    112  N         11.7840   98.1330    8.5530 N.3    89  VAL89      -0.1231
    113  CA        10.9420   99.3190    8.3650 C.3    89  VAL89       0.1692
    114  C         11.3940  100.5160    9.2130 C.2    89  VAL89       0.2591
    115  O         10.9690  101.6510    8.9550 O.2    89  VAL89      -0.2718
    116  CB         9.4470   99.1070    8.5950 C.3    89  VAL89       0.0266
    117  CG1        8.9150   98.0830    7.5540 C.3    89  VAL89       0.0020
    118  CG2        9.0980   98.6930    9.9880 C.3    89  VAL89       0.0020
    119  N         12.3120  100.2790   10.1610 N.am   90  GLN90      -0.1979
    120  CA        12.7190  101.4190   11.0300 C.3    90  GLN90       0.1601
    121  C         13.2510  102.5940   10.2640 C.2    90  GLN90       0.2287
    122  O         12.9210  103.7260   10.6460 O.2    90  GLN90      -0.2864
    123  CB        13.7070  100.9690   12.0510 C.3    90  GLN90       0.0394
    124  CG        13.1890   99.9530   13.0270 C.3    90  GLN90       0.0908
    125  CD        14.2400   99.5580   14.0720 C.2    90  GLN90       0.2608
    126  OE1       15.3470  100.1020   14.1060 O.2    90  GLN90      -0.2717
    127  NE2       13.9110   98.5070   14.8710 N.am   90  GLN90      -0.0878
    128  N         10.3340  104.8780    8.8510 N.3    93  ILE93      -0.1245
    129  CA         9.4770  105.3500    9.8710 C.3    93  ILE93       0.1561
    130  C         10.2540  106.3730   10.7470 C.2    93  ILE93       0.2260
    131  O          9.7420  107.4340   11.1150 O.2    93  ILE93      -0.2867
    132  CB         8.9010  104.1920   10.6990 C.3    93  ILE93       0.0252
    133  CG1        7.9250  103.3980    9.8030 C.3    93  ILE93       0.0019
    134  CG2        8.1340  104.7550   11.8480 C.3    93  ILE93       0.0019
    135  CD1        7.3840  102.1790   10.4430 C.3    93  ILE93       0.0001
    136  N          8.4900  109.9170   10.7010 N.3    97  GLN97      -0.1245
    137  CA         7.5730  110.0330   11.8170 C.3    97  GLN97       0.1566
    138  C          8.2480  110.3470   13.1630 C.2    97  GLN97       0.2260
    139  O          7.5710  110.8210   14.0820 O.2    97  GLN97      -0.2867
    140  CB         6.6900  108.8310   11.9770 C.3    97  GLN97       0.0367
    141  CG         5.8960  108.5160   10.7260 C.3    97  GLN97       0.0905
    142  CD         5.0510  107.2770   10.8910 C.2    97  GLN97       0.2608
    143  OE1        5.1650  106.3160   10.0650 O.2    97  GLN97      -0.2717
    144  NE2        4.2610  107.2280   11.9040 N.am   97  GLN97      -0.0878
    145  N         16.9780  101.2800   21.1120 N.3   110  PHE110     -0.1227
    146  CA        16.7510  100.1290   20.1790 C.3   110  PHE110      0.1736
    147  C         16.8830   98.8770   21.0310 C.2   110  PHE110      0.2596
    148  O         17.5070   98.9050   22.1340 O.2   110  PHE110     -0.2718
    149  CB        17.7670  100.0550   19.1050 C.3   110  PHE110      0.0547
    150  CG        17.7410  101.2210   18.1540 C.ar  110  PHE110     -0.0202
    151  CD1       18.4170  102.4090   18.4750 C.ar  110  PHE110     -0.0042
    152  CD2       17.0140  101.1630   17.0040 C.ar  110  PHE110     -0.0042
    153  CE1       18.4100  103.4780   17.5950 C.ar  110  PHE110     -0.0003
    154  CE2       16.9890  102.2240   16.1130 C.ar  110  PHE110     -0.0003
    155  CZ        17.6960  103.3750   16.3920 C.ar  110  PHE110     -0.0000
    156  N         16.3970   97.7430   20.5120 N.am  111  SER111     -0.1938
    157  CA        16.7090   96.4650   21.1220 C.3   111  SER111      0.2055
    158  C         17.5100   95.5450   20.2250 C.2   111  SER111      0.2643
    159  O         17.7040   94.3940   20.5790 O.2   111  SER111     -0.2714
    160  CB        15.5010   95.7480   21.6600 C.3   111  SER111      0.2130
    161  OG        14.9930   96.3780   22.8430 O.3   111  SER111     -0.2179
    162  N         18.0610   96.0870   19.1500 N.am  112  HIS112     -0.1973
    163  CA        19.0030   95.3830   18.2880 C.3   112  HIS112      0.1656
    164  C         19.7900   96.4930   17.6260 C.2   112  HIS112      0.2291
    165  O         19.1700   97.5010   17.1580 O.2   112  HIS112     -0.2864
    166  CB        18.2250   94.5990   17.2280 C.3   112  HIS112      0.0771
    167  CG        19.0720   93.7980   16.2920 C.ar  112  HIS112      0.0820
    168  ND1       20.2840   93.1740   16.6360 N.ar  112  HIS112     -0.2267
    169  CD2       18.8580   93.5100   14.9770 C.ar  112  HIS112      0.1154
    170  CE1       20.7130   92.4810   15.5770 C.ar  112  HIS112      0.1986
    171  NE2       19.8570   92.6690   14.5700 N.ar  112  HIS112     -0.2212
    172  N         17.4670   92.3140   24.6360 N.3   134  PRO134     -0.2116
    173  CA        17.2550   91.1130   25.4230 C.3   134  PRO134      0.1372
    174  C         17.7060   89.9250   24.5840 C.2   134  PRO134      0.2244
    175  O         17.3700   89.8840   23.4130 O.2   134  PRO134     -0.2868
    176  CB        15.7170   91.0930   25.6610 C.3   134  PRO134      0.0268
    177  CG        15.1770   91.8310   24.4750 C.3   134  PRO134      0.0207
    178  CD        16.2250   92.7490   23.9690 C.3   134  PRO134      0.0892
    179  N         16.4430   87.0250   24.1490 N.3   136  ALA136     -0.1231
    180  CA        15.2310   86.2960   24.3870 C.3   136  ALA136      0.1679
    181  C         14.1450   86.6980   23.4030 C.2   136  ALA136      0.2434
    182  O         13.9990   87.8760   23.0600 O.2   136  ALA136     -0.2733
    183  CB        14.7020   86.5530   25.7650 C.3   136  ALA136      0.0304
    184  N         13.3620   85.7000   22.9480 N.am  137  PRO137     -0.2718
    185  CA        12.1190   86.0540   22.2880 C.3   137  PRO137      0.1535
    186  C         11.1100   86.7630   23.2590 C.2   137  PRO137      0.2599
    187  O         11.0120   86.4340   24.4390 O.2   137  PRO137     -0.2715
    188  CB        11.5680   84.7110   21.7860 C.3   137  PRO137      0.0310
    189  CG        12.1270   83.7340   22.7590 C.3   137  PRO137      0.0237
    190  CD        13.4590   84.2670   23.2050 C.3   137  PRO137      0.0939
    191  N         10.3210   87.6630   22.7170 N.am  138  GLY138     -0.1955
    192  CA         9.5700   88.5460   23.5800 C.3   138  GLY138      0.1869
    193  C          8.5280   87.8560   24.4720 C.2   138  GLY138      0.2309
    194  O          8.3200   88.2710   25.6100 O.2   138  GLY138     -0.2863
    195  N         26.8110   93.6920   19.7270 N.3   191  GLU191     -0.1245
    196  CA        25.4710   93.1210   19.7980 C.3   191  GLU191      0.1567
    197  C         24.9650   92.7070   18.4490 C.2   191  GLU191      0.2260
    198  O         24.4860   91.5830   18.3010 O.2   191  GLU191     -0.2867
    199  CB        24.4550   94.0550   20.4170 C.3   191  GLU191      0.0388
    200  CG        23.1590   93.3200   20.7830 C.3   191  GLU191      0.1160
    201  CD        22.1070   93.1800   19.6520 C.2   191  GLU191      0.3649
    202  OE1       22.1810   93.9150   18.6580 O.co2 191  GLU191     -0.2457
    203  OE2       21.2660   92.3020   19.8700 O.co2 191  GLU191     -0.2457
    204  N         24.3660   88.7350   17.6710 N.3   195  ASP195     -0.1239
    205  CA        22.9030   88.4650   17.6110 C.3   195  ASP195      0.1674
    206  C         22.5370   87.8150   16.2720 C.2   195  ASP195      0.2266
    207  O         21.8590   86.8090   16.2360 O.2   195  ASP195     -0.2867
    208  CB        22.1240   89.7460   17.8030 C.3   195  ASP195      0.1410
    209  CG        20.6270   89.4790   17.9230 C.2   195  ASP195      0.3668
    210  OD1       20.2140   89.0170   19.0050 O.co2 195  ASP195     -0.2456
    211  OD2       19.9520   89.6470   16.8780 O.co2 195  ASP195     -0.2456
@<TRIPOS>BOND
     1    45    46    2
     2    45    44    1
     3   117   116    1
     4    44    43    1
     5    44    47    1
     6   113   112    1
     7   113   116    1
     8   113   114    1
     9   116   118    1
    10   128   129    1
    11   115   114    2
    12    50    48    1
    13    47    48    1
    14   114   119   am
    15   133   135    1
    16   133   132    1
    17   129   132    1
    18   129   130    1
    19    48    49    1
    20   107   106    2
    21   143   142    2
    22   119   120    1
    23   121   122    2
    24   121   120    1
    25   106   105    1
    26   132   134    1
    27   136   137    1
    28   141   142    1
    29   141   140    1
    30   130   131    2
    31   142   144   am
    32    42    40    1
    33   120   123    1
    34   101   102    1
    35   101    98    1
    36   100    99    2
    37   105   108    1
    38   105   104    1
    39   108   109    1
    40   137   140    1
    41   137   138    1
    42   102   103    1
    43    99   104   am
    44    99    98    1
    45   123   124    1
    46    40    41    1
    47    40    37    1
    48    51    52    1
    49    98    97    1
    50   103    97    1
    51    52    55    1
    52    52    53    1
    53    55    56    1
    54   124   125    1
    55   109   111   ar
    56   109   110   ar
    57   138   139    2
    58    97    91   am
    59    38    39    2
    60    38    37    1
    61    37    36    1
    62    56    57    2
    63    56    58   am
    64   125   126    2
    65   125   127   am
    66    95    94    1
    67    53    54    2
    68    72    70    1
    69    93    94    1
    70    93    90    1
    71    91    92    2
    72    91    90    1
    73    96    94    1
    74   171   169   ar
    75   171   170   ar
    76    36    29   am
    77   169   167   ar
    78    90    89    1
    79    69    70    1
    80    69    71    1
    81    69    66    1
    82    34    33   ar
    83    30    29    2
    84   170   168   ar
    85    29    28    1
    86    65    66    1
    87    79    77    1
    88   154   155   ar
    89   154   152   ar
    90   207   206    2
    91    66    67    1
    92   206   205    1
    93   167   168   ar
    94   167   166    1
    95    89    83   am
    96   155   153   ar
    97    67    68    2
    98    80    78    1
    99    64    63    1
   100    33    35   ar
   101    33    32    1
   102    59    60    1
   103    28    31    1
   104    28    27    1
   105   211   209   ar
   106    63    60    1
   107   152   150   ar
   108   165   164    2
   109   166   163    1
   110    78    77    1
   111    77    74    1
   112    83    84    2
   113    83    82    1
   114    31    32    1
   115    60    61    1
   116   153   151   ar
   117   205   204    1
   118   205   208    1
   119   164   163    1
   120   208   209    1
   121     2     1    1
   122     2     3    1
   123   209   210   ar
   124   150   151   ar
   125   150   149    1
   126    61    62    2
   127   163   162    1
   128   198   197    2
   129   197   196    1
   130    74    75    1
   131    74    73    1
   132    75    76    2
   133    75    81   am
   134    82    81    1
   135    82    85    1
   136     6     5    1
   137     6     7    1
   138   202   201   ar
   139     3     4    2
   140   149   146    1
   141   162   158   am
   142     9     7   am
   143     9    10    1
   144    13    10    1
   145   201   203   ar
   146   201   200    1
   147     7     8    2
   148   195   196    1
   149   196   199    1
   150    85    86    1
   151   146   147    1
   152   146   145    1
   153   158   159    2
   154   158   157    1
   155    10    11    1
   156   199   200    1
   157   156   147   am
   158   156   157    1
   159    88    86    1
   160    14    11   am
   161    14    15    1
   162   147   148    2
   163   157   160    1
   164    86    87    1
   165    19    18    1
   166    19    20    1
   167    18    15    1
   168    11    12    2
   169   160   161    1
   170   188   185    1
   171   188   189    1
   172    23    24    1
   173    23    16   am
   174    15    16    1
   175   185   184    1
   176   185   186    1
   177    24    25    1
   178    20    21    2
   179    20    22   am
   180    16    17    2
   181   191   186   am
   182   191   192    1
   183   189   190    1
   184   184   190    1
   185   184   181   am
   186   182   181    2
   187   186   187    2
   188    25    26    2
   189   181   180    1
   190   175   174    2
   191   192   193    1
   192   178   177    1
   193   178   172    1
   194   179   180    1
   195   180   183    1
   196   193   194    2
   197   177   176    1
   198   174   173    1
   199   172   173    1
   200   173   176    1
