@<TRIPOS>MOLECULE
tmp/4xe0A00.pdb
 205 197 0 0 0
SMALL
GASTEIGER

@<TRIPOS>ATOM
      1  N         -1.3690  -20.0530    7.9390 N.3   508  LYS508     -0.1245
      2  CA        -1.2160  -18.8880    8.8040 C.3   508  LYS508      0.1561
      3  C          0.1810  -18.2520    8.7110 C.2   508  LYS508      0.2260
      4  O          0.2710  -17.0330    8.5900 O.2   508  LYS508     -0.2867
      5  CB        -1.5340  -19.2140   10.2730 C.3   508  LYS508      0.0271
      6  CG        -1.4590  -17.9620   11.1570 C.3   508  LYS508      0.0035
      7  CD        -1.4620  -18.2380   12.6350 C.3   508  LYS508      0.0206
      8  CE        -1.3900  -16.9130   13.3920 C.3   508  LYS508      0.1093
      9  NZ        -1.6750  -17.0450   14.8500 N.3   508  LYS508     -0.1314
     10  N          0.6570   -9.8690   14.5800 N.3   550  THR550     -0.1203
     11  CA         0.0900  -11.0880   14.0100 C.3   550  THR550      0.1994
     12  C         -1.4310  -10.9730   14.0470 C.2   550  THR550      0.2618
     13  O         -1.9800   -9.8780   14.1510 O.2   550  THR550     -0.2717
     14  CB         0.5930  -12.3970   14.7630 C.3   550  THR550      0.1784
     15  OG1       -0.1560  -13.5390   14.3330 O.3   550  THR550     -0.2211
     16  CG2        0.4730  -12.2710   16.2830 C.3   550  THR550      0.0376
     17  N         -2.1000  -12.1030   13.9390 N.am  551  PHE551     -0.1961
     18  CA        -3.5380  -12.1640   13.9680 C.3   551  PHE551      0.1771
     19  C         -3.9580  -13.4830   14.5600 C.2   551  PHE551      0.2619
     20  O         -3.2100  -14.4360   14.5570 O.2   551  PHE551     -0.2715
     21  CB        -4.1400  -12.0140   12.5750 C.3   551  PHE551      0.0574
     22  CG        -3.8790  -13.1920   11.6490 C.ar  551  PHE551     -0.0200
     23  CD1       -2.6590  -13.3300   10.9900 C.ar  551  PHE551     -0.0042
     24  CD2       -4.8650  -14.1390   11.4090 C.ar  551  PHE551     -0.0042
     25  CE1       -2.4280  -14.3910   10.1330 C.ar  551  PHE551     -0.0003
     26  CE2       -4.6250  -15.2010   10.5470 C.ar  551  PHE551     -0.0003
     27  CZ        -3.4020  -15.3220    9.9160 C.ar  551  PHE551     -0.0000
     28  N         -5.1790  -13.5260   15.0500 N.am  552  MET552     -0.1977
     29  CA        -5.7630  -14.7570   15.5360 C.3   552  MET552      0.1605
     30  C         -6.4740  -15.4480   14.3830 C.2   552  MET552      0.2287
     31  O         -7.3190  -14.8440   13.7300 O.2   552  MET552     -0.2864
     32  CB        -6.7310  -14.4570   16.6830 C.3   552  MET552      0.0413
     33  CG        -7.3690  -15.6640   17.2920 C.3   552  MET552      0.0598
     34  SD        -8.1210  -15.2110   18.8630 S.3   552  MET552     -0.1393
     35  CE        -6.7530  -15.5290   19.9610 C.3   552  MET552      0.0692
     36  N        -12.3770  -17.0050   13.4970 N.3   555  LYS555     -0.1245
     37  CA       -13.5560  -16.2230   13.1140 C.3   555  LYS555      0.1561
     38  C        -13.2980  -14.8790   12.4270 C.2   555  LYS555      0.2260
     39  O        -13.1530  -14.8090   11.2050 O.2   555  LYS555     -0.2867
     40  CB       -14.4020  -15.9760   14.3580 C.3   555  LYS555      0.0271
     41  CG       -14.1030  -16.9240   15.5270 C.3   555  LYS555      0.0035
     42  CD       -14.1170  -16.1440   16.8330 C.3   555  LYS555      0.0206
     43  CE       -13.3180  -16.8280   17.9290 C.3   555  LYS555      0.1093
     44  NZ       -13.1940  -15.9470   19.1290 N.3   555  LYS555     -0.1314
     45  N         -9.0420  -11.1840   14.3440 N.3   558  PRO558     -0.2102
     46  CA        -8.5980   -9.9040   14.8910 C.3   558  PRO558      0.1504
     47  C         -7.0810   -9.7230   14.8060 C.2   558  PRO558      0.2576
     48  O         -6.3260  -10.7020   14.9220 O.2   558  PRO558     -0.2718
     49  CB        -9.0660   -9.9730   16.3490 C.3   558  PRO558      0.0282
     50  CG        -9.1980  -11.4450   16.6400 C.3   558  PRO558      0.0208
     51  CD        -9.6460  -12.0510   15.3660 C.3   558  PRO558      0.0893
     52  N         -6.6520   -8.4770   14.6030 N.am  559  LEU559     -0.1966
     53  CA        -5.2360   -8.1460   14.5100 C.3   559  LEU559      0.1728
     54  C         -4.6190   -7.8850   15.8760 C.2   559  LEU559      0.2616
     55  O         -5.2750   -7.3480   16.7800 O.2   559  LEU559     -0.2715
     56  CB        -5.0270   -6.9220   13.6190 C.3   559  LEU559      0.0311
     57  CG        -5.6260   -7.1290   12.2360 C.3   559  LEU559      0.0022
     58  CD1       -5.4040   -5.9040   11.3420 C.3   559  LEU559      0.0001
     59  CD2       -5.0790   -8.4230   11.6240 C.3   559  LEU559      0.0001
     60  N         -3.3490   -8.2600   15.9940 N.am  560  TRP560     -0.1974
     61  CA        -2.5300   -8.0280   17.1690 C.3   560  TRP560      0.1640
     62  C         -1.3860   -7.1050   16.7650 C.2   560  TRP560      0.2290
     63  O         -0.4460   -7.5400   16.0720 O.2   560  TRP560     -0.2864
     64  CB        -2.0020   -9.3580   17.7200 C.3   560  TRP560      0.0576
     65  CG        -1.0480   -9.2770   18.8880 C.ar  560  TRP560      0.0006
     66  CD1        0.2330   -8.8020   18.8810 C.ar  560  TRP560      0.0946
     67  CD2       -1.2820   -9.7580   20.2190 C.ar  560  TRP560      0.0152
     68  NE1        0.7890   -8.9070   20.1340 N.ar  560  TRP560     -0.2442
     69  CE2       -0.1130   -9.5080   20.9680 C.ar  560  TRP560      0.0810
     70  CE3       -2.3680  -10.3750   20.8510 C.ar  560  TRP560      0.0012
     71  CZ2       -0.0000   -9.8500   22.3070 C.ar  560  TRP560      0.0191
     72  CZ3       -2.2510  -10.7170   22.1920 C.ar  560  TRP560      0.0001
     73  CH2       -1.0750  -10.4540   22.9040 C.ar  560  TRP560      0.0015
     74  N         -5.4490   -4.4940   19.9820 N.3   577  ILE577     -0.1245
     75  CA        -6.1100   -5.5480   19.2500 C.3   577  ILE577      0.1561
     76  C         -7.2030   -4.9100   18.4560 C.2   577  ILE577      0.2260
     77  O         -8.0220   -4.1830   18.9920 O.2   577  ILE577     -0.2867
     78  CB        -6.7080   -6.6430   20.1890 C.3   577  ILE577      0.0252
     79  CG1       -5.5920   -7.4630   20.8490 C.3   577  ILE577      0.0019
     80  CG2       -7.6290   -7.5330   19.4240 C.3   577  ILE577      0.0019
     81  CD1       -6.0650   -8.3820   21.9530 C.3   577  ILE577      0.0001
     82  N        -10.4640   -5.4700   15.9560 N.3   579  LYS579     -0.1245
     83  CA       -11.4720   -6.4690   15.6350 C.3   579  LYS579      0.1561
     84  C        -12.5790   -5.8710   14.7950 C.2   579  LYS579      0.2260
     85  O        -13.1680   -4.8610   15.1730 O.2   579  LYS579     -0.2867
     86  CB       -12.0960   -7.0550   16.8950 C.3   579  LYS579      0.0271
     87  CG       -11.1530   -7.3200   18.0400 C.3   579  LYS579      0.0035
     88  CD       -11.8810   -8.0960   19.1430 C.3   579  LYS579      0.0206
     89  CE       -12.6230   -9.3130   18.5950 C.3   579  LYS579      0.1093
     90  NZ       -13.2470  -10.1020   19.6770 N.3   579  LYS579     -0.1314
     91  N         -9.2000   -3.9720   31.3180 N.3   613  TYR613     -0.1241
     92  CA        -8.5590   -3.5490   30.0690 C.3   613  TYR613      0.1605
     93  C         -9.4750   -2.6760   29.1860 C.2   613  TYR613      0.2264
     94  O        -10.6970   -2.8460   29.1650 O.2   613  TYR613     -0.2867
     95  CB        -8.0770   -4.8000   29.2710 C.3   613  TYR613      0.0534
     96  CG        -9.1850   -5.7640   28.8150 C.ar  613  TYR613     -0.0201
     97  CD1       -9.9450   -5.4980   27.6710 C.ar  613  TYR613     -0.0009
     98  CD2       -9.4480   -6.9570   29.5100 C.ar  613  TYR613     -0.0009
     99  CE1      -10.9500   -6.3750   27.2370 C.ar  613  TYR613      0.0417
    100  CE2      -10.4560   -7.8530   29.0810 C.ar  613  TYR613      0.0417
    101  CZ       -11.2140   -7.5510   27.9450 C.ar  613  TYR613      0.1957
    102  OH       -12.2320   -8.4030   27.5090 O.3   613  TYR613     -0.2866
    103  N         -9.2100   -3.2750   21.4220 N.3   625  ILE625     -0.1231
    104  CA        -9.1510   -3.8780   22.7380 C.3   625  ILE625      0.1692
    105  C         -7.7040   -3.7680   23.2090 C.2   625  ILE625      0.2592
    106  O         -6.7600   -3.9080   22.4220 O.2   625  ILE625     -0.2718
    107  CB        -9.6190   -5.3360   22.6970 C.3   625  ILE625      0.0266
    108  CG1      -11.0600   -5.4330   22.1840 C.3   625  ILE625      0.0019
    109  CG2       -9.5140   -6.0010   24.0510 C.3   625  ILE625      0.0020
    110  CD1      -11.6230   -6.8160   22.2380 C.3   625  ILE625      0.0001
    111  N         -7.5160   -3.5090   24.4930 N.am  626  GLU626     -0.1966
    112  CA        -6.1800   -3.2850   24.9980 C.3   626  GLU626      0.1733
    113  C         -5.4560   -4.6040   25.2310 C.2   626  GLU626      0.2616
    114  O         -5.9960   -5.4950   25.8810 O.2   626  GLU626     -0.2715
    115  CB        -6.2480   -2.4750   26.2870 C.3   626  GLU626      0.0429
    116  CG        -4.8970   -2.0510   26.8280 C.3   626  GLU626      0.1163
    117  CD        -4.9980   -1.5740   28.2530 C.2   626  GLU626      0.3649
    118  OE1       -6.1280   -1.4310   28.7450 O.co2 626  GLU626     -0.2457
    119  OE2       -3.9560   -1.3410   28.8810 O.co2 626  GLU626     -0.2457
    120  N         -4.2410   -4.7220   24.7080 N.am  627  VAL627     -0.1963
    121  CA        -3.4570   -5.9250   24.9210 C.3   627  VAL627      0.1727
    122  C         -2.9160   -5.9790   26.3260 C.2   627  VAL627      0.2616
    123  O         -2.1940   -5.0900   26.7560 O.2   627  VAL627     -0.2715
    124  CB        -2.2520   -6.0590   23.9510 C.3   627  VAL627      0.0290
    125  CG1       -1.3270   -7.1540   24.4350 C.3   627  VAL627      0.0023
    126  CG2       -2.7190   -6.3850   22.5580 C.3   627  VAL627      0.0023
    127  N         -3.2770   -7.0390   27.0270 N.am  628  VAL628     -0.1977
    128  CA        -2.6840   -7.3520   28.3070 C.3   628  VAL628      0.1596
    129  C         -1.5610   -8.3840   28.1540 C.2   628  VAL628      0.2287
    130  O         -1.8120   -9.5960   28.0250 O.2   628  VAL628     -0.2864
    131  CB        -3.7310   -7.8730   29.2800 C.3   628  VAL628      0.0276
    132  CG1       -3.0780   -8.1750   30.6230 C.3   628  VAL628      0.0022
    133  CG2       -4.8370   -6.8520   29.4250 C.3   628  VAL628      0.0022
    134  N          0.2630  -12.5950   29.5450 N.3   631  SER631     -0.1202
    135  CA        -0.8710  -13.3530   29.9890 C.3   631  SER631      0.2020
    136  C         -1.1180  -14.4230   28.9640 C.2   631  SER631      0.2619
    137  O         -0.6310  -14.3420   27.8280 O.2   631  SER631     -0.2717
    138  CB        -2.1020  -12.4670   30.2000 C.3   631  SER631      0.2103
    139  OG        -2.6420  -11.9800   28.9950 O.3   631  SER631     -0.2182
    140  N         -1.8490  -15.4430   29.3960 N.am  632  ASP632     -0.1959
    141  CA        -2.1390  -16.6020   28.5770 C.3   632  ASP632      0.1840
    142  C         -3.5190  -17.0910   28.9580 C.2   632  ASP632      0.2622
    143  O         -4.0390  -16.7900   30.0520 O.2   632  ASP632     -0.2715
    144  CB        -1.0900  -17.6990   28.7870 C.3   632  ASP632      0.1450
    145  CG        -1.0470  -18.6960   27.6560 C.2   632  ASP632      0.3671
    146  OD1       -1.8660  -18.6160   26.7200 O.co2 632  ASP632     -0.2456
    147  OD2       -0.1800  -19.5810   27.7020 O.co2 632  ASP632     -0.2456
    148  N         -4.1270  -17.8300   28.0490 N.am  633  THR633     -0.1951
    149  CA        -5.4580  -18.3530   28.2920 C.3   633  THR633      0.1897
    150  C         -5.3650  -19.5840   29.1800 C.2   633  THR633      0.2313
    151  O         -4.4160  -20.3590   29.0840 O.2   633  THR633     -0.2863
    152  CB        -6.1740  -18.6900   26.9750 C.3   633  THR633      0.1794
    153  OG1       -5.2690  -19.3900   26.1130 O.3   633  THR633     -0.2208
    154  CG2       -6.6170  -17.3920   26.2780 C.3   633  THR633      0.0378
    155  N         -5.0240  -22.6210   27.0420 N.3   636  ASN636     -0.1240
    156  CA        -3.6510  -22.9010   26.6150 C.3   636  ASN636      0.1653
    157  C         -2.8440  -23.5610   27.7120 C.2   636  ASN636      0.2266
    158  O         -2.1130  -24.5200   27.4760 O.2   636  ASN636     -0.2867
    159  CB        -2.9410  -21.6220   26.1670 C.3   636  ASN636      0.1155
    160  CG        -3.2240  -21.2800   24.7300 C.2   636  ASN636      0.2627
    161  OD1       -3.7640  -22.0990   23.9870 O.2   636  ASN636     -0.2716
    162  ND2       -2.8450  -20.0750   24.3160 N.am  636  ASN636     -0.0877
    163  N        -11.4950  -20.6880   27.3690 N.3   697  ASP697     -0.1239
    164  CA       -11.0540  -19.8260   26.2700 C.3   697  ASP697      0.1674
    165  C        -11.3390  -18.3000   26.4380 C.2   697  ASP697      0.2266
    166  O        -10.7830  -17.4750   25.6950 O.2   697  ASP697     -0.2867
    167  CB       -11.6910  -20.2990   24.9680 C.3   697  ASP697      0.1410
    168  CG       -10.9060  -21.4110   24.3060 C.2   697  ASP697      0.3668
    169  OD1       -9.7060  -21.2270   24.0600 O.co2 697  ASP697     -0.2456
    170  OD2      -11.4940  -22.4680   24.0160 O.co2 697  ASP697     -0.2456
    171  N         -8.5060  -15.4990   31.1270 N.3   700  MET700     -0.1245
    172  CA        -7.0590  -15.4660   31.0070 C.3   700  MET700      0.1570
    173  C         -6.4240  -15.2300   32.3490 C.2   700  MET700      0.2261
    174  O         -7.0940  -14.8720   33.3070 O.2   700  MET700     -0.2867
    175  CB        -6.6020  -14.3770   30.0290 C.3   700  MET700      0.0387
    176  CG        -7.2240  -14.4890   28.6700 C.3   700  MET700      0.0595
    177  SD        -6.5490  -13.2970   27.5140 S.3   700  MET700     -0.1393
    178  CE        -4.8170  -13.7300   27.4150 C.3   700  MET700      0.0692
    179  N         -8.4150  -12.7950   34.8010 N.3   708  PHE708     -0.1241
    180  CA        -9.3970  -11.8700   34.2750 C.3   708  PHE708      0.1605
    181  C        -10.1230  -12.4630   33.0950 C.2   708  PHE708      0.2264
    182  O         -9.5780  -13.2910   32.3610 O.2   708  PHE708     -0.2867
    183  CB        -8.7480  -10.5370   33.8920 C.3   708  PHE708      0.0534
    184  CG        -7.8110  -10.6160   32.7090 C.ar  708  PHE708     -0.0203
    185  CD1       -6.4900  -11.0370   32.8710 C.ar  708  PHE708     -0.0042
    186  CD2       -8.2280  -10.2300   31.4440 C.ar  708  PHE708     -0.0042
    187  CE1       -5.6020  -11.0980   31.7870 C.ar  708  PHE708     -0.0003
    188  CE2       -7.3350  -10.2740   30.3590 C.ar  708  PHE708     -0.0003
    189  CZ        -6.0120  -10.7100   30.5450 C.ar  708  PHE708     -0.0000
    190  N        -12.4640  -12.2580   29.4760 N.3   710  ILE710     -0.1231
    191  CA       -12.5130  -11.5130   28.2310 C.3   710  ILE710      0.1692
    192  C        -13.7560  -11.9010   27.4410 C.2   710  ILE710      0.2592
    193  O        -14.5020  -12.7680   27.8670 O.2   710  ILE710     -0.2718
    194  CB       -11.2510  -11.7420   27.3680 C.3   710  ILE710      0.0266
    195  CG1      -11.2180  -13.1780   26.8130 C.3   710  ILE710      0.0019
    196  CG2       -9.9680  -11.3660   28.1390 C.3   710  ILE710      0.0020
    197  CD1      -10.0270  -13.4900   25.9400 C.3   710  ILE710      0.0001
    198  N        -13.9720  -11.2350   26.3100 N.am  711  ASP711     -0.1974
    199  CA       -15.0400  -11.5690   25.3570 C.3   711  ASP711      0.1709
    200  C        -16.3570  -11.9320   26.0430 C.2   711  ASP711      0.2293
    201  O        -16.8100  -13.0770   25.9980 O.2   711  ASP711     -0.2864
    202  CB       -14.5520  -12.6960   24.4400 C.3   711  ASP711      0.1436
    203  CG       -13.2790  -12.3100   23.6960 C.2   711  ASP711      0.3671
    204  OD1      -12.9940  -11.0860   23.6010 O.co2 711  ASP711     -0.2456
    205  OD2      -12.5540  -13.2070   23.2040 O.co2 711  ASP711     -0.2456
@<TRIPOS>BOND
     1     1     2    1
     2     4     3    2
     3     3     2    1
     4     2     5    1
     5    27    25   ar
     6    27    26   ar
     7    25    23   ar
     8     5     6    1
     9    26    24   ar
    10    23    22   ar
    11     6     7    1
    12    39    38    2
    13    58    57    1
    14    24    22   ar
    15    59    57    1
    16    22    21    1
    17    57    56    1
    18    38    37    1
    19    21    18    1
    20     7     8    1
    21    37    36    1
    22    37    40    1
    23     8     9    1
    24    56    53    1
    25    31    30    2
    26    17    18    1
    27    17    12   am
    28    18    19    1
    29    11    12    1
    30    11    10    1
    31    11    14    1
    32    12    13    2
    33    15    14    1
    34    45    46    1
    35    45    51    1
    36    40    41    1
    37    30    29    1
    38    53    52    1
    39    53    54    1
    40    20    19    2
    41    19    28   am
    42    52    47   am
    43    14    16    1
    44    84    85    2
    45    84    83    1
    46    47    46    1
    47    47    48    2
    48    46    49    1
    49    28    29    1
    50    51    50    1
    51    41    42    1
    52    29    32    1
    53    83    82    1
    54    83    86    1
    55    54    60   am
    56    54    55    2
    57    60    61    1
    58    63    62    2
    59    49    50    1
    60    32    33    1
    61    62    61    1
    62    42    43    1
    63    86    87    1
    64    61    64    1
    65    33    34    1
    66    64    65    1
    67    43    44    1
    68    87    88    1
    69    76    77    2
    70    76    75    1
    71    89    88    1
    72    89    90    1
    73    34    35    1
    74    66    65   ar
    75    66    68   ar
    76    65    67   ar
    77    75    74    1
    78    75    78    1
    79    80    78    1
    80    68    69   ar
    81    78    79    1
    82    67    70   ar
    83    67    69   ar
    84    79    81    1
    85    70    72   ar
    86    69    71   ar
    87   103   104    1
    88   108   110    1
    89   108   107    1
    90    72    73   ar
    91    71    73   ar
    92   106   105    2
    93   126   124    1
    94   107   104    1
    95   107   109    1
    96   104   105    1
    97   205   203   ar
    98   105   111   am
    99   204   203   ar
   100   203   202    1
   101   124   125    1
   102   124   121    1
   103   161   160    2
   104   170   168   ar
   105   169   168   ar
   106   168   167    1
   107   162   160   am
   108   202   199    1
   109   111   112    1
   110   120   121    1
   111   120   113   am
   112   160   159    1
   113   121   122    1
   114   167   164    1
   115   112   113    1
   116   112   115    1
   117   113   114    2
   118   199   200    1
   119   199   198    1
   120   166   165    2
   121   197   195    1
   122   201   200    2
   123   153   152    1
   124   159   156    1
   125   164   165    1
   126   164   163    1
   127   154   152    1
   128   115   116    1
   129   198   192   am
   130   122   123    2
   131   122   127   am
   132   156   155    1
   133   156   157    1
   134   146   145   ar
   135   195   194    1
   136   116   117    1
   137   152   149    1
   138   127   128    1
   139    99    97   ar
   140    99   101   ar
   141   194   196    1
   142   194   191    1
   143   178   177    1
   144   192   193    2
   145   192   191    1
   146   158   157    2
   147   102   101    1
   148   177   176    1
   149   145   147   ar
   150   145   144    1
   151    97    96   ar
   152   137   136    2
   153   101   100   ar
   154   130   129    2
   155   148   149    1
   156   148   142   am
   157   129   128    1
   158   191   190    1
   159   117   118   ar
   160   117   119   ar
   161   149   150    1
   162   128   131    1
   163   141   144    1
   164   141   142    1
   165   141   140    1
   166   176   175    1
   167    96    95    1
   168    96    98   ar
   169   142   143    2
   170   136   140   am
   171   136   135    1
   172   139   138    1
   173   100    98   ar
   174   151   150    2
   175    94    93    2
   176    93    92    1
   177    95    92    1
   178   131   133    1
   179   131   132    1
   180   134   135    1
   181   135   138    1
   182   175   172    1
   183    92    91    1
   184   188   189   ar
   185   188   186   ar
   186   189   187   ar
   187   172   171    1
   188   172   173    1
   189   186   184   ar
   190   187   185   ar
   191   173   174    2
   192   182   181    2
   193   184   185   ar
   194   184   183    1
   195   181   180    1
   196   183   180    1
   197   180   179    1
