@<TRIPOS>MOLECULE
tmp/4xe1A01.pdb
 130 128 0 0 0
SMALL
GASTEIGER

@<TRIPOS>ATOM
      1  N        -13.9530    8.1370   12.6010 N.3    89  ILE89      -0.1231
      2  CA       -13.1120    8.5540   11.4890 C.3    89  ILE89       0.1692
      3  C        -12.7580    7.4020   10.5580 C.2    89  ILE89       0.2591
      4  O        -12.6020    7.6040    9.3500 O.2    89  ILE89      -0.2718
      5  CB       -11.8240    9.2720   11.9940 C.3    89  ILE89       0.0266
      6  CG1      -10.9640    9.6870   10.8010 C.3    89  ILE89       0.0019
      7  CG2      -11.0550    8.3780   12.9660 C.3    89  ILE89       0.0020
      8  CD1       -9.8600   10.6950   11.1720 C.3    89  ILE89       0.0001
      9  N        -12.6460    6.1880   11.1020 N.am   90  GLN90      -0.1979
     10  CA       -12.3300    5.0290   10.2730 C.3    90  GLN90       0.1601
     11  C        -12.5050    3.7350   11.0430 C.2    90  GLN90       0.2287
     12  O        -12.6130    3.7550   12.2670 O.2    90  GLN90      -0.2864
     13  CB       -10.8710    5.0960    9.8000 C.3    90  GLN90       0.0394
     14  CG        -9.8310    5.1270   10.9620 C.3    90  GLN90       0.0908
     15  CD        -9.0440    3.8300   11.1200 C.2    90  GLN90       0.2608
     16  OE1       -9.5800    2.7400   10.9520 O.2    90  GLN90      -0.2717
     17  NE2       -7.7610    3.9510   11.4610 N.am   90  GLN90      -0.0878
     18  N        -11.2110   -0.6490   10.7970 N.3    92  HIS92      -0.1241
     19  CA       -10.3490   -1.6010   10.1320 C.3    92  HIS92       0.1621
     20  C        -10.3750   -2.8570   10.9700 C.2    92  HIS92       0.2264
     21  O        -11.0410   -2.8960   12.0100 O.2    92  HIS92      -0.2867
     22  CB        -8.9180   -1.0760   10.0630 C.3    92  HIS92       0.0745
     23  CG        -8.3380   -0.7690   11.4050 C.ar   92  HIS92       0.0817
     24  ND1       -8.5140    0.4260   12.0650 N.ar   92  HIS92      -0.2268
     25  CD2       -7.6220   -1.5560   12.2480 C.ar   92  HIS92       0.1154
     26  CE1       -7.9100    0.3240   13.2660 C.ar   92  HIS92       0.1986
     27  NE2       -7.3560   -0.8630   13.4150 N.ar   92  HIS92      -0.2212
     28  N         -8.0370   -6.6330   12.2730 N.3    94  HIS94      -0.1241
     29  CA        -6.7730   -7.3220   12.5010 C.3    94  HIS94       0.1621
     30  C         -7.2230   -8.7750   12.4000 C.2    94  HIS94       0.2264
     31  O         -8.2550   -9.1360   12.9470 O.2    94  HIS94      -0.2867
     32  CB        -6.2340   -7.0430   13.9030 C.3    94  HIS94       0.0745
     33  CG        -5.8680   -5.6130   14.1210 C.ar   94  HIS94       0.0817
     34  ND1       -4.6210   -5.0890   13.8600 N.ar   94  HIS94      -0.2268
     35  CD2       -6.6260   -4.5700   14.5390 C.ar   94  HIS94       0.1154
     36  CE1       -4.6640   -3.7730   14.1350 C.ar   94  HIS94       0.1986
     37  NE2       -5.8620   -3.4150   14.5500 N.ar   94  HIS94      -0.2212
     38  N        -11.9460   -2.6870   14.6770 N.3   117  HIS117     -0.1241
     39  CA       -11.6860   -1.4840   15.4480 C.3   117  HIS117      0.1621
     40  C        -12.3490   -0.2950   14.7720 C.2   117  HIS117      0.2264
     41  O        -12.0180    0.0280   13.6160 O.2   117  HIS117     -0.2867
     42  CB       -10.1650   -1.2400   15.5410 C.3   117  HIS117      0.0745
     43  CG        -9.4650   -2.1970   16.4540 C.ar  117  HIS117      0.0817
     44  ND1       -8.1040   -2.3820   16.4100 N.ar  117  HIS117     -0.2268
     45  CD2       -9.9960   -2.9950   17.4130 C.ar  117  HIS117      0.1154
     46  CE1       -7.8400   -3.2830   17.3340 C.ar  117  HIS117      0.1986
     47  NE2       -8.9530   -3.6860   17.9680 N.ar  117  HIS117     -0.2212
     48  N        -12.5600    3.4860   15.0590 N.3   119  VAL119     -0.1245
     49  CA       -11.7860    4.5680   15.6750 C.3   119  VAL119      0.1561
     50  C        -12.5410    5.8960   15.6970 C.2   119  VAL119      0.2260
     51  O        -13.0550    6.3240   14.6650 O.2   119  VAL119     -0.2867
     52  CB       -10.4490    4.7490   14.9120 C.3   119  VAL119      0.0252
     53  CG1       -9.5530    5.7580   15.6200 C.3   119  VAL119      0.0019
     54  CG2       -9.7510    3.4010   14.7750 C.3   119  VAL119      0.0019
     55  N         -8.7110   15.3900   14.6020 N.3   128  PHE128     -0.1241
     56  CA        -8.0050   14.1640   14.9640 C.3   128  PHE128      0.1605
     57  C         -6.5510   14.4390   15.3380 C.2   128  PHE128      0.2264
     58  O         -6.0320   13.8630   16.2910 O.2   128  PHE128     -0.2867
     59  CB        -8.0770   13.1750   13.7930 C.3   128  PHE128      0.0534
     60  CG        -7.2230   11.9530   13.9700 C.ar  128  PHE128     -0.0203
     61  CD1       -5.8960   11.9480   13.5630 C.ar  128  PHE128     -0.0042
     62  CD2       -7.7480   10.8040   14.5620 C.ar  128  PHE128     -0.0042
     63  CE1       -5.0970   10.8180   13.7370 C.ar  128  PHE128     -0.0003
     64  CE2       -6.9490    9.6680   14.7410 C.ar  128  PHE128     -0.0003
     65  CZ        -5.6260    9.6780   14.3260 C.ar  128  PHE128     -0.0000
     66  N         -8.8000    9.7000   22.0130 N.3   138  LEU138     -0.1245
     67  CA        -9.4650    8.7060   21.1710 C.3   138  LEU138      0.1561
     68  C        -10.2730    7.6730   21.9380 C.2   138  LEU138      0.2260
     69  O        -10.0420    7.4300   23.1230 O.2   138  LEU138     -0.2867
     70  CB        -8.4090    7.9490   20.3590 C.3   138  LEU138      0.0270
     71  CG        -7.4750    8.7100   19.4150 C.3   138  LEU138      0.0019
     72  CD1       -6.4370    7.7430   18.8740 C.3   138  LEU138      0.0001
     73  CD2       -8.2710    9.3420   18.2870 C.3   138  LEU138      0.0001
     74  N        -11.7250    3.7480   20.9060 N.3   140  VAL140     -0.1245
     75  CA       -11.8260    2.7230   19.8770 C.3   140  VAL140      0.1561
     76  C        -12.7860    1.6650   20.3790 C.2   140  VAL140      0.2260
     77  O        -12.6490    1.1710   21.5050 O.2   140  VAL140     -0.2867
     78  CB       -10.4730    2.0660   19.5690 C.3   140  VAL140      0.0252
     79  CG1      -10.6350    1.0660   18.3990 C.3   140  VAL140      0.0019
     80  CG2       -9.4490    3.1400   19.1860 C.3   140  VAL140      0.0019
     81  N         -2.7980    2.9520   20.9590 N.3   195  LEU195     -0.1231
     82  CA        -2.9930    2.4870   19.5940 C.3   195  LEU195      0.1693
     83  C         -2.2310    1.1680   19.6430 C.2   195  LEU195      0.2593
     84  O         -1.2200    1.0700   20.3480 O.2   195  LEU195     -0.2718
     85  CB        -2.2990    3.4180   18.5950 C.3   195  LEU195      0.0284
     86  CG        -2.7830    4.8630   18.5640 C.3   195  LEU195      0.0019
     87  CD1       -1.9180    5.6780   17.5980 C.3   195  LEU195      0.0001
     88  CD2       -4.2520    4.8880   18.1760 C.3   195  LEU195      0.0001
     89  N         -2.6890    0.1640   18.9020 N.am  196  THR196     -0.1939
     90  CA        -2.0250   -1.1420   18.9020 C.3   196  THR196      0.2028
     91  C         -0.9500   -1.2900   17.8180 C.2   196  THR196      0.2643
     92  O         -0.4000   -2.3800   17.6320 O.2   196  THR196     -0.2714
     93  CB        -3.0320   -2.2780   18.7240 C.3   196  THR196      0.1808
     94  OG1       -3.6300   -2.1730   17.4250 O.3   196  THR196     -0.2208
     95  CG2       -4.1000   -2.2150   19.8180 C.3   196  THR196      0.0379
     96  N         -0.6980   -0.2220   17.0640 N.am  197  THR197     -0.1937
     97  CA         0.3890   -0.2540   16.0720 C.3   197  THR197      0.2013
     98  C          1.1720    1.0240   16.2550 C.2   197  THR197      0.2484
     99  O          0.7060    1.9700   16.9040 O.2   197  THR197     -0.2729
    100  CB        -0.0790   -0.2350   14.5800 C.3   197  THR197      0.1807
    101  OG1       -0.5370    1.0790   14.2330 O.3   197  THR197     -0.2208
    102  CG2       -1.1950   -1.2530   14.3390 C.3   197  THR197      0.0379
    103  N          2.3880    1.0690   15.7090 N.am  198  PRO198     -0.2715
    104  CA         3.1630    2.3030   15.8400 C.3   198  PRO198      0.1521
    105  C          2.2500    3.4050   15.2700 C.2   198  PRO198      0.2440
    106  O          1.5270    3.1670   14.2970 O.2   198  PRO198     -0.2731
    107  CB         4.3720    2.0260   14.9620 C.3   198  PRO198      0.0310
    108  CG         4.6480    0.5770   15.2600 C.3   198  PRO198      0.0237
    109  CD         3.2270   -0.0450   15.2160 C.3   198  PRO198      0.0939
    110  N          2.3120    4.6320   15.8110 N.am  199  PRO199     -0.2727
    111  CA         3.1480    5.1430   16.9010 C.3   199  PRO199      0.1402
    112  C          2.8010    4.7480   18.3340 C.2   199  PRO199      0.2269
    113  O          3.3810    5.3000   19.2680 O.2   199  PRO199     -0.2865
    114  CB         3.0890    6.6540   16.6930 C.3   199  PRO199      0.0296
    115  CG         1.6940    6.8570   16.2170 C.3   199  PRO199      0.0237
    116  CD         1.5050    5.7220   15.2230 C.3   199  PRO199      0.0939
    117  N        -10.4200    2.3520   25.4970 N.3   206  TRP206     -0.1241
    118  CA       -10.8830    1.1690   24.7900 C.3   206  TRP206      0.1605
    119  C        -12.2360    0.6970   25.2970 C.2   206  TRP206      0.2264
    120  O        -12.4750    0.6270   26.5060 O.2   206  TRP206     -0.2867
    121  CB        -9.8670    0.0070   24.9390 C.3   206  TRP206      0.0550
    122  CG        -8.7450    0.0880   23.9570 C.ar  206  TRP206      0.0003
    123  CD1       -7.5270    0.6870   24.1320 C.ar  206  TRP206      0.0946
    124  CD2       -8.7830   -0.3520   22.5950 C.ar  206  TRP206      0.0152
    125  NE1       -6.8110    0.6580   22.9550 N.ar  206  TRP206     -0.2442
    126  CE2       -7.5590    0.0260   21.9980 C.ar  206  TRP206      0.0810
    127  CE3       -9.7390   -1.0280   21.8210 C.ar  206  TRP206      0.0012
    128  CZ2       -7.2620   -0.2460   20.6600 C.ar  206  TRP206      0.0191
    129  CZ3       -9.4480   -1.3030   20.4890 C.ar  206  TRP206      0.0001
    130  CH2       -8.2200   -0.9110   19.9190 C.ar  206  TRP206      0.0015
@<TRIPOS>BOND
     1     4     3    2
     2    13    10    1
     3    13    14    1
     4    22    19    1
     5    22    23    1
     6    19    18    1
     7    19    20    1
     8    10    11    1
     9    10     9    1
    10     3     9   am
    11     3     2    1
    12     6     8    1
    13     6     5    1
    14    16    15    2
    15    14    15    1
    16    20    21    2
    17    11    12    2
    18    15    17   am
    19    23    24   ar
    20    23    25   ar
    21     2     5    1
    22     2     1    1
    23     5     7    1
    24    24    26   ar
    25    25    27   ar
    26    28    29    1
    27    30    29    1
    28    30    31    2
    29    29    32    1
    30    26    27   ar
    31    61    63   ar
    32    61    60   ar
    33    41    40    2
    34    63    65   ar
    35    59    60    1
    36    59    56    1
    37    34    33   ar
    38    34    36   ar
    39    32    33    1
    40    60    62   ar
    41    33    35   ar
    42    36    37   ar
    43   101   100    1
    44   106   105    2
    45    65    64   ar
    46   102   100    1
    47    35    37   ar
    48    62    64   ar
    49   100    97    1
    50    55    56    1
    51    51    50    2
    52    38    39    1
    53    40    39    1
    54    54    52    1
    55    52    53    1
    56    52    49    1
    57   107   108    1
    58   107   104    1
    59    56    57    1
    60    48    49    1
    61   109   108    1
    62   109   103    1
    63   116   110    1
    64   116   115    1
    65   105   110   am
    66   105   104    1
    67    57    58    2
    68    39    42    1
    69    42    43    1
    70    49    50    1
    71   103   104    1
    72   103    98   am
    73   110   111    1
    74    97    98    1
    75    97    96    1
    76   115   114    1
    77    98    99    2
    78    44    43   ar
    79    44    46   ar
    80    43    45   ar
    81   114   111    1
    82   111   112    1
    83    96    91   am
    84    46    47   ar
    85    45    47   ar
    86    94    93    1
    87    87    86    1
    88    92    91    2
    89    91    90    1
    90    88    86    1
    91    73    71    1
    92   112   113    2
    93    79    78    1
    94    86    85    1
    95    85    82    1
    96    93    90    1
    97    93    95    1
    98    72    71    1
    99    89    90    1
   100    89    83   am
   101    80    78    1
   102    71    70    1
   103    78    75    1
   104    82    83    1
   105    82    81    1
   106    83    84    2
   107    75    76    1
   108    75    74    1
   109   130   129   ar
   110   130   128   ar
   111    70    67    1
   112    76    77    2
   113   129   127   ar
   114   128   126   ar
   115    67    68    1
   116    67    66    1
   117   127   124   ar
   118    68    69    2
   119   126   124   ar
   120   126   125   ar
   121   124   122   ar
   122   125   123   ar
   123   122   123   ar
   124   122   121    1
   125   118   121    1
   126   118   119    1
   127   118   117    1
   128   119   120    2
