@<TRIPOS>MOLECULE
tmp/4xe3A01.pdb
 127 120 0 0 0
SMALL
GASTEIGER

@<TRIPOS>ATOM
      1  N         53.8530   20.0180   29.0450 N.3    79  GLY79      -0.1210
      2  CA        52.9550   20.0540   27.8830 C.3    79  GLY79       0.1956
      3  C         51.6070   19.4010   28.1740 C.2    79  GLY79       0.2612
      4  O         51.5600   18.3300   28.8020 O.2    79  GLY79      -0.2717
      5  N         50.5220   20.0550   27.7300 N.am   80  VAL80      -0.1965
      6  CA        49.1250   19.6830   28.0770 C.3    80  VAL80       0.1727
      7  C         48.8530   18.1950   27.9780 C.2    80  VAL80       0.2616
      8  O         48.2390   17.5870   28.8550 O.2    80  VAL80      -0.2715
      9  CB        48.0800   20.2980   27.0990 C.3    80  VAL80       0.0290
     10  CG1       46.7000   20.3710   27.7660 C.3    80  VAL80       0.0023
     11  CG2       48.5120   21.6720   26.5860 C.3    80  VAL80       0.0023
     12  N         49.2930   17.6280   26.8660 N.am   81  LEU81      -0.1977
     13  CA        48.9270   16.2780   26.4920 C.3    81  LEU81       0.1596
     14  C         49.5810   15.2760   27.4270 C.2    81  LEU81       0.2287
     15  O         48.9780   14.2470   27.7760 O.2    81  LEU81      -0.2864
     16  CB        49.3320   16.0470   25.0290 C.3    81  LEU81       0.0297
     17  CG        48.8480   14.8530   24.2160 C.3    81  LEU81       0.0022
     18  CD1       47.4220   14.4490   24.5740 C.3    81  LEU81       0.0001
     19  CD2       48.9620   15.2000   22.7390 C.3    81  LEU81       0.0001
     20  N         51.0870   26.9210   22.8220 N.3   227  SER227     -0.1217
     21  CA        50.7170   25.5230   22.6020 C.3   227  SER227      0.1889
     22  C         49.5290   25.4280   21.6440 C.2   227  SER227      0.2288
     23  O         49.5010   24.5600   20.7760 O.2   227  SER227     -0.2866
     24  CB        50.4070   24.8210   23.9300 C.3   227  SER227      0.2089
     25  OG        50.0970   23.4490   23.7590 O.3   227  SER227     -0.2183
     26  N         50.7750   26.6320   18.0100 N.3   230  ILE230     -0.1231
     27  CA        51.5640   25.6020   17.3450 C.3   230  ILE230      0.1692
     28  C         50.6070   24.5340   16.8010 C.2   230  ILE230      0.2592
     29  O         50.5400   24.2810   15.5750 O.2   230  ILE230     -0.2718
     30  CB        52.6320   24.9550   18.2480 C.3   230  ILE230      0.0266
     31  CG1       53.5940   26.0150   18.8050 C.3   230  ILE230      0.0019
     32  CG2       53.4600   23.9720   17.4350 C.3   230  ILE230      0.0020
     33  CD1       54.6630   25.4820   19.7540 C.3   230  ILE230      0.0001
     34  N         49.8420   23.9560   17.7190 N.am  231  ALA231     -0.1966
     35  CA        48.9780   22.8190   17.4170 C.3   231  ALA231      0.1728
     36  C         48.0130   23.0730   16.2540 C.2   231  ALA231      0.2616
     37  O         47.8490   22.2450   15.3350 O.2   231  ALA231     -0.2715
     38  CB        48.2000   22.4330   18.6700 C.3   231  ALA231      0.0334
     39  N         47.3790   24.2270   16.3110 N.am  232  GLY232     -0.1955
     40  CA        46.3280   24.5330   15.3780 C.3   232  GLY232      0.1869
     41  C         46.7770   24.8270   13.9750 C.2   232  GLY232      0.2309
     42  O         46.0010   24.6790   13.0450 O.2   232  GLY232     -0.2863
     43  N         49.6970   23.8410   11.8160 N.3   234  GLU234     -0.1231
     44  CA        50.1460   22.9170   10.8030 C.3   234  GLU234      0.1699
     45  C         49.0900   21.8480   10.5110 C.2   234  GLU234      0.2592
     46  O         48.9520   21.4030    9.3550 O.2   234  GLU234     -0.2718
     47  CB        51.4730   22.2880   11.2070 C.3   234  GLU234      0.0402
     48  CG        52.5040   22.2690   10.0840 C.3   234  GLU234      0.1161
     49  CD        52.7880   20.8910    9.5700 C.2   234  GLU234      0.3649
     50  OE1       52.6670   19.9400   10.3680 O.co2 234  GLU234     -0.2457
     51  OE2       53.1510   20.7660    8.3810 O.co2 234  GLU234     -0.2457
     52  N         48.3540   21.4500   11.5530 N.am  235  THR235     -0.1953
     53  CA        47.2490   20.5050   11.4200 C.3   235  THR235      0.1897
     54  C         46.1210   21.0520   10.5340 C.2   235  THR235      0.2313
     55  O         45.6610   20.4030    9.5840 O.2   235  THR235     -0.2863
     56  CB        46.6420   20.2030   12.7910 C.3   235  THR235      0.1794
     57  OG1       47.6880   20.0090   13.7480 O.3   235  THR235     -0.2208
     58  CG2       45.8160   18.9680   12.7290 C.3   235  THR235      0.0378
     59  N         44.9940   11.6120    8.9990 N.3   277  LEU277     -0.1231
     60  CA        45.7990   12.8220    9.1640 C.3   277  LEU277      0.1693
     61  C         46.9920   12.5840   10.0660 C.2   277  LEU277      0.2591
     62  O         48.1100   12.9440    9.7280 O.2   277  LEU277     -0.2718
     63  CB        44.9380   13.9100    9.7860 C.3   277  LEU277      0.0284
     64  CG        45.6020   15.1890   10.2530 C.3   277  LEU277      0.0019
     65  CD1       45.9330   16.0340    9.0520 C.3   277  LEU277      0.0001
     66  CD2       44.6380   15.9030   11.1700 C.3   277  LEU277      0.0001
     67  N         46.6990   12.0210   11.2370 N.am  278  VAL278     -0.1980
     68  CA        47.6740   11.6360   12.2400 C.3   278  VAL278      0.1595
     69  C         48.2710   10.2930   11.8750 C.2   278  VAL278      0.2287
     70  O         47.6220    9.2800   12.0120 O.2   278  VAL278     -0.2864
     71  CB        46.9710   11.4970   13.6030 C.3   278  VAL278      0.0276
     72  CG1       47.9090   10.9310   14.6530 C.3   278  VAL278      0.0022
     73  CG2       46.4230   12.8440   14.0340 C.3   278  VAL278      0.0022
     74  N         49.8530    7.1600   15.3290 N.3   281  GLY281     -0.1210
     75  CA        48.8150    7.5650   16.2520 C.3   281  GLY281      0.1956
     76  C         49.1930    8.1680   17.5820 C.2   281  GLY281      0.2613
     77  O         50.3390    8.5380   17.8370 O.2   281  GLY281     -0.2717
     78  N         48.1250    8.3690   18.3800 N.am  282  SER282     -0.1938
     79  CA        48.1350    9.2100   19.5630 C.3   282  SER282      0.2055
     80  C         49.2620    9.0600   20.5740 C.2   282  SER282      0.2643
     81  O         49.9240    8.0270   20.6680 O.2   282  SER282     -0.2714
     82  CB        46.7750    9.0680   20.2530 C.3   282  SER282      0.2130
     83  OG        46.6130    7.7700   20.7980 O.3   282  SER282     -0.2179
     84  N         49.4540   10.1350   21.3220 N.am  283  PHE283     -0.1973
     85  CA        50.3840   10.2220   22.4210 C.3   283  PHE283      0.1639
     86  C         50.2810    8.9320   23.2250 C.2   283  PHE283      0.2290
     87  O         49.2260    8.3060   23.3070 O.2   283  PHE283     -0.2864
     88  CB        50.1370   11.4450   23.2810 C.3   283  PHE283      0.0560
     89  CG        51.2490   11.7640   24.2160 C.ar  283  PHE283     -0.0200
     90  CD1       51.3130   11.1510   25.4710 C.ar  283  PHE283     -0.0042
     91  CD2       52.2180   12.6950   23.8690 C.ar  283  PHE283     -0.0042
     92  CE1       52.3380   11.4410   26.3440 C.ar  283  PHE283     -0.0003
     93  CE2       53.2390   12.9970   24.7470 C.ar  283  PHE283     -0.0003
     94  CZ        53.2920   12.3770   25.9880 C.ar  283  PHE283     -0.0000
     95  N         44.1430    6.3440   15.6640 N.3   308  PHE308     -0.1241
     96  CA        42.8110    6.8750   15.4370 C.3   308  PHE308      0.1605
     97  C         42.2310    6.4900   14.0530 C.2   308  PHE308      0.2264
     98  O         41.0530    6.1730   13.9280 O.2   308  PHE308     -0.2867
     99  CB        42.8290    8.3910   15.5240 C.3   308  PHE308      0.0534
    100  CG        43.5670    8.9280   16.6940 C.ar  308  PHE308     -0.0203
    101  CD1       43.0070    8.9060   17.9550 C.ar  308  PHE308     -0.0042
    102  CD2       44.8230    9.5120   16.5290 C.ar  308  PHE308     -0.0042
    103  CE1       43.6780    9.4600   19.0370 C.ar  308  PHE308     -0.0003
    104  CE2       45.4990   10.0420   17.5950 C.ar  308  PHE308     -0.0003
    105  CZ        44.9230   10.0200   18.8500 C.ar  308  PHE308     -0.0000
    106  N         40.5000   16.6900   21.7660 N.3   343  CYS343     -0.1235
    107  CA        41.0890   17.8990   21.1970 C.3   343  CYS343      0.1677
    108  C         40.4330   19.1630   21.7420 C.2   343  CYS343      0.2270
    109  O         39.2100   19.3150   21.6870 O.2   343  CYS343     -0.2867
    110  CB        41.0010   17.8910   19.6600 C.3   343  CYS343      0.0956
    111  SG        41.8440   19.2780   18.8600 S.3   343  CYS343     -0.0801
    112  N         54.3980   12.4150   11.1340 N.3   383  LEU383     -0.1231
    113  CA        53.4390   12.9000   12.1210 C.3   383  LEU383      0.1693
    114  C         52.1250   13.2900   11.4880 C.2   383  LEU383      0.2591
    115  O         51.0990   12.6550   11.7420 O.2   383  LEU383     -0.2718
    116  CB        54.0160   14.0840   12.8960 C.3   383  LEU383      0.0284
    117  CG        54.6850   13.7070   14.2160 C.3   383  LEU383      0.0019
    118  CD1       53.7220   13.8660   15.3810 C.3   383  LEU383      0.0001
    119  CD2       55.2930   12.2900   14.1830 C.3   383  LEU383      0.0001
    120  N         52.1440   14.3340   10.6750 N.am  384  ILE384     -0.1980
    121  CA        50.9140   14.8240   10.1020 C.3   384  ILE384      0.1595
    122  C         50.9720   14.7760    8.5980 C.2   384  ILE384      0.2287
    123  O         51.8590   15.3630    7.9870 O.2   384  ILE384     -0.2864
    124  CB        50.6410   16.2900   10.4910 C.3   384  ILE384      0.0276
    125  CG1       50.7410   16.5050   11.9980 C.3   384  ILE384      0.0022
    126  CG2       49.2590   16.6900   10.0180 C.3   384  ILE384      0.0022
    127  CD1       49.7000   15.7390   12.7960 C.3   384  ILE384      0.0001
@<TRIPOS>BOND
     1   123   122    2
     2    51    49   ar
     3   122   121    1
     4    59    60    1
     5    65    64    1
     6    60    63    1
     7    60    61    1
     8    46    45    2
     9    49    48    1
    10    49    50   ar
    11    55    54    2
    12    62    61    2
    13    63    64    1
    14   126   124    1
    15    61    67   am
    16    48    47    1
    17   121   124    1
    18   121   120    1
    19    64    66    1
    20   124   125    1
    21    45    44    1
    22    45    52   am
    23    54    53    1
    24   120   114   am
    25    44    47    1
    26    44    43    1
    27   112   113    1
    28    67    68    1
    29    53    52    1
    30    53    56    1
    31   114   115    2
    32   114   113    1
    33    69    70    2
    34    69    68    1
    35   125   127    1
    36   113   116    1
    37    68    71    1
    38    58    56    1
    39    56    57    1
    40   116   117    1
    41    42    41    2
    42    71    73    1
    43    71    72    1
    44    98    97    2
    45    41    40    1
    46    97    96    1
    47   119   117    1
    48   117   118    1
    49    74    75    1
    50    37    36    2
    51    40    39    1
    52    96    99    1
    53    96    95    1
    54    99   100    1
    55    29    28    2
    56    75    76    1
    57    36    39   am
    58    36    35    1
    59   102   100   ar
    60   102   104   ar
    61   100   101   ar
    62    28    27    1
    63    28    34   am
    64    27    26    1
    65    27    30    1
    66    35    34    1
    67    35    38    1
    68    32    30    1
    69    76    77    2
    70    76    78   am
    71   104   105   ar
    72   101   103   ar
    73    30    31    1
    74    78    79    1
    75    31    33    1
    76   105   103   ar
    77   111   110    1
    78    79    82    1
    79    79    80    1
    80   110   107    1
    81    82    83    1
    82    80    81    2
    83    80    84   am
    84    23    22    2
    85   107   108    1
    86   107   106    1
    87    84    85    1
    88    22    21    1
    89   109   108    2
    90    85    86    1
    91    85    88    1
    92    21    20    1
    93    21    24    1
    94    19    17    1
    95    86    87    2
    96    88    89    1
    97    25    24    1
    98    91    89   ar
    99    91    93   ar
   100    17    18    1
   101    17    16    1
   102    89    90   ar
   103    93    94   ar
   104    16    13    1
   105    90    92   ar
   106    94    92   ar
   107    13    12    1
   108    13    14    1
   109    11     9    1
   110    12     7   am
   111     9    10    1
   112     9     6    1
   113    14    15    2
   114     5     6    1
   115     5     3   am
   116     2     3    1
   117     2     1    1
   118     7     6    1
   119     7     8    2
   120     3     4    2
