@<TRIPOS>MOLECULE
tmp/4xe8A00.pdb
 181 167 0 0 0
SMALL
GASTEIGER

@<TRIPOS>ATOM
      1  N        -42.7010  -54.5250  128.1450 N.3     9  ASP9       -0.1239
      2  CA       -43.6340  -55.6390  128.0250 C.3     9  ASP9        0.1674
      3  C        -43.1270  -56.6390  126.9850 C.2     9  ASP9        0.2266
      4  O        -43.3130  -56.4460  125.7820 O.2     9  ASP9       -0.2867
      5  CB       -45.0250  -55.1160  127.6530 C.3     9  ASP9        0.1410
      6  CG       -46.0370  -56.2240  127.4350 C.2     9  ASP9        0.3668
      7  OD1      -45.8330  -57.3420  127.9520 O.co2   9  ASP9       -0.2456
      8  OD2      -47.0460  -55.9700  126.7440 O.co2   9  ASP9       -0.2456
      9  N        -42.9420  -60.4030  125.2750 N.3    11  GLY11      -0.1225
     10  CA       -43.5770  -61.6870  125.0420 C.3    11  GLY11       0.1811
     11  C        -42.8640  -62.4630  123.9500 C.2    11  GLY11       0.2280
     12  O        -41.7580  -62.1050  123.5500 O.2    11  GLY11      -0.2866
     13  N        -43.9980  -62.9000  120.8470 N.3    13  ILE13      -0.1231
     14  CA       -44.2080  -62.2760  119.5460 C.3    13  ILE13       0.1692
     15  C        -43.3650  -61.0130  119.4100 C.2    13  ILE13       0.2591
     16  O        -42.5380  -60.8990  118.5040 O.2    13  ILE13      -0.2718
     17  CB       -45.6860  -61.9170  119.3130 C.3    13  ILE13       0.0266
     18  CG1      -46.5850  -63.1180  119.6130 C.3    13  ILE13       0.0019
     19  CG2      -45.8950  -61.4270  117.8880 C.3    13  ILE13       0.0020
     20  CD1      -46.4010  -64.2710  118.6560 C.3    13  ILE13       0.0001
     21  N        -43.5850  -60.0650  120.3180 N.am   14  LYS14      -0.1980
     22  CA       -42.8890  -58.7840  120.2810 C.3    14  LYS14       0.1596
     23  C        -42.3140  -58.4060  121.6410 C.2    14  LYS14       0.2287
     24  O        -42.7840  -58.8670  122.6820 O.2    14  LYS14      -0.2864
     25  CB       -43.8280  -57.6670  119.8100 C.3    14  LYS14       0.0298
     26  CG       -44.7590  -58.0380  118.6690 C.3    14  LYS14       0.0038
     27  CD       -45.5640  -56.8310  118.2030 C.3    14  LYS14       0.0206
     28  CE       -46.8450  -56.6640  119.0040 C.3    14  LYS14       0.1093
     29  NZ       -47.7960  -57.7850  118.7620 N.3    14  LYS14      -0.1314
     30  N        -42.1910  -55.0700  123.6850 N.3    16  LYS16      -0.1245
     31  CA       -42.8280  -53.7590  123.6350 C.3    16  LYS16       0.1561
     32  C        -42.2820  -52.8090  124.6960 C.2    16  LYS16       0.2260
     33  O        -41.9920  -53.2140  125.8230 O.2    16  LYS16      -0.2867
     34  CB       -44.3450  -53.9030  123.7860 C.3    16  LYS16       0.0271
     35  CG       -44.9980  -54.6520  122.6320 C.3    16  LYS16       0.0035
     36  CD       -46.5080  -54.4780  122.6090 C.3    16  LYS16       0.0206
     37  CE       -47.1980  -55.4870  123.5040 C.3    16  LYS16       0.1093
     38  NZ       -48.6780  -55.4630  123.3210 N.3    16  LYS16      -0.1314
     39  N        -55.6260  -59.2060  129.0750 N.3   193  ASP193     -0.1225
     40  CA       -54.7400  -58.6930  128.0370 C.3   193  ASP193      0.1805
     41  C        -54.8310  -59.5730  126.7950 C.2   193  ASP193      0.2598
     42  O        -54.2230  -60.6410  126.7370 O.2   193  ASP193     -0.2718
     43  CB       -53.2980  -58.6320  128.5490 C.3   193  ASP193      0.1424
     44  CG       -52.4370  -57.6570  127.7670 C.2   193  ASP193      0.3668
     45  OD1      -52.8330  -57.2640  126.6500 O.co2 193  ASP193     -0.2456
     46  OD2      -51.3590  -57.2820  128.2740 O.co2 193  ASP193     -0.2456
     47  N        -55.6000  -59.1270  125.8080 N.am  194  LEU194     -0.1966
     48  CA       -55.8200  -59.9180  124.6010 C.3   194  LEU194      0.1728
     49  C        -54.6910  -59.6970  123.5990 C.2   194  LEU194      0.2617
     50  O        -54.5840  -58.6270  122.9980 O.2   194  LEU194     -0.2715
     51  CB       -57.1710  -59.5730  123.9690 C.3   194  LEU194      0.0311
     52  CG       -58.3820  -59.4670  124.9020 C.3   194  LEU194      0.0022
     53  CD1      -59.6590  -59.3160  124.0890 C.3   194  LEU194      0.0001
     54  CD2      -58.4780  -60.6660  125.8360 C.3   194  LEU194      0.0001
     55  N        -53.8530  -60.7150  123.4190 N.am  195  GLY195     -0.1940
     56  CA       -52.6580  -60.5850  122.6030 C.3   195  GLY195      0.2014
     57  C        -52.6800  -61.3370  121.2840 C.2   195  GLY195      0.2639
     58  O        -53.7110  -61.8700  120.8720 O.2   195  GLY195     -0.2714
     59  N        -51.5240  -61.3840  120.6270 N.am  196  ALA196     -0.1963
     60  CA       -51.4000  -61.9810  119.3010 C.3   196  ALA196      0.1728
     61  C        -51.4530  -63.5050  119.3430 C.2   196  ALA196      0.2617
     62  O        -52.2020  -64.1280  118.5910 O.2   196  ALA196     -0.2715
     63  CB       -50.1090  -61.5200  118.6410 C.3   196  ALA196      0.0334
     64  N        -50.6500  -64.1030  120.2160 N.am  197  GLY197     -0.1940
     65  CA       -50.6210  -65.5470  120.3440 C.3   197  GLY197      0.2014
     66  C        -51.1460  -66.0240  121.6840 C.2   197  GLY197      0.2639
     67  O        -51.2700  -67.2260  121.9190 O.2   197  GLY197     -0.2714
     68  N        -51.4520  -65.0790  122.5680 N.am  198  THR198     -0.1950
     69  CA       -51.8960  -65.4070  123.9190 C.3   198  THR198      0.1897
     70  C        -53.0200  -64.5040  124.4130 C.2   198  THR198      0.2313
     71  O        -53.3290  -63.4780  123.8060 O.2   198  THR198     -0.2863
     72  CB       -50.7370  -65.3090  124.9360 C.3   198  THR198      0.1794
     73  OG1      -50.2000  -63.9800  124.9200 O.3   198  THR198     -0.2208
     74  CG2      -49.6310  -66.3090  124.6160 C.3   198  THR198      0.0378
     75  N        -54.9460  -63.6220  118.5000 N.3   221  THR221     -0.1203
     76  CA       -55.5720  -63.1380  117.2770 C.3   221  THR221      0.1994
     77  C        -54.9910  -63.8200  116.0480 C.2   221  THR221      0.2617
     78  O        -55.6480  -63.9120  115.0110 O.2   221  THR221     -0.2717
     79  CB       -55.3970  -61.6180  117.1180 C.3   221  THR221      0.1784
     80  OG1      -54.0000  -61.3010  117.1180 O.3   221  THR221     -0.2211
     81  CG2      -56.0730  -60.8790  118.2570 C.3   221  THR221      0.0376
     82  N        -53.7540  -64.2930  116.1770 N.am  222  ASN222     -0.1974
     83  CA       -52.9900  -64.8090  115.0440 C.3   222  ASN222      0.1688
     84  C        -53.6980  -65.9140  114.2700 C.2   222  ASN222      0.2292
     85  O        -53.6690  -65.9290  113.0400 O.2   222  ASN222     -0.2864
     86  CB       -51.6270  -65.3140  115.5190 C.3   222  ASN222      0.1181
     87  CG       -50.6550  -64.1840  115.8050 C.2   222  ASN222      0.2629
     88  OD1      -50.9010  -63.0320  115.4470 O.2   222  ASN222     -0.2716
     89  ND2      -49.5410  -64.5110  116.4500 N.am  222  ASN222     -0.0877
     90  N        -56.3340  -64.3500  112.2960 N.3   225  ILE225     -0.1245
     91  CA       -55.6890  -63.6190  111.2140 C.3   225  ILE225      0.1561
     92  C        -55.2440  -64.5860  110.1210 C.2   225  ILE225      0.2260
     93  O        -55.4350  -64.3230  108.9310 O.2   225  ILE225     -0.2867
     94  CB       -54.4760  -62.8130  111.7190 C.3   225  ILE225      0.0252
     95  CG1      -54.9250  -61.7340  112.7040 C.3   225  ILE225      0.0019
     96  CG2      -53.7210  -62.1870  110.5580 C.3   225  ILE225      0.0019
     97  CD1      -53.7790  -60.9900  113.3500 C.3   225  ILE225      0.0001
     98  N        -48.4230  -58.5180  110.6020 N.3   243  GLU243     -0.1245
     99  CA       -48.3190  -57.0990  110.9200 C.3   243  GLU243      0.1567
    100  C        -48.5670  -56.2470  109.6850 C.2   243  GLU243      0.2260
    101  O        -49.2230  -55.2110  109.7620 O.2   243  GLU243     -0.2867
    102  CB       -46.9490  -56.7800  111.5200 C.3   243  GLU243      0.0388
    103  CG       -46.8910  -56.9540  113.0270 C.3   243  GLU243      0.1160
    104  CD       -47.8850  -56.0620  113.7440 C.2   243  GLU243      0.3649
    105  OE1      -48.0560  -54.9010  113.3130 O.co2 243  GLU243     -0.2457
    106  OE2      -48.4980  -56.5200  114.7320 O.co2 243  GLU243     -0.2457
    107  N        -52.2240  -56.2750  109.2190 N.3   246  ILE246     -0.1245
    108  CA       -52.8510  -55.4310  110.2300 C.3   246  ILE246      0.1561
    109  C        -52.5900  -53.9480  109.9630 C.2   246  ILE246      0.2260
    110  O        -53.5060  -53.1280  110.0250 O.2   246  ILE246     -0.2867
    111  CB       -52.3530  -55.7910  111.6470 C.3   246  ILE246      0.0252
    112  CG1      -52.8190  -57.1960  112.0340 C.3   246  ILE246      0.0019
    113  CG2      -52.8490  -54.7800  112.6640 C.3   246  ILE246      0.0019
    114  CD1      -54.3240  -57.3740  112.0070 C.3   246  ILE246      0.0001
    115  N        -55.9880  -53.3610  108.0290 N.3   250  VAL250     -0.1231
    116  CA       -56.9310  -53.3680  109.1470 C.3   250  VAL250      0.1692
    117  C        -56.9320  -52.0890  109.9890 C.2   250  VAL250      0.2591
    118  O        -57.9900  -51.4990  110.2150 O.2   250  VAL250     -0.2718
    119  CB       -56.6620  -54.5630  110.0770 C.3   250  VAL250      0.0266
    120  CG1      -57.5050  -54.4590  111.3400 C.3   250  VAL250      0.0020
    121  CG2      -56.9360  -55.8700  109.3460 C.3   250  VAL250      0.0020
    122  N        -55.7580  -51.6690  110.4530 N.am  251  MET251     -0.1979
    123  CA       -55.6400  -50.4990  111.3290 C.3   251  MET251      0.1605
    124  C        -56.3680  -49.2320  110.8430 C.2   251  MET251      0.2287
    125  O        -57.0400  -48.5800  111.6440 O.2   251  MET251     -0.2864
    126  CB       -54.1620  -50.1700  111.5750 C.3   251  MET251      0.0413
    127  CG       -53.5120  -51.0010  112.6710 C.3   251  MET251      0.0598
    128  SD       -51.7650  -50.6090  112.8820 S.3   251  MET251     -0.1393
    129  CE       -51.3500  -51.6280  114.2950 C.3   251  MET251      0.0692
    130  N        -60.1340  -49.7050  111.4650 N.3   254  VAL254     -0.1245
    131  CA       -60.4640  -49.7520  112.8830 C.3   254  VAL254      0.1561
    132  C        -60.4610  -48.3510  113.4880 C.2   254  VAL254      0.2260
    133  O        -61.3180  -48.0240  114.3090 O.2   254  VAL254     -0.2867
    134  CB       -59.4900  -50.6610  113.6590 C.3   254  VAL254      0.0252
    135  CG1      -59.7180  -50.5460  115.1580 C.3   254  VAL254      0.0019
    136  CG2      -59.6470  -52.1030  113.2080 C.3   254  VAL254      0.0019
    137  N        -55.2100  -54.7770  125.3820 N.3   313  GLY313     -0.1210
    138  CA       -54.4180  -55.4570  124.3750 C.3   313  GLY313      0.1956
    139  C        -54.8690  -55.1170  122.9680 C.2   313  GLY313      0.2612
    140  O        -55.9010  -54.4740  122.7740 O.2   313  GLY313     -0.2717
    141  N        -54.0940  -55.5510  121.9800 N.am  314  GLY314     -0.1942
    142  CA       -54.4150  -55.2800  120.5910 C.3   314  GLY314      0.2014
    143  C        -55.6650  -56.0000  120.1250 C.2   314  GLY314      0.2639
    144  O        -56.2970  -55.5910  119.1510 O.2   314  GLY314     -0.2714
    145  N        -56.0190  -57.0800  120.8180 N.am  315  GLY315     -0.1954
    146  CA       -57.2070  -57.8490  120.4920 C.3   315  GLY315      0.1869
    147  C        -58.4800  -57.0320  120.6080 C.2   315  GLY315      0.2309
    148  O        -59.4580  -57.2850  119.9040 O.2   315  GLY315     -0.2863
    149  N        -58.6860  -53.9700  119.7120 N.3   317  LEU317     -0.1231
    150  CA       -58.7440  -53.2080  118.4730 C.3   317  LEU317      0.1693
    151  C        -59.0630  -54.0930  117.2700 C.2   317  LEU317      0.2592
    152  O        -59.8950  -53.7360  116.4350 O.2   317  LEU317     -0.2718
    153  CB       -57.4240  -52.4690  118.2510 C.3   317  LEU317      0.0284
    154  CG       -57.1270  -51.3740  119.2770 C.3   317  LEU317      0.0019
    155  CD1      -55.6760  -50.9200  119.1830 C.3   317  LEU317      0.0001
    156  CD2      -58.0750  -50.2000  119.0830 C.3   317  LEU317      0.0001
    157  N        -58.3990  -55.2430  117.1840 N.am  318  PHE318     -0.1976
    158  CA       -58.6180  -56.1740  116.0810 C.3   318  PHE318      0.1639
    159  C        -60.0690  -56.6450  116.0230 C.2   318  PHE318      0.2290
    160  O        -60.6470  -56.7650  114.9420 O.2   318  PHE318     -0.2864
    161  CB       -57.6830  -57.3800  116.2010 C.3   318  PHE318      0.0560
    162  CG       -58.0060  -58.4950  115.2450 C.ar  318  PHE318     -0.0200
    163  CD1      -57.6920  -58.3860  113.9000 C.ar  318  PHE318     -0.0042
    164  CD2      -58.6190  -59.6560  115.6930 C.ar  318  PHE318     -0.0042
    165  CE1      -57.9880  -59.4110  113.0170 C.ar  318  PHE318     -0.0003
    166  CE2      -58.9160  -60.6850  114.8170 C.ar  318  PHE318     -0.0003
    167  CZ       -58.6010  -60.5620  113.4770 C.ar  318  PHE318     -0.0000
    168  N        -57.5100  -46.2440  121.5910 N.3   339  GLN339     -0.1245
    169  CA       -56.5230  -46.3080  120.5200 C.3   339  GLN339      0.1566
    170  C        -55.1720  -46.8020  121.0450 C.2   339  GLN339      0.2260
    171  O        -54.3320  -47.2800  120.2790 O.2   339  GLN339     -0.2867
    172  CB       -56.3640  -44.9360  119.8610 C.3   339  GLN339      0.0367
    173  CG       -55.7210  -44.9720  118.4850 C.3   339  GLN339      0.0905
    174  CD       -56.7330  -45.1710  117.3700 C.2   339  GLN339      0.2608
    175  OE1      -57.5880  -44.3150  117.1310 O.2   339  GLN339     -0.2717
    176  NE2      -56.6420  -46.3040  116.6820 N.am  339  GLN339     -0.0878
    177  N        -53.3330  -51.4810  122.7750 N.3   342  ALA342     -0.1245
    178  CA       -52.3100  -52.4800  122.4820 C.3   342  ALA342      0.1562
    179  C        -51.1120  -52.3500  123.4170 C.2   342  ALA342      0.2260
    180  O        -50.4870  -53.3450  123.7840 O.2   342  ALA342     -0.2867
    181  CB       -51.8610  -52.3690  121.0320 C.3   342  ALA342      0.0290
@<TRIPOS>BOND
     1   115   116    1
     2    93    92    2
     3   116   117    1
     4   116   119    1
     5   107   108    1
     6   121   119    1
     7   100   101    2
     8   100    99    1
     9   109   110    2
    10   109   108    1
    11   117   118    2
    12   117   122   am
    13   119   120    1
    14    92    91    1
    15   108   111    1
    16   122   123    1
    17    96    94    1
    18    98    99    1
    19   124   123    1
    20   124   125    2
    21    99   102    1
    22    91    94    1
    23    91    90    1
    24   123   126    1
    25   130   131    1
    26   102   103    1
    27   126   127    1
    28   111   112    1
    29   111   113    1
    30    94    95    1
    31   114   112    1
    32   127   128    1
    33    95    97    1
    34   128   129    1
    35   131   132    1
    36   131   134    1
    37   165   167   ar
    38   165   163   ar
    39   103   104    1
    40    85    84    2
    41   136   134    1
    42   105   104   ar
    43   167   166   ar
    44   132   133    2
    45   134   135    1
    46   104   106   ar
    47   163   162   ar
    48    84    83    1
    49   166   164   ar
    50   160   159    2
    51    78    77    2
    52    83    86    1
    53    83    82    1
    54   162   164   ar
    55   162   161    1
    56    88    87    2
    57    86    87    1
    58    87    89   am
    59   159   158    1
    60    77    82   am
    61    77    76    1
    62   158   161    1
    63   158   157    1
    64   152   151    2
    65   176   174   am
    66    80    79    1
    67    79    76    1
    68    79    81    1
    69   175   174    2
    70   157   151   am
    71   151   150    1
    72    76    75    1
    73   174   173    1
    74    19    17    1
    75    27    26    1
    76    27    28    1
    77   153   150    1
    78   153   154    1
    79   150   149    1
    80   173   172    1
    81    16    15    2
    82    62    61    2
    83    63    60    1
    84    20    18    1
    85    26    25    1
    86    29    28    1
    87   156   154    1
    88   144   143    2
    89   155   154    1
    90    60    61    1
    91    60    59    1
    92    17    14    1
    93    17    18    1
    94    61    64   am
    95    15    14    1
    96    15    21   am
    97    14    13    1
    98    25    22    1
    99   172   169    1
   100   148   147    2
   101   143   142    1
   102   143   145   am
   103    64    65    1
   104   171   170    2
   105    22    21    1
   106    22    23    1
   107    65    66    1
   108   146   147    1
   109   146   145    1
   110   169   170    1
   111   169   168    1
   112   142   141    1
   113    59    57   am
   114    58    57    2
   115   181   178    1
   116    57    56    1
   117    23    24    2
   118    66    67    2
   119    66    68   am
   120   141   139   am
   121   178   177    1
   122   178   179    1
   123    68    69    1
   124    56    55    1
   125    36    35    1
   126    36    37    1
   127    35    34    1
   128   140   139    2
   129   139   138    1
   130    50    49    2
   131    38    37    1
   132   179   180    2
   133    55    49   am
   134    12    11    2
   135    49    48    1
   136    31    30    1
   137    31    34    1
   138    31    32    1
   139    71    70    2
   140    69    70    1
   141    69    72    1
   142    11    10    1
   143    51    48    1
   144    51    52    1
   145    53    52    1
   146   138   137    1
   147    48    47    1
   148    74    72    1
   149    32    33    2
   150    52    54    1
   151    73    72    1
   152    10     9    1
   153     4     3    2
   154    47    41   am
   155    45    44   ar
   156    42    41    2
   157     8     6   ar
   158    41    40    1
   159     3     2    1
   160     6     5    1
   161     6     7   ar
   162     5     2    1
   163    44    46   ar
   164    44    43    1
   165     2     1    1
   166    40    43    1
   167    40    39    1
