@<TRIPOS>MOLECULE
tmp/4xebA01.pdb
 184 177 0 0 0
SMALL
GASTEIGER

@<TRIPOS>ATOM
      1  N         23.1880   -6.2740   22.2340 N.3   169  GLN169     -0.1245
      2  CA        23.1300   -7.6740   21.9530 C.3   169  GLN169      0.1566
      3  C         24.0640   -8.0670   20.7610 C.2   169  GLN169      0.2260
      4  O         24.0010   -9.2200   20.3190 O.2   169  GLN169     -0.2867
      5  CB        21.6670   -8.0830   21.6700 C.3   169  GLN169      0.0367
      6  CG        20.6820   -7.7400   22.8070 C.3   169  GLN169      0.0905
      7  CD        21.0440   -8.4740   24.0850 C.2   169  GLN169      0.2608
      8  OE1       21.7250   -9.5160   24.0290 O.2   169  GLN169     -0.2717
      9  NE2       20.6280   -7.9350   25.2510 N.am  169  GLN169     -0.0878
     10  N         17.9250    1.1740   27.2890 N.3   208  ASP208     -0.1239
     11  CA        16.5840    0.7440   27.0850 C.3   208  ASP208      0.1674
     12  C         15.6930    1.4450   28.0690 C.2   208  ASP208      0.2266
     13  O         15.3040    0.8340   29.0810 O.2   208  ASP208     -0.2867
     14  CB        16.4620   -0.7840   27.2270 C.3   208  ASP208      0.1410
     15  CG        17.1230   -1.5130   26.0860 C.2   208  ASP208      0.3668
     16  OD1       16.9980   -1.0360   24.9000 O.co2 208  ASP208     -0.2456
     17  OD2       17.7790   -2.5420   26.3590 O.co2 208  ASP208     -0.2456
     18  N         10.9430   -0.8820   27.6580 N.3   211  GLU211     -0.1245
     19  CA        10.5820   -2.1820   27.0470 C.3   211  GLU211      0.1567
     20  C          9.3730   -2.6540   27.8010 C.2   211  GLU211      0.2260
     21  O          9.4180   -2.8640   29.0300 O.2   211  GLU211     -0.2867
     22  CB        11.7380   -3.1780   27.0990 C.3   211  GLU211      0.0388
     23  CG        12.9040   -2.7620   26.1760 C.3   211  GLU211      0.1160
     24  CD        14.0300   -3.7770   26.1980 C.2   211  GLU211      0.3649
     25  OE1       14.0520   -4.6750   25.2970 O.co2 211  GLU211     -0.2457
     26  OE2       14.8630   -3.6880   27.1290 O.co2 211  GLU211     -0.2457
     27  N         16.4750   -0.3840   31.4650 N.3   220  THR220     -0.1218
     28  CA        17.7050   -1.1570   31.4960 C.3   220  THR220      0.1862
     29  C         18.8780   -0.4780   30.6840 C.2   220  THR220      0.2287
     30  O         18.8870   -0.4900   29.4630 O.2   220  THR220     -0.2866
     31  CB        17.5230   -2.5990   30.9150 C.3   220  THR220      0.1770
     32  OG1       16.3040   -3.2190   31.4000 O.3   220  THR220     -0.2211
     33  CG2       18.6830   -3.4170   31.2620 C.3   220  THR220      0.0375
     34  N         22.5770   -0.7820   29.2030 N.3   222  HIS222     -0.1241
     35  CA        23.5130   -1.8000   28.7880 C.3   222  HIS222      0.1621
     36  C         24.7960   -1.1650   28.2230 C.2   222  HIS222      0.2264
     37  O         24.8410   -0.6960   27.0570 O.2   222  HIS222     -0.2867
     38  CB        22.9640   -2.6540   27.6500 C.3   222  HIS222      0.0745
     39  CG        21.7340   -3.4470   27.9490 C.ar  222  HIS222      0.0817
     40  ND1       21.7250   -4.8290   27.9780 N.ar  222  HIS222     -0.2268
     41  CD2       20.4440   -3.0720   28.0210 C.ar  222  HIS222      0.1154
     42  CE1       20.4930   -5.2630   28.1350 C.ar  222  HIS222      0.1986
     43  NE2       19.6930   -4.2110   28.1210 N.ar  222  HIS222     -0.2212
     44  N         22.1800  -12.2240   22.6300 N.3   240  THR240     -0.1218
     45  CA        21.1800  -13.2720   22.2670 C.3   240  THR240      0.1862
     46  C         21.4480  -14.0700   20.8610 C.2   240  THR240      0.2287
     47  O         20.8550  -15.0730   20.6260 O.2   240  THR240     -0.2866
     48  CB        19.7470  -12.6430   22.5080 C.3   240  THR240      0.1770
     49  OG1       19.7980  -11.6940   23.6120 O.3   240  THR240     -0.2211
     50  CG2       18.6680  -13.6930   22.8880 C.3   240  THR240      0.0375
     51  N         25.9930  -15.9280   25.7500 N.3   245  ARG245     -0.1231
     52  CA        25.6600  -14.5150   25.7720 C.3   245  ARG245      0.1694
     53  C         26.7200  -13.6180   26.4170 C.2   245  ARG245      0.2592
     54  O         26.7630  -12.4200   26.1460 O.2   245  ARG245     -0.2718
     55  CB        24.3140  -14.2960   26.4810 C.3   245  ARG245      0.0321
     56  CG        24.3340  -14.5900   27.9610 C.3   245  ARG245      0.0489
     57  CD        22.9240  -14.6520   28.5590 C.3   245  ARG245      0.2205
     58  NE        22.2610  -13.3520   28.7880 N.pl3 245  ARG245     -0.0865
     59  CZ        21.2820  -12.8550   28.0280 C.cat 245  ARG245      0.5346
     60  NH1       20.7320  -11.7010   28.3090 N.pl3 245  ARG245      0.1354
     61  NH2       20.8580  -13.5180   26.9680 N.pl3 245  ARG245      0.1354
     62  N         27.5760  -14.1740   27.2510 N.am  246  TYR246     -0.1976
     63  CA        28.5620  -13.3750   27.9870 C.3   246  TYR246      0.1639
     64  C         29.9450  -13.3830   27.3550 C.2   246  TYR246      0.2290
     65  O         30.9030  -12.8520   27.9360 O.2   246  TYR246     -0.2864
     66  CB        28.6560  -13.8780   29.4400 C.3   246  TYR246      0.0560
     67  CG        27.3420  -13.8060   30.1640 C.ar  246  TYR246     -0.0198
     68  CD1       26.8130  -12.5700   30.5280 C.ar  246  TYR246     -0.0009
     69  CD2       26.6460  -14.9570   30.5060 C.ar  246  TYR246     -0.0009
     70  CE1       25.6410  -12.4760   31.1990 C.ar  246  TYR246      0.0417
     71  CE2       25.4610  -14.8970   31.1940 C.ar  246  TYR246      0.0417
     72  CZ        24.9500  -13.6400   31.5340 C.ar  246  TYR246      0.1957
     73  OH        23.7540  -13.5850   32.1820 O.3   246  TYR246     -0.2866
     74  N         24.8630   -8.0310   27.9290 N.3   252  PRO252     -0.2102
     75  CA        23.5550   -8.4320   27.4090 C.3   252  PRO252      0.1504
     76  C         22.4320   -8.3850   28.3760 C.2   252  PRO252      0.2576
     77  O         21.2660   -8.4680   27.9650 O.2   252  PRO252     -0.2718
     78  CB        23.7760   -9.8710   27.0310 C.3   252  PRO252      0.0282
     79  CG        24.7880  -10.3770   28.0530 C.3   252  PRO252      0.0208
     80  CD        25.6440   -9.1830   28.4090 C.3   252  PRO252      0.0893
     81  N         22.7360   -8.3340   29.6770 N.am  253  ASP253     -0.1960
     82  CA        21.6780   -8.4100   30.6780 C.3   253  ASP253      0.1840
     83  C         21.2570   -7.0080   31.0910 C.2   253  ASP253      0.2622
     84  O         20.1060   -6.7040   31.1940 O.2   253  ASP253     -0.2715
     85  CB        22.1950   -9.1620   31.9290 C.3   253  ASP253      0.1450
     86  CG        22.4000  -10.6210   31.6830 C.2   253  ASP253      0.3671
     87  OD1       22.1280  -11.1560   30.5740 O.co2 253  ASP253     -0.2456
     88  OD2       22.8160  -11.2640   32.6650 O.co2 253  ASP253     -0.2456
     89  N         22.2480   -6.1540   31.3460 N.am  254  GLY254     -0.1954
     90  CA        21.9920   -4.8220   31.8390 C.3   254  GLY254      0.1869
     91  C         21.7570   -4.7040   33.3430 C.2   254  GLY254      0.2309
     92  O         21.8240   -5.6730   34.0880 O.2   254  GLY254     -0.2863
     93  N         18.7990   -3.7110   35.1780 N.3   256  ASP256     -0.1239
     94  CA        17.3980   -3.4740   34.8980 C.3   256  ASP256      0.1674
     95  C         16.5560   -3.1090   36.1320 C.2   256  ASP256      0.2266
     96  O         16.8360   -3.5920   37.2080 O.2   256  ASP256     -0.2867
     97  CB        16.7820   -4.7180   34.2720 C.3   256  ASP256      0.1410
     98  CG        16.7530   -5.9310   35.2380 C.2   256  ASP256      0.3668
     99  OD1       17.8190   -6.3200   35.7760 O.co2 256  ASP256     -0.2456
    100  OD2       15.6210   -6.4740   35.4970 O.co2 256  ASP256     -0.2456
    101  N          9.3180   -7.2970   39.0090 N.3   261  ARG261     -0.1245
    102  CA        10.4850   -8.0630   39.3850 C.3   261  ARG261      0.1563
    103  C         10.9970   -7.7350   40.7750 C.2   261  ARG261      0.2260
    104  O         11.4830   -8.6260   41.5020 O.2   261  ARG261     -0.2867
    105  CB        11.5770   -7.9420   38.3520 C.3   261  ARG261      0.0307
    106  CG        12.6680   -8.9740   38.5660 C.3   261  ARG261      0.0489
    107  CD        13.7180   -8.9390   37.4900 C.3   261  ARG261      0.2205
    108  NE        14.6680  -10.0530   37.7000 N.pl3 261  ARG261     -0.0865
    109  CZ        15.9720  -10.0360   37.4630 C.cat 261  ARG261      0.5346
    110  NH1       16.7370  -11.0960   37.7670 N.pl3 261  ARG261      0.1354
    111  NH2       16.5680   -8.9570   36.9510 N.pl3 261  ARG261      0.1354
    112  N          8.2250   -5.8270   18.6490 N.3   368  TRP368     -0.1241
    113  CA         8.7380   -7.1470   18.3030 C.3   368  TRP368      0.1605
    114  C          8.2360   -8.2630   19.1960 C.2   368  TRP368      0.2264
    115  O          7.7090   -8.0140   20.2980 O.2   368  TRP368     -0.2867
    116  CB        10.2450   -7.0910   18.2770 C.3   368  TRP368      0.0550
    117  CG        10.9050   -6.6730   19.5370 C.ar  368  TRP368      0.0003
    118  CD1       10.9280   -5.4390   20.0740 C.ar  368  TRP368      0.0946
    119  CD2       11.6860   -7.4940   20.4110 C.ar  368  TRP368      0.0152
    120  NE1       11.6290   -5.4270   21.2300 N.ar  368  TRP368     -0.2442
    121  CE2       12.1490   -6.6630   21.4570 C.ar  368  TRP368      0.0810
    122  CE3       12.0960   -8.7960   20.3680 C.ar  368  TRP368      0.0012
    123  CZ2       12.9920   -7.1260   22.4880 C.ar  368  TRP368      0.0191
    124  CZ3       12.9090   -9.2870   21.4070 C.ar  368  TRP368      0.0001
    125  CH2       13.3960   -8.4220   22.4100 C.ar  368  TRP368      0.0015
    126  N          9.7520  -12.5280   20.1600 N.3   370  ASP370     -0.1239
    127  CA        11.0930  -13.0430   20.5320 C.3   370  ASP370      0.1674
    128  C         11.1490  -14.5650   20.3100 C.2   370  ASP370      0.2266
    129  O         10.6860  -15.2970   21.1380 O.2   370  ASP370     -0.2867
    130  CB        11.2810  -12.6530   21.9930 C.3   370  ASP370      0.1410
    131  CG        12.6290  -13.1090   22.6350 C.2   370  ASP370      0.3668
    132  OD1       13.6380  -13.4680   21.9310 O.co2 370  ASP370     -0.2456
    133  OD2       12.6100  -13.0340   23.9140 O.co2 370  ASP370     -0.2456
    134  N         13.6240  -16.2200   23.5160 N.3   373  VAL373     -0.1245
    135  CA        13.1380  -16.3360   24.9070 C.3   373  VAL373      0.1561
    136  C         11.6220  -16.1070   25.1330 C.2   373  VAL373      0.2260
    137  O         11.1720  -16.1060   26.2710 O.2   373  VAL373     -0.2867
    138  CB        13.8770  -15.3140   25.8350 C.3   373  VAL373      0.0252
    139  CG1       13.9260  -15.7960   27.2600 C.3   373  VAL373      0.0019
    140  CG2       15.3000  -14.9890   25.3610 C.3   373  VAL373      0.0019
    141  N         11.5370  -13.1510   29.9920 N.3   377  TRP377     -0.1241
    142  CA        12.3440  -12.3390   30.8290 C.3   377  TRP377      0.1605
    143  C         11.6890  -11.0390   31.1970 C.2   377  TRP377      0.2264
    144  O         12.0670  -10.4360   32.2380 O.2   377  TRP377     -0.2867
    145  CB        13.7120  -12.0310   30.1650 C.3   377  TRP377      0.0550
    146  CG        13.5540  -11.3110   28.8810 C.ar  377  TRP377      0.0003
    147  CD1       13.4590  -11.8750   27.6720 C.ar  377  TRP377      0.0946
    148  CD2       13.4900   -9.8770   28.6790 C.ar  377  TRP377      0.0152
    149  NE1       13.2610  -10.9190   26.7180 N.ar  377  TRP377     -0.2442
    150  CE2       13.2690   -9.6770   27.2990 C.ar  377  TRP377      0.0810
    151  CE3       13.5470   -8.7700   29.5350 C.ar  377  TRP377      0.0012
    152  CZ2       13.1150   -8.4070   26.7390 C.ar  377  TRP377      0.0191
    153  CZ3       13.4330   -7.4930   28.9780 C.ar  377  TRP377      0.0001
    154  CH2       13.2310   -7.3280   27.5850 C.ar  377  TRP377      0.0015
    155  N         11.1140  -16.4520   34.8950 N.3   382  TYR382     -0.1228
    156  CA        12.2770  -16.6570   34.0720 C.3   382  TYR382      0.1721
    157  C         13.5430  -16.6890   34.9090 C.2   382  TYR382      0.2437
    158  O         13.7470  -15.8270   35.7550 O.2   382  TYR382     -0.2733
    159  CB        12.4470  -15.5210   33.0070 C.3   382  TYR382      0.0547
    160  CG        13.4810  -15.9220   32.0180 C.ar  382  TYR382     -0.0200
    161  CD1       13.2400  -16.9500   31.1020 C.ar  382  TYR382     -0.0009
    162  CD2       14.7220  -15.3850   32.0410 C.ar  382  TYR382     -0.0009
    163  CE1       14.2240  -17.3890   30.2420 C.ar  382  TYR382      0.0417
    164  CE2       15.6990  -15.8120   31.1830 C.ar  382  TYR382      0.0417
    165  CZ        15.4290  -16.8000   30.2740 C.ar  382  TYR382      0.1957
    166  OH        16.4740  -17.1600   29.4370 O.3   382  TYR382     -0.2866
    167  N         14.4090  -17.6690   34.6960 N.am  383  PRO383     -0.2729
    168  CA        14.1260  -18.9170   33.9850 C.3   383  PRO383      0.1401
    169  C         12.9200  -19.6420   34.5040 C.2   383  PRO383      0.2269
    170  O         12.5220  -19.5000   35.6650 O.2   383  PRO383     -0.2865
    171  CB        15.3850  -19.7460   34.2110 C.3   383  PRO383      0.0296
    172  CG        16.4570  -18.7990   34.6980 C.3   383  PRO383      0.0237
    173  CD        15.7310  -17.6580   35.3570 C.3   383  PRO383      0.0939
    174  N          8.7130  -11.7950   36.7500 N.3   394  ARG394     -0.1245
    175  CA         8.7770  -10.4650   36.1550 C.3   394  ARG394      0.1563
    176  C          7.4060   -9.9160   35.6930 C.2   394  ARG394      0.2260
    177  O          7.2980   -8.7190   35.3490 O.2   394  ARG394     -0.2867
    178  CB         9.8120  -10.4140   35.0250 C.3   394  ARG394      0.0307
    179  CG        11.2210  -10.9270   35.4480 C.3   394  ARG394      0.0489
    180  CD        11.5910  -12.2700   34.8460 C.3   394  ARG394      0.2205
    181  NE        12.8680  -12.7250   35.3410 N.pl3 394  ARG394     -0.0865
    182  CZ        14.0800  -12.3350   34.9340 C.cat 394  ARG394      0.5346
    183  NH1       15.1840  -12.8310   35.5320 N.pl3 394  ARG394      0.1354
    184  NH2       14.2410  -11.4760   33.9720 N.pl3 394  ARG394      0.1354
@<TRIPOS>BOND
     1   116   113    1
     2   116   117    1
     3   113   112    1
     4   113   114    1
     5   114   115    2
     6   117   118   ar
     7   117   119   ar
     8   118   120   ar
     9   126   127    1
    10   128   127    1
    11   128   129    2
    12     4     3    2
    13   122   119   ar
    14   122   124   ar
    15   119   121   ar
    16   127   130    1
    17    47    46    2
    18     3     2    1
    19    46    45    1
    20   120   121   ar
    21   124   125   ar
    22   121   123   ar
    23     5     2    1
    24     5     6    1
    25   132   131   ar
    26     2     1    1
    27   130   131    1
    28    45    48    1
    29    45    44    1
    30   125   123   ar
    31    48    50    1
    32    48    49    1
    33   131   133   ar
    34     6     7    1
    35   134   135    1
    36     8     7    2
    37     7     9   am
    38    16    15   ar
    39   135   136    1
    40   135   138    1
    41   136   137    2
    42    25    24   ar
    43   140   138    1
    44    51    52    1
    45    52    53    1
    46    52    55    1
    47   138   139    1
    48    15    17   ar
    49    15    14    1
    50    54    53    2
    51    23    24    1
    52    23    22    1
    53    24    26   ar
    54    53    62   am
    55    55    56    1
    56   149   150   ar
    57   149   147   ar
    58   152   150   ar
    59   152   154   ar
    60    61    59    1
    61    78    75    1
    62    78    79    1
    63    19    22    1
    64    19    18    1
    65    19    20    1
    66    37    36    2
    67    11    14    1
    68    11    10    1
    69    11    12    1
    70    62    63    1
    71   150   148   ar
    72    64    65    2
    73    64    63    1
    74    75    74    1
    75    75    76    1
    76   154   153   ar
    77    38    39    1
    78    38    35    1
    79   147   146   ar
    80    20    21    2
    81    74    80    1
    82    39    40   ar
    83    39    41   ar
    84    56    57    1
    85    77    76    2
    86    40    42   ar
    87    63    66    1
    88    41    43   ar
    89    59    60    1
    90    59    58    2
    91    79    80    1
    92    12    13    2
    93    43    42   ar
    94    36    35    1
    95    76    81   am
    96    57    58    1
    97   148   146   ar
    98   148   151   ar
    99    35    34    1
   100   146   145    1
   101   153   151   ar
   102   166   165    1
   103    66    67    1
   104    30    29    2
   105    81    82    1
   106   141   142    1
   107    67    69   ar
   108    67    68   ar
   109   145   142    1
   110   163   165   ar
   111   163   161   ar
   112   165   164   ar
   113    69    71   ar
   114    68    70   ar
   115    87    86   ar
   116    82    83    1
   117    82    85    1
   118    29    28    1
   119   142   143    1
   120    31    33    1
   121    31    32    1
   122    31    28    1
   123    83    84    2
   124    83    89   am
   125   161   160   ar
   126   164   162   ar
   127    71    72   ar
   128   143   144    2
   129    70    72   ar
   130    89    90    1
   131    27    28    1
   132    72    73    1
   133    86    85    1
   134    86    88   ar
   135    90    91    1
   136   160   162   ar
   137   160   159    1
   138   159   156    1
   139    91    92    2
   140   184   182    1
   141   168   171    1
   142   168   169    1
   143   168   167    1
   144   156   155    1
   145   156   157    1
   146   171   172    1
   147    97    94    1
   148    97    98    1
   149   169   170    2
   150   167   157   am
   151   167   173    1
   152   172   173    1
   153   180   181    1
   154   180   179    1
   155    94    93    1
   156    94    95    1
   157   157   158    2
   158   182   181    2
   159   182   183    1
   160   178   179    1
   161   178   175    1
   162    98   100   ar
   163    98    99   ar
   164   177   176    2
   165   176   175    1
   166    95    96    2
   167   175   174    1
   168   111   109    1
   169   109   108    2
   170   109   110    1
   171   107   108    1
   172   107   106    1
   173   105   106    1
   174   105   102    1
   175   101   102    1
   176   102   103    1
   177   103   104    2
