@<TRIPOS>MOLECULE
tmp/4xefA00.pdb
 122 112 0 0 0
SMALL
GASTEIGER

@<TRIPOS>ATOM
      1  N         18.3620   25.9310   31.4450 N.3    38  VAL38      -0.1245
      2  CA        17.8820   26.6120   30.2490 C.3    38  VAL38       0.1561
      3  C         18.6170   26.1510   29.0050 C.2    38  VAL38       0.2260
      4  O         18.0660   26.1810   27.9200 O.2    38  VAL38      -0.2867
      5  CB        18.0340   28.1350   30.3500 C.3    38  VAL38       0.0252
      6  CG1       17.0520   28.8210   29.4050 C.3    38  VAL38       0.0019
      7  CG2       17.8030   28.5930   31.7700 C.3    38  VAL38       0.0019
      8  N         17.1370   22.7030   27.6590 N.3    41  VAL41      -0.1231
      9  CA        15.7610   22.9070   27.2110 C.3    41  VAL41       0.1692
     10  C         15.7720   23.6820   25.9050 C.2    41  VAL41       0.2591
     11  O         14.9900   23.4180   24.9930 O.2    41  VAL41      -0.2718
     12  CB        14.9100   23.6490   28.2750 C.3    41  VAL41       0.0266
     13  CG1       13.4930   23.9470   27.7480 C.3    41  VAL41       0.0020
     14  CG2       14.8410   22.8370   29.5630 C.3    41  VAL41       0.0020
     15  N         16.6810   24.6360   25.8190 N.am   42  LYS42      -0.1980
     16  CA        16.8330   25.4290   24.6200 C.3    42  LYS42       0.1596
     17  C         17.2240   24.5410   23.4630 C.2    42  LYS42       0.2287
     18  O         16.6740   24.6600   22.3800 O.2    42  LYS42      -0.2864
     19  CB        17.8820   26.4970   24.8440 C.3    42  LYS42       0.0298
     20  CG        18.2200   27.3380   23.6480 C.3    42  LYS42       0.0038
     21  CD        17.3820   28.5990   23.6220 C.3    42  LYS42       0.0206
     22  CE        17.5810   29.3630   22.3120 C.3    42  LYS42       0.1093
     23  NZ        18.8370   30.1710   22.3320 N.3    42  LYS42      -0.1314
     24  N         14.3020   22.8270   22.3220 N.3    45  GLY45      -0.1210
     25  CA        13.4810   23.7870   21.6060 C.3    45  GLY45       0.1956
     26  C         13.9660   24.0400   20.1910 C.2    45  GLY45       0.2611
     27  O         13.1870   24.0160   19.2460 O.2    45  GLY45      -0.2717
     28  N         15.2600   24.2860   20.0420 N.am   46  LEU46      -0.1979
     29  CA        15.8470   24.5290   18.7280 C.3    46  LEU46       0.1596
     30  C         15.7000   23.3380   17.7640 C.2    46  LEU46       0.2287
     31  O         15.4700   23.5190   16.5650 O.2    46  LEU46      -0.2864
     32  CB        17.3270   24.8880   18.8820 C.3    46  LEU46       0.0297
     33  CG        17.6910   26.2230   19.5310 C.3    46  LEU46       0.0022
     34  CD1       19.2060   26.3540   19.5950 C.3    46  LEU46       0.0001
     35  CD2       17.0650   27.3860   18.7570 C.3    46  LEU46       0.0001
     36  N         13.3480   21.0940   17.9560 N.3    48  LEU48      -0.1231
     37  CA        11.9190   21.0190   17.6760 C.3    48  LEU48       0.1693
     38  C         11.5490   21.9670   16.5550 C.2    48  LEU48       0.2591
     39  O         10.8740   21.5770   15.6010 O.2    48  LEU48      -0.2718
     40  CB        11.0810   21.3520   18.9030 C.3    48  LEU48       0.0284
     41  CG         9.5820   21.2130   18.6390 C.3    48  LEU48       0.0019
     42  CD1        9.2230   19.8180   18.1520 C.3    48  LEU48       0.0001
     43  CD2        8.8040   21.5470   19.8850 C.3    48  LEU48       0.0001
     44  N         11.9920   23.2200   16.6610 N.am   49  ARG49      -0.1980
     45  CA        11.7260   24.2030   15.6040 C.3    49  ARG49       0.1597
     46  C         12.2110   23.7600   14.2140 C.2    49  ARG49       0.2287
     47  O         11.5400   23.9770   13.1970 O.2    49  ARG49      -0.2864
     48  CB        12.3620   25.5440   15.9550 C.3    49  ARG49       0.0334
     49  CG        12.1680   26.5730   14.8750 C.3    49  ARG49       0.0492
     50  CD        12.8440   27.8860   15.2010 C.3    49  ARG49       0.2205
     51  NE        12.3200   28.9390   14.3350 N.pl3  49  ARG49      -0.0865
     52  CZ        12.7290   29.1790   13.0890 C.cat  49  ARG49       0.5346
     53  NH1       13.6960   28.4520   12.5460 N.pl3  49  ARG49       0.1354
     54  NH2       12.1730   30.1590   12.3880 N.pl3  49  ARG49       0.1354
     55  N          9.7050   20.9790   13.0220 N.3    52  ILE52      -0.1231
     56  CA         8.4500   21.5690   12.5780 C.3    52  ILE52       0.1692
     57  C          8.5880   22.3240   11.2570 C.2    52  ILE52       0.2592
     58  O          7.7000   22.2650   10.4030 O.2    52  ILE52      -0.2718
     59  CB         7.9030   22.4830   13.6600 C.3    52  ILE52       0.0266
     60  CG1        7.1730   21.6200   14.6980 C.3    52  ILE52       0.0019
     61  CG2        6.9660   23.4860   13.0690 C.3    52  ILE52       0.0020
     62  CD1        7.3060   22.1440   16.1060 C.3    52  ILE52       0.0001
     63  N          9.7200   22.9870   11.0600 N.am   53  GLY53      -0.1957
     64  CA         9.9440   23.7000    9.8270 C.3    53  GLY53       0.1869
     65  C         10.0280   22.7600    8.6440 C.2    53  GLY53       0.2309
     66  O          9.5520   23.0820    7.5610 O.2    53  GLY53      -0.2863
     67  N          6.5950   21.6860    7.7300 N.3    56  ASP56      -0.1239
     68  CA         5.8920   22.7440    6.9940 C.3    56  ASP56       0.1674
     69  C          6.2710   22.8200    5.5080 C.2    56  ASP56       0.2266
     70  O          5.4150   23.0460    4.6570 O.2    56  ASP56      -0.2867
     71  CB         6.1390   24.0930    7.6580 C.3    56  ASP56       0.1410
     72  CG         5.3520   24.2490    8.9330 C.2    56  ASP56       0.3668
     73  OD1        5.6540   25.1810    9.7170 O.co2  56  ASP56      -0.2456
     74  OD2        4.4250   23.4330    9.1510 O.co2  56  ASP56      -0.2456
     75  N          3.8720   21.7470   20.5680 N.3    78  ASN78      -0.1240
     76  CA         3.9990   23.0480   21.2410 C.3    78  ASN78       0.1653
     77  C          3.6150   22.9610   22.7130 C.2    78  ASN78       0.2266
     78  O          4.3180   23.4580   23.6030 O.2    78  ASN78      -0.2867
     79  CB         3.1310   24.1080   20.5730 C.3    78  ASN78       0.1155
     80  CG         3.6970   24.5690   19.2510 C.2    78  ASN78       0.2627
     81  OD1        4.9050   24.5720   19.0640 O.2    78  ASN78      -0.2716
     82  ND2        2.8260   24.9780   18.3310 N.am   78  ASN78      -0.0877
     83  N          6.2690   21.3240   24.6370 N.3    81  LEU81      -0.1231
     84  CA         7.3980   22.2130   24.8870 C.3    81  LEU81       0.1693
     85  C          7.0350   23.2070   26.0050 C.2    81  LEU81       0.2591
     86  O          7.8340   23.4730   26.9110 O.2    81  LEU81      -0.2718
     87  CB         7.7920   22.9610   23.6080 C.3    81  LEU81       0.0284
     88  CG         9.0670   23.7950   23.7190 C.3    81  LEU81       0.0019
     89  CD1       10.2850   22.8970   23.9200 C.3    81  LEU81       0.0001
     90  CD2        9.2460   24.6460   22.5020 C.3    81  LEU81       0.0001
     91  N          5.8250   23.7580   25.9320 N.am   82  ALA82      -0.1980
     92  CA         5.3810   24.7530   26.9080 C.3    82  ALA82       0.1597
     93  C          5.4110   24.1160   28.2890 C.2    82  ALA82       0.2287
     94  O          5.8380   24.7330   29.2570 O.2    82  ALA82      -0.2864
     95  CB         3.9770   25.2860   26.5720 C.3    82  ALA82       0.0319
     96  N          8.8430   23.7790   29.5850 N.3    85  ILE85      -0.1245
     97  CA         9.3040   25.0740   30.0640 C.3    85  ILE85       0.1561
     98  C          8.7830   25.3670   31.4770 C.2    85  ILE85       0.2260
     99  O          9.5290   25.8840   32.3130 O.2    85  ILE85      -0.2867
    100  CB         8.8980   26.2030   29.1030 C.3    85  ILE85       0.0252
    101  CG1        9.5080   25.9480   27.7070 C.3    85  ILE85       0.0019
    102  CG2        9.3580   27.5420   29.6580 C.3    85  ILE85       0.0019
    103  CD1        9.1390   26.9650   26.6310 C.3    85  ILE85       0.0001
    104  N         10.7850   23.4320   33.8030 N.3    88  MET88      -0.1230
    105  CA        12.1050   24.0120   33.9610 C.3    88  MET88       0.1702
    106  C         12.0550   25.1340   35.0080 C.2    88  MET88       0.2592
    107  O         12.9350   25.2380   35.8510 O.2    88  MET88      -0.2718
    108  CB        12.6300   24.5460   32.6390 C.3    88  MET88       0.0401
    109  CG        14.0520   25.0500   32.7070 C.3    88  MET88       0.0596
    110  SD        14.3880   26.2320   31.3950 S.3    88  MET88      -0.1393
    111  CE        13.1450   27.4570   31.7770 C.3    88  MET88       0.0692
    112  N         11.0170   25.9610   34.9560 N.am   89  ARG89      -0.1980
    113  CA        10.8680   27.0690   35.8880 C.3    89  ARG89       0.1597
    114  C         10.7430   26.5740   37.3220 C.2    89  ARG89       0.2287
    115  O         11.3780   27.1060   38.2310 O.2    89  ARG89      -0.2864
    116  CB         9.6410   27.9150   35.5410 C.3    89  ARG89       0.0334
    117  CG         9.9200   29.1840   34.7510 C.3    89  ARG89       0.0492
    118  CD         9.6600   28.9660   33.2820 C.3    89  ARG89       0.2205
    119  NE         9.6780   30.2030   32.5020 N.pl3  89  ARG89      -0.0865
    120  CZ        10.7790   30.8970   32.2130 C.cat  89  ARG89       0.5346
    121  NH1       11.9640   30.4930   32.6660 N.pl3  89  ARG89       0.1354
    122  NH2       10.6950   32.0060   31.4820 N.pl3  89  ARG89       0.1354
@<TRIPOS>BOND
     1    70    69    2
     2    69    68    1
     3    68    71    1
     4    68    67    1
     5    66    65    2
     6    71    72    1
     7    65    64    1
     8    72    74   ar
     9    72    73   ar
    10    64    63    1
    11    58    57    2
    12    63    57   am
    13    57    56    1
    14    54    52    1
    15    53    52    1
    16    56    55    1
    17    56    59    1
    18    61    59    1
    19    52    51    2
    20    47    46    2
    21    59    60    1
    22    46    45    1
    23    51    50    1
    24    60    62    1
    25    49    50    1
    26    49    48    1
    27    39    38    2
    28    45    48    1
    29    45    44    1
    30    38    44   am
    31    38    37    1
    32    31    30    2
    33    37    36    1
    34    37    40    1
    35    30    29    1
    36    42    41    1
    37    82    80   am
    38    41    40    1
    39    41    43    1
    40    29    32    1
    41    29    28    1
    42    35    33    1
    43    32    33    1
    44    81    80    2
    45    27    26    2
    46    80    79    1
    47    33    34    1
    48    28    26   am
    49    26    25    1
    50    75    76    1
    51    79    76    1
    52    76    77    1
    53    25    24    1
    54    22    23    1
    55    22    21    1
    56    18    17    2
    57    90    88    1
    58    77    78    2
    59    17    16    1
    60    87    88    1
    61    87    84    1
    62    21    20    1
    63    20    19    1
    64    88    89    1
    65    16    19    1
    66    16    15    1
    67    83    84    1
    68    84    85    1
    69    11    10    2
    70    15    10   am
    71    10     9    1
    72    91    85   am
    73    91    92    1
    74    85    86    2
    75    95    92    1
    76   103   101    1
    77    92    93    1
    78     9     8    1
    79     9    12    1
    80   101   100    1
    81    13    12    1
    82     4     3    2
    83    12    14    1
    84    93    94    2
    85     3     2    1
    86   100   102    1
    87   100    97    1
    88     6     5    1
    89    96    97    1
    90    97    98    1
    91     2     5    1
    92     2     1    1
    93     5     7    1
    94   110   111    1
    95   110   109    1
    96    98    99    2
    97   122   120    1
    98   120   119    2
    99   120   121    1
   100   119   118    1
   101   108   109    1
   102   108   105    1
   103   118   117    1
   104   104   105    1
   105   105   106    1
   106   117   116    1
   107   112   106   am
   108   112   113    1
   109   106   107    2
   110   116   113    1
   111   113   114    1
   112   114   115    2
