@<TRIPOS>MOLECULE
tmp/4xefD00.pdb
 110 101 0 0 0
SMALL
GASTEIGER

@<TRIPOS>ATOM
      1  N         29.6960   63.5230   24.3040 N.3    37  VAL37      -0.1245
      2  CA        29.1880   63.9520   23.0230 C.3    37  VAL37       0.1561
      3  C         30.0220   63.3800   21.8920 C.2    37  VAL37       0.2260
      4  O         29.5170   63.1220   20.8000 O.2    37  VAL37      -0.2867
      5  CB        29.1700   65.4760   22.8910 C.3    37  VAL37       0.0252
      6  CG1       28.2690   65.8960   21.7300 C.3    37  VAL37       0.0019
      7  CG2       28.7080   66.1140   24.1720 C.3    37  VAL37       0.0019
      8  N         28.7750   59.8890   21.0450 N.3    40  VAL40      -0.1231
      9  CA        27.4100   59.9920   20.5170 C.3    40  VAL40       0.1692
     10  C         27.3820   60.6600   19.1410 C.2    40  VAL40       0.2591
     11  O         26.6650   60.2230   18.2290 O.2    40  VAL40      -0.2718
     12  CB        26.4910   60.7720   21.4730 C.3    40  VAL40       0.0266
     13  CG1       25.1160   60.9470   20.8490 C.3    40  VAL40       0.0020
     14  CG2       26.3770   60.0590   22.8270 C.3    40  VAL40       0.0020
     15  N         28.1740   61.7150   18.9930 N.am   41  LYS41      -0.1980
     16  CA        28.2850   62.3990   17.7210 C.3    41  LYS41       0.1596
     17  C         28.8560   61.4350   16.6900 C.2    41  LYS41       0.2287
     18  O         28.5050   61.4940   15.5260 O.2    41  LYS41      -0.2864
     19  CB        29.1600   63.6450   17.8530 C.3    41  LYS41       0.0298
     20  CG        29.2920   64.4520   16.5840 C.3    41  LYS41       0.0038
     21  CD        29.9300   65.7970   16.8610 C.3    41  LYS41       0.0206
     22  CE        29.0890   66.6310   17.8470 C.3    41  LYS41       0.1093
     23  NZ        29.5910   68.0500   17.9930 N.3    41  LYS41      -0.1314
     24  N         25.9110   59.1340   15.6380 N.3    44  GLY44      -0.1210
     25  CA        24.9740   59.8010   14.7380 C.3    44  GLY44       0.1956
     26  C         25.5150   59.9850   13.3200 C.2    44  GLY44       0.2611
     27  O         24.7810   59.8730   12.3350 O.2    44  GLY44      -0.2717
     28  N         26.8060   60.2570   13.1960 N.am   45  LEU45      -0.1979
     29  CA        27.4230   60.3730   11.8700 C.3    45  LEU45       0.1596
     30  C         27.5890   59.0410   11.1210 C.2    45  LEU45       0.2287
     31  O         27.5660   59.0220    9.8950 O.2    45  LEU45      -0.2864
     32  CB        28.7840   61.0580   11.9960 C.3    45  LEU45       0.0297
     33  CG        28.7860   62.5340   12.4240 C.3    45  LEU45       0.0022
     34  CD1       30.1670   63.0610   12.2270 C.3    45  LEU45       0.0001
     35  CD2       27.7860   63.3790   11.5820 C.3    45  LEU45       0.0001
     36  N         25.4740   56.6670   11.5780 N.3    47  LEU47      -0.1231
     37  CA        24.0530   56.4860   11.2360 C.3    47  LEU47       0.1693
     38  C         23.6850   57.2610    9.9830 C.2    47  LEU47       0.2591
     39  O         23.0450   56.7250    9.0710 O.2    47  LEU47      -0.2718
     40  CB        23.1260   56.9250   12.3700 C.3    47  LEU47       0.0284
     41  CG        21.6310   56.8960   11.9810 C.3    47  LEU47       0.0019
     42  CD1       21.2030   55.4910   11.6070 C.3    47  LEU47       0.0001
     43  CD2       20.7210   57.4210   13.0900 C.3    47  LEU47       0.0001
     44  N         24.0840   58.5280    9.9220 N.am   48  ARG48      -0.1980
     45  CA        23.7620   59.3260    8.7430 C.3    48  ARG48       0.1597
     46  C         24.4680   58.8080    7.4930 C.2    48  ARG48       0.2287
     47  O         23.9110   58.9130    6.3980 O.2    48  ARG48      -0.2864
     48  CB        24.1090   60.8000    8.9670 C.3    48  ARG48       0.0334
     49  CG        23.4980   61.7680    7.9250 C.3    48  ARG48       0.0492
     50  CD        24.3450   63.0210    7.8470 C.3    48  ARG48       0.2205
     51  NE        23.5940   64.1880    8.2670 N.pl3  48  ARG48      -0.0865
     52  CZ        24.0970   65.2200    8.9320 C.cat  48  ARG48       0.5346
     53  NH1       25.3730   65.2380    9.2750 N.pl3  48  ARG48       0.1354
     54  NH2       23.3100   66.2340    9.2710 N.pl3  48  ARG48       0.1354
     55  N         22.1810   55.8620    6.4710 N.3    51  ILE51      -0.1245
     56  CA        20.9570   56.3820    5.8880 C.3    51  ILE51       0.1561
     57  C         21.2120   56.8560    4.4600 C.2    51  ILE51       0.2260
     58  O         20.4500   56.5180    3.5530 O.2    51  ILE51      -0.2867
     59  CB        20.3870   57.5170    6.7650 C.3    51  ILE51       0.0252
     60  CG1       19.9540   56.9340    8.1220 C.3    51  ILE51       0.0019
     61  CG2       19.2450   58.2050    6.0780 C.3    51  ILE51       0.0019
     62  CD1       19.0800   55.7000    7.9810 C.3    51  ILE51       0.0001
     63  N         15.8200   56.9280   13.9310 N.3    77  ASN77      -0.1240
     64  CA        15.8000   58.3160   14.4200 C.3    77  ASN77       0.1653
     65  C         15.2890   58.4250   15.8470 C.2    77  ASN77       0.2266
     66  O         15.7380   59.2670   16.6310 O.2    77  ASN77      -0.2867
     67  CB        14.9170   59.2010   13.5410 C.3    77  ASN77       0.1155
     68  CG        15.6020   59.6510   12.2530 C.2    77  ASN77       0.2627
     69  OD1       16.8360   59.6950   12.1570 O.2    77  ASN77      -0.2716
     70  ND2       14.7900   60.0170   11.2610 N.am   77  ASN77      -0.0877
     71  N         18.0990   57.3220   18.0300 N.3    80  LEU80      -0.1231
     72  CA        19.1480   58.3270   18.1420 C.3    80  LEU80       0.1693
     73  C         18.6900   59.4290   19.0980 C.2    80  LEU80       0.2591
     74  O         19.4940   59.9360   19.8780 O.2    80  LEU80      -0.2718
     75  CB        19.5200   58.9220   16.7770 C.3    80  LEU80       0.0284
     76  CG        20.6550   59.9450   16.9500 C.3    80  LEU80       0.0019
     77  CD1       21.9220   59.2620   17.4530 C.3    80  LEU80       0.0001
     78  CD2       20.9310   60.7720   15.6870 C.3    80  LEU80       0.0001
     79  N         17.4030   59.7880   19.0550 N.am   81  ALA81      -0.1980
     80  CA        16.8450   60.7970   19.9710 C.3    81  ALA81       0.1597
     81  C         16.9100   60.2910   21.4020 C.2    81  ALA81       0.2287
     82  O         17.2940   61.0120   22.3260 O.2    81  ALA81      -0.2864
     83  CB        15.4110   61.1460   19.6060 C.3    81  ALA81       0.0319
     84  N         20.4540   60.5150   22.7280 N.3    84  ILE84      -0.1245
     85  CA        20.9080   61.8750   23.0010 C.3    84  ILE84       0.1561
     86  C         20.3680   62.4000   24.3190 C.2    84  ILE84       0.2260
     87  O         21.0790   63.1110   25.0390 O.2    84  ILE84      -0.2867
     88  CB        20.5110   62.8200   21.8530 C.3    84  ILE84       0.0252
     89  CG1       21.3120   62.4510   20.6010 C.3    84  ILE84       0.0019
     90  CG2       20.7910   64.2550   22.2100 C.3    84  ILE84       0.0019
     91  CD1       20.9770   63.2640   19.3600 C.3    84  ILE84       0.0001
     92  N         22.1990   60.8400   27.0170 N.3    87  MET87      -0.1230
     93  CA        23.4960   61.5020   27.0640 C.3    87  MET87       0.1702
     94  C         23.3740   62.7910   27.8510 C.2    87  MET87       0.2592
     95  O         24.2690   63.1560   28.6020 O.2    87  MET87      -0.2718
     96  CB        24.0100   61.7970   25.6560 C.3    87  MET87       0.0401
     97  CG        25.3780   62.4730   25.6040 C.3    87  MET87       0.0596
     98  SD        25.3210   64.0500   24.7280 S.3    87  MET87      -0.1393
     99  CE        25.7780   63.5620   23.1210 C.3    87  MET87       0.0692
    100  N         22.2530   63.4810   27.6670 N.am   88  ARG88      -0.1980
    101  CA        22.0300   64.7730   28.2910 C.3    88  ARG88       0.1597
    102  C         21.9160   64.6040   29.8010 C.2    88  ARG88       0.2287
    103  O         22.5620   65.3170   30.5710 O.2    88  ARG88      -0.2864
    104  CB        20.7730   65.4280   27.7230 C.3    88  ARG88       0.0334
    105  CG        20.9330   66.9050   27.4730 C.3    88  ARG88       0.0492
    106  CD        21.8840   67.1800   26.3130 C.3    88  ARG88       0.2205
    107  NE        21.1740   67.4690   25.0680 N.pl3  88  ARG88      -0.0865
    108  CZ        21.7330   67.9920   23.9770 C.cat  88  ARG88       0.5346
    109  NH1       23.0230   68.3060   23.9660 N.pl3  88  ARG88       0.1354
    110  NH2       20.9910   68.2100   22.8970 N.pl3  88  ARG88       0.1354
@<TRIPOS>BOND
     1    58    57    2
     2    57    56    1
     3    56    55    1
     4    56    59    1
     5    61    59    1
     6    47    46    2
     7    59    60    1
     8    46    45    1
     9    50    49    1
    10    50    51    1
    11    49    48    1
    12    62    60    1
    13    51    52    2
    14    45    48    1
    15    45    44    1
    16    52    54    1
    17    52    53    1
    18    39    38    2
    19    31    30    2
    20    44    38   am
    21    38    37    1
    22    30    29    1
    23    37    36    1
    24    37    40    1
    25    70    68   am
    26    35    33    1
    27    42    41    1
    28    29    32    1
    29    29    28    1
    30    41    40    1
    31    41    43    1
    32    32    33    1
    33    69    68    2
    34    34    33    1
    35    68    67    1
    36    27    26    2
    37    28    26   am
    38    26    25    1
    39    67    64    1
    40    63    64    1
    41    64    65    1
    42    25    24    1
    43    18    17    2
    44    78    76    1
    45    65    66    2
    46    20    21    1
    47    20    19    1
    48    17    16    1
    49    75    76    1
    50    75    72    1
    51    21    22    1
    52    76    77    1
    53    16    19    1
    54    16    15    1
    55    22    23    1
    56    71    72    1
    57    72    73    1
    58    11    10    2
    59    15    10   am
    60    79    73   am
    61    79    80    1
    62    73    74    2
    63    10     9    1
    64    91    89    1
    65    83    80    1
    66    80    81    1
    67     9     8    1
    68     9    12    1
    69    89    88    1
    70     4     3    2
    71    13    12    1
    72    81    82    2
    73    12    14    1
    74     6     5    1
    75    88    90    1
    76    88    85    1
    77     3     2    1
    78    84    85    1
    79     5     2    1
    80     5     7    1
    81   110   108    1
    82    85    86    1
    83     2     1    1
    84    99    98    1
    85   109   108    1
    86   108   107    2
    87    86    87    2
    88    98    97    1
    89   107   106    1
    90    97    96    1
    91    96    93    1
    92   106   105    1
    93    92    93    1
    94    93    94    1
    95   105   104    1
    96   100    94   am
    97   100   101    1
    98   104   101    1
    99    94    95    2
   100   101   102    1
   101   102   103    2
