@<TRIPOS>MOLECULE
tmp/4xeqB00.pdb
 122 116 0 0 0
SMALL
GASTEIGER

@<TRIPOS>ATOM
      1  N        110.7630  -44.9310   61.2440 N.3     9  VAL9       -0.1231
      2  CA       111.1450  -46.0960   60.4350 C.3     9  VAL9        0.1692
      3  C        111.9530  -45.6930   59.1890 C.2     9  VAL9        0.2592
      4  O        112.4970  -46.5510   58.4850 O.2     9  VAL9       -0.2718
      5  CB       109.8960  -46.9190   60.0510 C.3     9  VAL9        0.0266
      6  CG1      109.0540  -46.1770   58.9760 C.3     9  VAL9        0.0020
      7  CG2      110.2750  -48.3080   59.6010 C.3     9  VAL9        0.0020
      8  N        112.0590  -44.3870   58.9330 N.am   10  THR10      -0.1953
      9  CA       112.7240  -43.8910   57.7520 C.3    10  THR10       0.1897
     10  C        114.0980  -43.2550   58.0650 C.2    10  THR10       0.2313
     11  O        114.5630  -43.2410   59.2220 O.2    10  THR10      -0.2863
     12  CB       111.8350  -42.8900   57.0210 C.3    10  THR10       0.1794
     13  OG1      111.4510  -41.8720   57.9440 O.3    10  THR10      -0.2208
     14  CG2      110.5950  -43.5810   56.4490 C.3    10  THR10       0.0378
     15  N        109.2070  -37.6980   58.3940 N.3    16  GLN16      -0.1245
     16  CA       109.0980  -37.8910   59.8520 C.3    16  GLN16       0.1566
     17  C        110.4590  -37.7450   60.5690 C.2    16  GLN16       0.2260
     18  O        110.5470  -37.2850   61.7250 O.2    16  GLN16      -0.2867
     19  CB       108.3780  -39.2170   60.2090 C.3    16  GLN16       0.0367
     20  CG       109.0110  -40.5190   59.7150 C.3    16  GLN16       0.0905
     21  CD       108.3920  -41.0410   58.4200 C.2    16  GLN16       0.2608
     22  OE1      108.4950  -40.4020   57.3830 O.2    16  GLN16      -0.2717
     23  NE2      107.7450  -42.2110   58.4820 N.am   16  GLN16      -0.0878
     24  N        106.9520  -50.0130   61.2830 N.3    48  GLU48      -0.1245
     25  CA       106.2340  -49.0990   62.1330 C.3    48  GLU48       0.1567
     26  C        105.3530  -49.8720   63.1070 C.2    48  GLU48       0.2260
     27  O        105.1140  -49.4170   64.2140 O.2    48  GLU48      -0.2867
     28  CB       105.4240  -48.1130   61.3230 C.3    48  GLU48       0.0388
     29  CG       106.2760  -47.3690   60.3490 C.3    48  GLU48       0.1160
     30  CD       105.5730  -46.1630   59.7650 C.2    48  GLU48       0.3649
     31  OE1      104.6400  -46.3210   58.9180 O.co2  48  GLU48      -0.2457
     32  OE2      105.9600  -45.0360   60.1510 O.co2  48  GLU48      -0.2457
     33  N        103.3620  -43.3130   60.4850 N.3    65  THR65      -0.1218
     34  CA       102.2560  -43.1360   59.5860 C.3    65  THR65       0.1862
     35  C        100.9700  -43.5650   60.2970 C.2    65  THR65       0.2287
     36  O        100.8820  -44.6560   60.8510 O.2    65  THR65      -0.2866
     37  CB       102.4710  -43.9590   58.3390 C.3    65  THR65       0.1770
     38  OG1      103.8470  -43.9000   57.9790 O.3    65  THR65      -0.2211
     39  CG2      101.6240  -43.4110   57.2140 C.3    65  THR65       0.0375
     40  N        102.7610  -36.5270   56.1560 N.3   119  ASN119     -0.1240
     41  CA       103.3460  -37.4870   55.2340 C.3   119  ASN119      0.1653
     42  C        103.0340  -37.0100   53.8100 C.2   119  ASN119      0.2266
     43  O        103.9600  -36.7570   53.0490 O.2   119  ASN119     -0.2867
     44  CB       102.8030  -38.8870   55.4890 C.3   119  ASN119      0.1155
     45  CG       103.5930  -39.9810   54.7770 C.2   119  ASN119      0.2627
     46  OD1      104.7430  -39.7970   54.4270 O.2   119  ASN119     -0.2716
     47  ND2      102.9600  -41.1370   54.5690 N.am  119  ASN119     -0.0877
     48  N         98.8720  -39.5360   48.9340 N.3   122  ARG122     -0.1245
     49  CA        99.5050  -40.7480   48.4090 C.3   122  ARG122      0.1563
     50  C         99.1370  -40.9190   46.9300 C.2   122  ARG122      0.2260
     51  O         97.9650  -40.7760   46.5410 O.2   122  ARG122     -0.2867
     52  CB        99.0630  -41.9780   49.2240 C.3   122  ARG122      0.0307
     53  CG        99.3380  -41.8610   50.7060 C.3   122  ARG122      0.0489
     54  CD        98.9010  -43.0790   51.4810 C.3   122  ARG122      0.2205
     55  NE        99.7910  -44.2310   51.3270 N.pl3 122  ARG122     -0.0865
     56  CZ       100.8410  -44.5150   52.1060 C.cat 122  ARG122      0.5346
     57  NH1      101.1990  -43.7250   53.1250 N.pl3 122  ARG122      0.1354
     58  NH2      101.5520  -45.6140   51.8730 N.pl3 122  ARG122      0.1354
     59  N        101.2230  -53.1980   46.7840 N.3   142  ARG142     -0.1245
     60  CA       101.5600  -53.2120   48.2010 C.3   142  ARG142      0.1563
     61  C        100.7300  -52.1390   48.8860 C.2   142  ARG142      0.2260
     62  O        100.5550  -51.0570   48.3520 O.2   142  ARG142     -0.2867
     63  CB       103.0510  -52.9680   48.4280 C.3   142  ARG142      0.0307
     64  CG       103.4430  -52.8560   49.9080 C.3   142  ARG142      0.0489
     65  CD       103.3000  -51.4190   50.4090 C.3   142  ARG142      0.2205
     66  NE       103.8070  -51.2360   51.7630 N.pl3 142  ARG142     -0.0865
     67  CZ       103.9920  -50.0480   52.3220 C.cat 142  ARG142      0.5346
     68  NH1      103.7190  -48.9290   51.6510 N.pl3 142  ARG142      0.1354
     69  NH2      104.4390  -49.9770   53.5630 N.pl3 142  ARG142      0.1354
     70  N        107.3220  -51.5310   55.9090 N.3   163  TRP163     -0.1241
     71  CA       108.4360  -50.8790   55.2350 C.3   163  TRP163      0.1605
     72  C        109.7780  -51.5030   55.6800 C.2   163  TRP163      0.2264
     73  O        109.9190  -51.8370   56.8690 O.2   163  TRP163     -0.2867
     74  CB       108.4030  -49.4070   55.6210 C.3   163  TRP163      0.0550
     75  CG       109.2050  -48.5320   54.7860 C.ar  163  TRP163      0.0003
     76  CD1      110.3720  -47.9100   55.1290 C.ar  163  TRP163      0.0946
     77  CD2      108.9090  -48.1340   53.4520 C.ar  163  TRP163      0.0152
     78  NE1      110.8360  -47.1600   54.0690 N.ar  163  TRP163     -0.2442
     79  CE2      109.9510  -47.2790   53.0250 C.ar  163  TRP163      0.0810
     80  CE3      107.8720  -48.4250   52.5660 C.ar  163  TRP163      0.0012
     81  CZ2      109.9770  -46.7020   51.7480 C.ar  163  TRP163      0.0191
     82  CZ3      107.9050  -47.8620   51.3020 C.ar  163  TRP163      0.0001
     83  CH2      108.9470  -47.0050   50.9040 C.ar  163  TRP163      0.0015
     84  N        102.2280  -43.9040   47.6340 N.3   179  ASN179     -0.1240
     85  CA       102.8920  -43.1310   48.6600 C.3   179  ASN179      0.1653
     86  C        103.0420  -41.6920   48.1970 C.2   179  ASN179      0.2266
     87  O        102.8980  -41.4080   47.0320 O.2   179  ASN179     -0.2867
     88  CB       104.2710  -43.7250   48.9130 C.3   179  ASN179      0.1155
     89  CG       104.3880  -44.4170   50.2560 C.2   179  ASN179      0.2627
     90  OD1      104.0120  -43.8540   51.2890 O.2   179  ASN179     -0.2716
     91  ND2      104.9110  -45.6450   50.2530 N.am  179  ASN179     -0.0877
     92  N        107.4870  -37.5160   48.0170 N.3   182  TRP182     -0.1227
     93  CA       108.7710  -37.5470   48.6980 C.3   182  TRP182      0.1737
     94  C        109.2690  -38.9830   48.9080 C.2   182  TRP182      0.2595
     95  O        110.4630  -39.2120   48.8920 O.2   182  TRP182     -0.2718
     96  CB       108.7250  -36.7730   50.0150 C.3   182  TRP182      0.0564
     97  CG       108.1350  -37.4960   51.1890 C.ar  182  TRP182      0.0003
     98  CD1      106.9050  -37.2970   51.7060 C.ar  182  TRP182      0.0946
     99  CD2      108.7620  -38.5040   52.0200 C.ar  182  TRP182      0.0152
    100  NE1      106.7010  -38.1130   52.7930 N.ar  182  TRP182     -0.2442
    101  CE2      107.8190  -38.8650   53.0160 C.ar  182  TRP182      0.0810
    102  CE3      110.0080  -39.1340   52.0180 C.ar  182  TRP182      0.0012
    103  CZ2      108.0800  -39.8300   54.0000 C.ar  182  TRP182      0.0191
    104  CZ3      110.2820  -40.0930   53.0130 C.ar  182  TRP182      0.0001
    105  CH2      109.3110  -40.4370   53.9840 C.ar  182  TRP182      0.0015
    106  N        108.3760  -39.9490   49.1010 N.am  183  VAL183     -0.1980
    107  CA       108.8210  -41.2990   49.3750 C.3   183  VAL183      0.1595
    108  C        109.3140  -41.8950   48.0740 C.2   183  VAL183      0.2287
    109  O        110.3710  -42.5390   48.0140 O.2   183  VAL183     -0.2864
    110  CB       107.6950  -42.1840   49.9120 C.3   183  VAL183      0.0276
    111  CG1      108.1730  -43.6440   50.0350 C.3   183  VAL183      0.0022
    112  CG2      107.1820  -41.6640   51.2480 C.3   183  VAL183      0.0022
    113  N        101.4070  -38.5380   59.6490 N.3   206  HIS206     -0.1241
    114  CA       102.0270  -39.3040   60.7160 C.3   206  HIS206      0.1621
    115  C        101.4300  -38.8610   62.0330 C.2   206  HIS206      0.2264
    116  O        100.9870  -37.7310   62.1810 O.2   206  HIS206     -0.2867
    117  CB       103.5250  -39.0270   60.8190 C.3   206  HIS206      0.0745
    118  CG       104.2600  -39.2840   59.5600 C.ar  206  HIS206      0.0817
    119  ND1      104.8170  -38.2750   58.8120 N.ar  206  HIS206     -0.2268
    120  CD2      104.5210  -40.4390   58.8980 C.ar  206  HIS206      0.1154
    121  CE1      105.3940  -38.7920   57.7410 C.ar  206  HIS206      0.1986
    122  NE2      105.2170  -40.1020   57.7670 N.ar  206  HIS206     -0.2212
@<TRIPOS>BOND
     1    51    50    2
     2    59    60    1
     3    50    49    1
     4    87    86    2
     5    84    85    1
     6   109   108    2
     7    92    93    1
     8   108   107    1
     9    86    85    1
    10    60    63    1
    11    60    61    1
    12    62    61    2
    13    49    48    1
    14    49    52    1
    15    63    64    1
    16    85    88    1
    17    93    94    1
    18    93    96    1
    19    95    94    2
    20    94   106   am
    21    88    89    1
    22   106   107    1
    23    52    53    1
    24   107   110    1
    25    64    65    1
    26   110   111    1
    27   110   112    1
    28    96    97    1
    29    91    89   am
    30    89    90    2
    31    65    66    1
    32    53    54    1
    33    83    82   ar
    34    83    81   ar
    35    97    98   ar
    36    97    99   ar
    37    82    80   ar
    38    55    54    1
    39    55    56    2
    40    68    67    1
    41    98   100   ar
    42    81    79   ar
    43    66    67    2
    44    58    56    1
    45   102    99   ar
    46   102   104   ar
    47    99   101   ar
    48    56    57    1
    49    67    69    1
    50    80    77   ar
    51   100   101   ar
    52   104   105   ar
    53   101   103   ar
    54    79    77   ar
    55    79    78   ar
    56    43    42    2
    57    77    75   ar
    58    42    41    1
    59   105   103   ar
    60    78    76   ar
    61    46    45    2
    62    47    45   am
    63    45    44    1
    64    75    76   ar
    65    75    74    1
    66    41    44    1
    67    41    40    1
    68    71    74    1
    69    71    72    1
    70    71    70    1
    71    72    73    2
    72    14    12    1
    73    12     9    1
    74    12    13    1
    75    39    37    1
    76    22    21    2
    77   121   122   ar
    78   121   119   ar
    79     9    10    1
    80     9     8    1
    81   122   120   ar
    82    38    37    1
    83    10    11    2
    84    37    34    1
    85    15    16    1
    86    21    23   am
    87    21    20    1
    88     4     3    2
    89   119   118   ar
    90   120   118   ar
    91    31    30   ar
    92     8     3   am
    93     6     5    1
    94     3     2    1
    95   118   117    1
    96    34    35    1
    97    34    33    1
    98     7     5    1
    99   113   114    1
   100    20    19    1
   101    30    32   ar
   102    30    29    1
   103    16    19    1
   104    16    17    1
   105     5     2    1
   106    35    36    2
   107    29    28    1
   108     2     1    1
   109    17    18    2
   110   114   117    1
   111   114   115    1
   112    24    25    1
   113    28    25    1
   114   115   116    2
   115    25    26    1
   116    26    27    2
