@<TRIPOS>MOLECULE
tmp/4xesA02.pdb
 84 78 0 0 0
SMALL
GASTEIGER

@<TRIPOS>ATOM
      1  N         16.0030  -24.7380  -20.9640 N.3   123  ILE123     -0.1231
      2  CA        15.7430  -25.5230  -22.1700 C.3   123  ILE123      0.1692
      3  C         16.9780  -25.6680  -23.0500 C.2   123  ILE123      0.2592
      4  O         17.2520  -26.7680  -23.5240 O.2   123  ILE123     -0.2718
      5  CB        14.5500  -24.9550  -22.9770 C.3   123  ILE123      0.0266
      6  CG1       13.2180  -25.4220  -22.3710 C.3   123  ILE123      0.0019
      7  CG2       14.5710  -25.4350  -24.4240 C.3   123  ILE123      0.0020
      8  CD1       12.9810  -25.0610  -20.9150 C.3   123  ILE123      0.0001
      9  N         17.7170  -24.5810  -23.2720 N.am  124  CYS124     -0.1970
     10  CA        18.8590  -24.6050  -24.2040 C.3   124  CYS124      0.1712
     11  C         20.1960  -24.9860  -23.5600 C.2   124  CYS124      0.2296
     12  O         21.1010  -25.4340  -24.2480 O.2   124  CYS124     -0.2864
     13  CB        19.0040  -23.2600  -24.9320 C.3   124  CYS124      0.0983
     14  SG        17.6390  -22.8520  -26.0560 S.3   124  CYS124     -0.0798
     15  N         20.6900  -27.0300  -20.2980 N.3   126  PRO126     -0.2116
     16  CA        20.2440  -27.7500  -19.1120 C.3   126  PRO126      0.1372
     17  C         21.3720  -28.2070  -18.2070 C.2   126  PRO126      0.2244
     18  O         21.1810  -28.3960  -17.0210 O.2   126  PRO126     -0.2868
     19  CB        19.5480  -28.9640  -19.6950 C.3   126  PRO126      0.0268
     20  CG        20.0000  -29.0430  -21.0950 C.3   126  PRO126      0.0207
     21  CD        20.2230  -27.6520  -21.5290 C.3   126  PRO126      0.0892
     22  N         12.5000  -23.8610  -30.3860 N.3   215  LYS215     -0.1245
     23  CA        13.1800  -25.0300  -29.8810 C.3   215  LYS215      0.1561
     24  C         12.1710  -25.9830  -29.2610 C.2   215  LYS215      0.2260
     25  O         12.2420  -27.1950  -29.4670 O.2   215  LYS215     -0.2867
     26  CB        14.2550  -24.6470  -28.8690 C.3   215  LYS215      0.0271
     27  CG        14.9370  -25.8500  -28.2310 C.3   215  LYS215      0.0035
     28  CD        16.3760  -25.5370  -27.8420 C.3   215  LYS215      0.0206
     29  CE        17.0990  -26.7430  -27.2470 C.3   215  LYS215      0.1093
     30  NZ        17.4330  -27.8110  -28.2400 N.3   215  LYS215     -0.1314
     31  N         11.1930  -29.9620  -30.0450 N.3   219  MET219     -0.1245
     32  CA        11.2190  -30.9410  -28.9710 C.3   219  MET219      0.1570
     33  C          9.9460  -31.7760  -28.8950 C.2   219  MET219      0.2261
     34  O         10.0070  -32.9720  -28.6500 O.2   219  MET219     -0.2867
     35  CB        11.4130  -30.2370  -27.6320 C.3   219  MET219      0.0387
     36  CG        12.8200  -29.7170  -27.4040 C.3   219  MET219      0.0595
     37  SD        13.0060  -28.9320  -25.7900 S.3   219  MET219     -0.1393
     38  CE        12.9900  -30.3590  -24.7040 C.3   219  MET219      0.0692
     39  N         18.6410  -34.9370  -26.0180 N.3   378  ASP378     -0.1239
     40  CA        19.6980  -33.9740  -25.7390 C.3   378  ASP378      0.1674
     41  C         20.9790  -34.4250  -26.4300 C.2   378  ASP378      0.2266
     42  O         21.6190  -33.6470  -27.1290 O.2   378  ASP378     -0.2867
     43  CB        19.9210  -33.8750  -24.2220 C.3   378  ASP378      0.1410
     44  CG        20.9860  -32.8470  -23.8280 C.2   378  ASP378      0.3668
     45  OD1       22.2020  -33.0830  -24.0570 O.co2 378  ASP378     -0.2456
     46  OD2       20.6040  -31.8110  -23.2380 O.co2 378  ASP378     -0.2456
     47  N         20.8720  -34.0800  -30.3620 N.3   381  VAL381     -0.1231
     48  CA        20.9380  -32.7320  -30.9190 C.3   381  VAL381      0.1692
     49  C         22.3340  -32.1490  -30.7510 C.2   381  VAL381      0.2591
     50  O         22.8150  -31.4500  -31.6220 O.2   381  VAL381     -0.2718
     51  CB        19.8520  -31.8140  -30.3370 C.3   381  VAL381      0.0266
     52  CG1       19.9130  -30.4370  -30.9690 C.3   381  VAL381      0.0020
     53  CG2       18.4880  -32.4170  -30.6080 C.3   381  VAL381      0.0020
     54  N         23.0050  -32.4580  -29.6550 N.am  382  ARG382     -0.1980
     55  CA        24.3890  -32.0300  -29.5030 C.3   382  ARG382      0.1597
     56  C         25.2570  -32.6260  -30.6070 C.2   382  ARG382      0.2287
     57  O         26.0090  -31.9110  -31.2650 O.2   382  ARG382     -0.2864
     58  CB        24.9160  -32.4000  -28.1250 C.3   382  ARG382      0.0334
     59  CG        24.2600  -31.5920  -27.0330 C.3   382  ARG382      0.0492
     60  CD        24.9080  -31.8350  -25.6920 C.3   382  ARG382      0.2205
     61  NE        24.0930  -31.2850  -24.6060 N.pl3 382  ARG382     -0.0865
     62  CZ        24.0000  -29.9850  -24.2900 C.cat 382  ARG382      0.5346
     63  NH1       24.6670  -29.0600  -24.9830 N.pl3 382  ARG382      0.1354
     64  NH2       23.2280  -29.5990  -23.2670 N.pl3 382  ARG382      0.1354
     65  N         24.7410  -30.6680  -33.7610 N.3   385  LEU385     -0.1245
     66  CA        25.1880  -29.2770  -33.7440 C.3   385  LEU385      0.1561
     67  C         26.7080  -29.1610  -33.7170 C.2   385  LEU385      0.2260
     68  O         27.2500  -28.1350  -34.1260 O.2   385  LEU385     -0.2867
     69  CB        24.5700  -28.5070  -32.5680 C.3   385  LEU385      0.0270
     70  CG        23.0310  -28.4710  -32.5160 C.3   385  LEU385      0.0019
     71  CD1       22.5520  -27.8860  -31.2020 C.3   385  LEU385      0.0001
     72  CD2       22.4300  -27.7110  -33.6920 C.3   385  LEU385      0.0001
     73  N         20.6550  -29.4610  -40.7630 N.3   394  TYR394     -0.1241
     74  CA        19.7450  -29.0580  -39.6690 C.3   394  TYR394      0.1605
     75  C         19.3320  -27.5910  -39.6860 C.2   394  TYR394      0.2264
     76  O         18.1660  -27.2750  -39.4830 O.2   394  TYR394     -0.2867
     77  CB        20.3870  -29.3210  -38.3060 C.3   394  TYR394      0.0534
     78  CG        19.4010  -29.2790  -37.1610 C.ar  394  TYR394     -0.0201
     79  CD1       18.5690  -30.3620  -36.9120 C.ar  394  TYR394     -0.0009
     80  CD2       19.3110  -28.1650  -36.3210 C.ar  394  TYR394     -0.0009
     81  CE1       17.6570  -30.3410  -35.8730 C.ar  394  TYR394      0.0417
     82  CE2       18.4110  -28.1310  -35.2700 C.ar  394  TYR394      0.0417
     83  CZ        17.5820  -29.2270  -35.0490 C.ar  394  TYR394      0.1957
     84  OH        16.6710  -29.2300  -34.0150 O.3   394  TYR394     -0.2866
@<TRIPOS>BOND
     1    73    74    1
     2    75    74    1
     3    75    76    2
     4    74    77    1
     5    77    78    1
     6    78    79   ar
     7    78    80   ar
     8    79    81   ar
     9    80    82   ar
    10    81    83   ar
    11    82    83   ar
    12    83    84    1
    13    68    67    2
    14    65    66    1
    15    66    67    1
    16    66    69    1
    17    72    70    1
    18    69    70    1
    19    70    71    1
    20    50    49    2
    21    57    56    2
    22    52    51    1
    23    48    49    1
    24    48    47    1
    25    48    51    1
    26    49    54   am
    27    53    51    1
    28    56    55    1
    29    22    23    1
    30    31    32    1
    31    23    24    1
    32    23    26    1
    33    54    55    1
    34    55    58    1
    35    25    24    2
    36    32    33    1
    37    32    35    1
    38    33    34    2
    39    26    27    1
    40    30    29    1
    41    27    28    1
    42    58    59    1
    43    28    29    1
    44    35    36    1
    45    36    37    1
    46    42    41    2
    47    59    60    1
    48    41    40    1
    49    14    13    1
    50    39    40    1
    51    37    38    1
    52    40    43    1
    53    60    61    1
    54    63    62    1
    55    13    10    1
    56    61    62    2
    57     7     5    1
    58    62    64    1
    59    12    11    2
    60    43    44    1
    61    10    11    1
    62    10     9    1
    63    45    44   ar
    64    44    46   ar
    65     4     3    2
    66     9     3   am
    67     3     2    1
    68     5     6    1
    69     5     2    1
    70     6     8    1
    71     2     1    1
    72    21    20    1
    73    21    15    1
    74    20    19    1
    75    15    16    1
    76    19    16    1
    77    16    17    1
    78    17    18    2
