@<TRIPOS>MOLECULE
tmp/4xesA07.pdb
 90 88 0 0 0
SMALL
GASTEIGER

@<TRIPOS>ATOM
      1  N         19.5210  -56.3890  -29.9410 N.3   330  TYR330     -0.1241
      2  CA        20.1830  -55.7800  -28.7700 C.3   330  TYR330      0.1605
      3  C         19.1940  -55.3750  -27.6940 C.2   330  TYR330      0.2264
      4  O         18.1530  -54.8300  -27.9930 O.2   330  TYR330     -0.2867
      5  CB        20.9480  -54.5180  -29.1460 C.3   330  TYR330      0.0534
      6  CG        21.9940  -54.6460  -30.2240 C.ar  330  TYR330     -0.0201
      7  CD1       22.9900  -55.6120  -30.1570 C.ar  330  TYR330     -0.0009
      8  CD2       22.0140  -53.7500  -31.2880 C.ar  330  TYR330     -0.0009
      9  CE1       23.9600  -55.7030  -31.1310 C.ar  330  TYR330      0.0417
     10  CE2       22.9800  -53.8270  -32.2660 C.ar  330  TYR330      0.0417
     11  CZ        23.9560  -54.7990  -32.1890 C.ar  330  TYR330      0.1957
     12  OH        24.9130  -54.8470  -33.1830 O.3   330  TYR330     -0.2866
     13  N         13.2970  -46.4560  -26.9610 N.3   336  GLY336     -0.1210
     14  CA        14.4610  -46.6230  -27.8120 C.3   336  GLY336      0.1956
     15  C         15.8160  -46.5050  -27.1430 C.2   336  GLY336      0.2612
     16  O         16.8190  -46.3440  -27.8310 O.2   336  GLY336     -0.2717
     17  N         15.8790  -46.6190  -25.8210 N.am  337  HIS337     -0.1961
     18  CA        17.1740  -46.5500  -25.1390 C.3   337  HIS337      0.1787
     19  C         17.9610  -47.8590  -25.2370 C.2   337  HIS337      0.2620
     20  O         17.5900  -48.8600  -24.6410 O.2   337  HIS337     -0.2715
     21  CB        17.0140  -46.1680  -23.6760 C.3   337  HIS337      0.0785
     22  CG        18.3170  -45.9390  -22.9790 C.ar  337  HIS337      0.0821
     23  ND1       19.0770  -44.8080  -23.1790 N.ar  337  HIS337     -0.2267
     24  CD2       19.0030  -46.7010  -22.0940 C.ar  337  HIS337      0.1154
     25  CE1       20.1720  -44.8770  -22.4430 C.ar  337  HIS337      0.1986
     26  NE2       20.1530  -46.0170  -21.7760 N.ar  337  HIS337     -0.2212
     27  N         19.0610  -47.8360  -25.9830 N.am  338  LEU338     -0.1977
     28  CA        19.9410  -48.9890  -26.1020 C.3   338  LEU338      0.1596
     29  C         20.7710  -49.0810  -24.8600 C.2   338  LEU338      0.2287
     30  O         21.4480  -48.1220  -24.5120 O.2   338  LEU338     -0.2864
     31  CB        20.8690  -48.8240  -27.2950 C.3   338  LEU338      0.0297
     32  CG        21.9160  -49.9190  -27.5060 C.3   338  LEU338      0.0022
     33  CD1       21.2750  -51.2330  -27.9160 C.3   338  LEU338      0.0001
     34  CD2       22.9050  -49.4660  -28.5630 C.3   338  LEU338      0.0001
     35  N         25.3310  -53.6240  -26.2380 N.3   341  LYS341     -0.1245
     36  CA        25.4020  -54.5270  -27.3840 C.3   341  LYS341      0.1561
     37  C         25.8550  -55.9390  -27.0040 C.2   341  LYS341      0.2260
     38  O         25.9460  -56.7980  -27.8760 O.2   341  LYS341     -0.2867
     39  CB        26.3250  -53.9600  -28.4560 C.3   341  LYS341      0.0271
     40  CG        25.9650  -52.5490  -28.8770 C.3   341  LYS341      0.0035
     41  CD        26.4350  -52.2530  -30.2810 C.3   341  LYS341      0.0206
     42  CE        26.0870  -50.8390  -30.7030 C.3   341  LYS341      0.1093
     43  NZ        26.2220  -50.6720  -32.1780 N.3   341  LYS341     -0.1314
     44  N         18.6480  -38.8150  -24.0180 N.3   376  ASP376     -0.1239
     45  CA        19.0750  -39.3240  -25.3220 C.3   376  ASP376      0.1674
     46  C         18.7860  -38.3350  -26.4730 C.2   376  ASP376      0.2266
     47  O         19.4780  -38.3200  -27.4770 O.2   376  ASP376     -0.2867
     48  CB        18.3960  -40.6670  -25.6420 C.3   376  ASP376      0.1410
     49  CG        18.7710  -41.8040  -24.6540 C.2   376  ASP376      0.3668
     50  OD1       19.9540  -41.9200  -24.2450 O.co2 376  ASP376     -0.2456
     51  OD2       17.8700  -42.6180  -24.3120 O.co2 376  ASP376     -0.2456
     52  N         19.1900  -39.6420  -36.2500 N.3   409  VAL409     -0.1231
     53  CA        20.3620  -39.6030  -35.3710 C.3   409  VAL409      0.1692
     54  C         20.0880  -40.3630  -34.0870 C.2   409  VAL409      0.2592
     55  O         20.9660  -41.0640  -33.5770 O.2   409  VAL409     -0.2718
     56  CB        20.8280  -38.1540  -35.0920 C.3   409  VAL409      0.0266
     57  CG1       21.9120  -38.0970  -34.0230 C.3   409  VAL409      0.0020
     58  CG2       21.3740  -37.5320  -36.3730 C.3   409  VAL409      0.0020
     59  N         18.8690  -40.2530  -33.5820 N.am  410  PHE410     -0.1962
     60  CA        18.4250  -41.0760  -32.4650 C.3   410  PHE410      0.1771
     61  C         18.5930  -42.5730  -32.7360 C.2   410  PHE410      0.2619
     62  O         18.9990  -43.3330  -31.8430 O.2   410  PHE410     -0.2715
     63  CB        16.9500  -40.8220  -32.1720 C.3   410  PHE410      0.0574
     64  CG        16.5430  -41.2070  -30.7830 C.ar  410  PHE410     -0.0200
     65  CD1       16.6990  -40.3190  -29.7440 C.ar  410  PHE410     -0.0042
     66  CD2       16.0070  -42.4620  -30.5230 C.ar  410  PHE410     -0.0042
     67  CE1       16.3310  -40.6650  -28.4660 C.ar  410  PHE410     -0.0003
     68  CE2       15.6490  -42.8230  -29.2470 C.ar  410  PHE410     -0.0003
     69  CZ        15.8020  -41.9180  -28.2180 C.ar  410  PHE410     -0.0000
     70  N         18.2510  -43.0080  -33.9510 N.am  411  GLN411     -0.1963
     71  CA        18.2430  -44.4420  -34.2460 C.3   411  GLN411      0.1733
     72  C         19.6360  -44.9560  -34.5830 C.2   411  GLN411      0.2616
     73  O         19.9680  -46.0890  -34.2290 O.2   411  GLN411     -0.2715
     74  CB        17.2810  -44.7600  -35.3910 C.3   411  GLN411      0.0408
     75  CG        17.0860  -46.2550  -35.6480 C.3   411  GLN411      0.0908
     76  CD        16.4370  -46.5520  -36.9890 C.2   411  GLN411      0.2608
     77  OE1       16.1980  -45.6590  -37.7860 O.2   411  GLN411     -0.2717
     78  NE2       16.1290  -47.8170  -37.2330 N.am  411  GLN411     -0.0878
     79  N         20.4420  -44.1270  -35.2510 N.am  412  MET412     -0.1963
     80  CA        21.7150  -44.5670  -35.8420 C.3   412  MET412      0.1736
     81  C         22.9750  -43.8870  -35.3440 C.2   412  MET412      0.2617
     82  O         24.0600  -44.3840  -35.5670 O.2   412  MET412     -0.2715
     83  CB        21.6670  -44.3380  -37.3410 C.3   412  MET412      0.0427
     84  CG        21.0140  -45.4630  -38.1080 C.3   412  MET412      0.0599
     85  SD        21.0310  -45.0130  -39.8430 S.3   412  MET412     -0.1393
     86  CE        19.6260  -43.9000  -39.8530 C.3   412  MET412      0.0692
     87  N         22.8300  -42.7240  -34.7210 N.am  413  GLY413     -0.1955
     88  CA        23.9560  -41.9500  -34.2590 C.3   413  GLY413      0.1869
     89  C         24.4470  -40.8870  -35.2170 C.2   413  GLY413      0.2309
     90  O         24.2540  -40.9630  -36.4210 O.2   413  GLY413     -0.2863
@<TRIPOS>BOND
     1    86    85    1
     2    85    84    1
     3    84    83    1
     4    77    76    2
     5    83    80    1
     6    78    76   am
     7    76    75    1
     8    90    89    2
     9    58    56    1
    10    52    53    1
    11    80    81    1
    12    80    79    1
    13    75    74    1
    14    82    81    2
    15    74    71    1
    16    53    56    1
    17    53    54    1
    18    81    87   am
    19    79    72   am
    20    89    88    1
    21    56    57    1
    22    87    88    1
    23    72    71    1
    24    72    73    2
    25    71    70    1
    26    54    59   am
    27    54    55    2
    28    70    61   am
    29    59    60    1
    30    12    11    1
    31    61    60    1
    32    61    62    2
    33    60    63    1
    34    10    11   ar
    35    10     8   ar
    36    11     9   ar
    37    43    42    1
    38    63    64    1
    39     8     6   ar
    40     9     7   ar
    41    64    66   ar
    42    64    65   ar
    43    42    41    1
    44    66    68   ar
    45    41    40    1
    46     6     7   ar
    47     6     5    1
    48     1     2    1
    49    65    67   ar
    50    68    69   ar
    51     5     2    1
    52    40    39    1
    53     2     3    1
    54    34    32    1
    55    67    69   ar
    56    39    36    1
    57     4     3    2
    58    33    32    1
    59    38    37    2
    60    16    15    2
    61    14    15    1
    62    14    13    1
    63    32    31    1
    64    47    46    2
    65    36    37    1
    66    36    35    1
    67    31    28    1
    68    15    17   am
    69    46    45    1
    70    28    27    1
    71    28    29    1
    72    27    19   am
    73    17    18    1
    74    48    45    1
    75    48    49    1
    76    45    44    1
    77    19    18    1
    78    19    20    2
    79    18    21    1
    80    29    30    2
    81    49    51   ar
    82    49    50   ar
    83    21    22    1
    84    23    22   ar
    85    23    25   ar
    86    22    24   ar
    87    25    26   ar
    88    24    26   ar
