@<TRIPOS>MOLECULE
tmp/4xesA03.pdb
 109 100 0 0 0
SMALL
GASTEIGER

@<TRIPOS>ATOM
      1  N         16.0030  -24.7380  -20.9640 N.3   123  ILE123     -0.1245
      2  CA        15.7430  -25.5230  -22.1700 C.3   123  ILE123      0.1561
      3  C         16.9780  -25.6680  -23.0500 C.2   123  ILE123      0.2260
      4  O         17.2520  -26.7680  -23.5240 O.2   123  ILE123     -0.2867
      5  CB        14.5500  -24.9550  -22.9770 C.3   123  ILE123      0.0252
      6  CG1       13.2180  -25.4220  -22.3710 C.3   123  ILE123      0.0019
      7  CG2       14.5710  -25.4350  -24.4240 C.3   123  ILE123      0.0019
      8  CD1       12.9810  -25.0610  -20.9150 C.3   123  ILE123      0.0001
      9  N         10.5670  -21.8280  -30.8410 N.3   214  ASN214     -0.1225
     10  CA        11.0990  -22.6400  -31.9370 C.3   214  ASN214      0.1785
     11  C         11.7140  -23.9410  -31.4500 C.2   214  ASN214      0.2597
     12  O         11.5050  -24.9930  -32.0430 O.2   214  ASN214     -0.2718
     13  CB        12.1790  -21.8720  -32.7030 C.3   214  ASN214      0.1169
     14  CG        11.6510  -20.6250  -33.3700 C.2   214  ASN214      0.2627
     15  OD1       10.4480  -20.4650  -33.5380 O.2   214  ASN214     -0.2716
     16  ND2       12.5520  -19.7230  -33.7430 N.am  214  ASN214     -0.0877
     17  N         12.5000  -23.8610  -30.3860 N.am  215  LYS215     -0.1980
     18  CA        13.1800  -25.0300  -29.8810 C.3   215  LYS215      0.1596
     19  C         12.1710  -25.9830  -29.2610 C.2   215  LYS215      0.2287
     20  O         12.2420  -27.1950  -29.4670 O.2   215  LYS215     -0.2864
     21  CB        14.2550  -24.6470  -28.8690 C.3   215  LYS215      0.0298
     22  CG        14.9370  -25.8500  -28.2310 C.3   215  LYS215      0.0038
     23  CD        16.3760  -25.5370  -27.8420 C.3   215  LYS215      0.0206
     24  CE        17.0990  -26.7430  -27.2470 C.3   215  LYS215      0.1093
     25  NZ        17.4330  -27.8110  -28.2400 N.3   215  LYS215     -0.1314
     26  N         10.2060  -28.0290  -31.8000 N.3   218  VAL218     -0.1231
     27  CA        10.9420  -29.1690  -32.3360 C.3   218  VAL218      0.1692
     28  C         11.0190  -30.3080  -31.3100 C.2   218  VAL218      0.2591
     29  O         10.9140  -31.4680  -31.6630 O.2   218  VAL218     -0.2718
     30  CB        12.3640  -28.7660  -32.7960 C.3   218  VAL218      0.0266
     31  CG1       13.1480  -29.9910  -33.2580 C.3   218  VAL218      0.0020
     32  CG2       12.2990  -27.7550  -33.9330 C.3   218  VAL218      0.0020
     33  N         11.1930  -29.9620  -30.0450 N.am  219  MET219     -0.1979
     34  CA        11.2190  -30.9410  -28.9710 C.3   219  MET219      0.1605
     35  C          9.9460  -31.7760  -28.8950 C.2   219  MET219      0.2287
     36  O         10.0070  -32.9720  -28.6500 O.2   219  MET219     -0.2864
     37  CB        11.4130  -30.2370  -27.6320 C.3   219  MET219      0.0413
     38  CG        12.8200  -29.7170  -27.4040 C.3   219  MET219      0.0598
     39  SD        13.0060  -28.9320  -25.7900 S.3   219  MET219     -0.1393
     40  CE        12.9900  -30.3590  -24.7040 C.3   219  MET219      0.0692
     41  N          9.5360  -34.1080  -32.1940 N.3   309  ILE309     -0.1245
     42  CA        10.3240  -35.3280  -32.0400 C.3   309  ILE309      0.1561
     43  C          9.8350  -36.2710  -30.9250 C.2   309  ILE309      0.2260
     44  O          9.8390  -37.4770  -31.1170 O.2   309  ILE309     -0.2867
     45  CB        11.8660  -35.0530  -31.9540 C.3   309  ILE309      0.0252
     46  CG1       12.6560  -36.3640  -32.0350 C.3   309  ILE309      0.0019
     47  CG2       12.2790  -34.3450  -30.6680 C.3   309  ILE309      0.0019
     48  CD1       12.3940  -37.1760  -33.2810 C.3   309  ILE309      0.0001
     49  N         17.7460  -37.5310  -26.3500 N.3   377  VAL377     -0.1231
     50  CA        17.4280  -36.5400  -27.3750 C.3   377  VAL377      0.1692
     51  C         18.3740  -35.3500  -27.2510 C.2   377  VAL377      0.2592
     52  O         18.8330  -34.8140  -28.2520 O.2   377  VAL377     -0.2718
     53  CB        15.9630  -36.0750  -27.2720 C.3   377  VAL377      0.0266
     54  CG1       15.7010  -34.8990  -28.1960 C.3   377  VAL377      0.0020
     55  CG2       15.0400  -37.2190  -27.6270 C.3   377  VAL377      0.0020
     56  N         18.6410  -34.9370  -26.0180 N.am  378  ASP378     -0.1974
     57  CA        19.6980  -33.9740  -25.7390 C.3   378  ASP378      0.1709
     58  C         20.9790  -34.4250  -26.4300 C.2   378  ASP378      0.2293
     59  O         21.6190  -33.6470  -27.1290 O.2   378  ASP378     -0.2864
     60  CB        19.9210  -33.8750  -24.2220 C.3   378  ASP378      0.1436
     61  CG        20.9860  -32.8470  -23.8280 C.2   378  ASP378      0.3671
     62  OD1       22.2020  -33.0830  -24.0570 O.co2 378  ASP378     -0.2456
     63  OD2       20.6040  -31.8110  -23.2380 O.co2 378  ASP378     -0.2456
     64  N         20.8720  -34.0800  -30.3620 N.3   381  VAL381     -0.1245
     65  CA        20.9380  -32.7320  -30.9190 C.3   381  VAL381      0.1561
     66  C         22.3340  -32.1490  -30.7510 C.2   381  VAL381      0.2260
     67  O         22.8150  -31.4500  -31.6220 O.2   381  VAL381     -0.2867
     68  CB        19.8520  -31.8140  -30.3370 C.3   381  VAL381      0.0252
     69  CG1       19.9130  -30.4370  -30.9690 C.3   381  VAL381      0.0019
     70  CG2       18.4880  -32.4170  -30.6080 C.3   381  VAL381      0.0019
     71  N         24.7410  -30.6680  -33.7610 N.3   385  LEU385     -0.1245
     72  CA        25.1880  -29.2770  -33.7440 C.3   385  LEU385      0.1561
     73  C         26.7080  -29.1610  -33.7170 C.2   385  LEU385      0.2260
     74  O         27.2500  -28.1350  -34.1260 O.2   385  LEU385     -0.2867
     75  CB        24.5700  -28.5070  -32.5680 C.3   385  LEU385      0.0270
     76  CG        23.0310  -28.4710  -32.5160 C.3   385  LEU385      0.0019
     77  CD1       22.5520  -27.8860  -31.2020 C.3   385  LEU385      0.0001
     78  CD2       22.4300  -27.7110  -33.6920 C.3   385  LEU385      0.0001
     79  N         20.6550  -29.4610  -40.7630 N.3   394  TYR394     -0.1241
     80  CA        19.7450  -29.0580  -39.6690 C.3   394  TYR394      0.1605
     81  C         19.3320  -27.5910  -39.6860 C.2   394  TYR394      0.2264
     82  O         18.1660  -27.2750  -39.4830 O.2   394  TYR394     -0.2867
     83  CB        20.3870  -29.3210  -38.3060 C.3   394  TYR394      0.0534
     84  CG        19.4010  -29.2790  -37.1610 C.ar  394  TYR394     -0.0201
     85  CD1       18.5690  -30.3620  -36.9120 C.ar  394  TYR394     -0.0009
     86  CD2       19.3110  -28.1650  -36.3210 C.ar  394  TYR394     -0.0009
     87  CE1       17.6570  -30.3410  -35.8730 C.ar  394  TYR394      0.0417
     88  CE2       18.4110  -28.1310  -35.2700 C.ar  394  TYR394      0.0417
     89  CZ        17.5820  -29.2270  -35.0490 C.ar  394  TYR394      0.1957
     90  OH        16.6710  -29.2300  -34.0150 O.3   394  TYR394     -0.2866
     91  N         13.4000  -30.9840  -39.3770 N.3   402  ARG402     -0.1245
     92  CA        14.4510  -31.0690  -38.3480 C.3   402  ARG402      0.1563
     93  C         14.2370  -32.2490  -37.4180 C.2   402  ARG402      0.2260
     94  O         15.1860  -32.8610  -36.9860 O.2   402  ARG402     -0.2867
     95  CB        14.4980  -29.8260  -37.4700 C.3   402  ARG402      0.0307
     96  CG        15.2530  -28.6930  -38.1040 C.3   402  ARG402      0.0489
     97  CD        15.3360  -27.4870  -37.1930 C.3   402  ARG402      0.2205
     98  NE        15.8570  -26.3430  -37.9140 N.pl3 402  ARG402     -0.0865
     99  CZ        16.1810  -25.1840  -37.3520 C.cat 402  ARG402      0.5346
    100  NH1       16.0540  -24.9910  -36.0480 N.pl3 402  ARG402      0.1354
    101  NH2       16.6550  -24.2090  -38.1040 N.pl3 402  ARG402      0.1354
    102  N         16.4450  -35.5980  -36.5440 N.3   406  ILE406     -0.1245
    103  CA        16.7450  -36.0630  -35.1840 C.3   406  ILE406      0.1561
    104  C         16.2830  -37.5130  -35.0030 C.2   406  ILE406      0.2260
    105  O         16.8390  -38.2700  -34.2280 O.2   406  ILE406     -0.2867
    106  CB        16.1320  -35.1720  -34.0910 C.3   406  ILE406      0.0252
    107  CG1       16.6990  -33.7630  -34.1720 C.3   406  ILE406      0.0019
    108  CG2       16.4610  -35.7300  -32.7210 C.3   406  ILE406      0.0019
    109  CD1       16.0120  -32.7330  -33.2980 C.3   406  ILE406      0.0001
@<TRIPOS>BOND
     1    79    80    1
     2    81    80    1
     3    81    82    2
     4    80    83    1
     5    91    92    1
     6    92    95    1
     7    92    93    1
     8    83    84    1
     9   101    99    1
    10    96    95    1
    11    96    97    1
    12    98    99    2
    13    98    97    1
    14    93    94    2
    15    99   100    1
    16    84    85   ar
    17    84    86   ar
    18    85    87   ar
    19   102   103    1
    20    86    88   ar
    21    87    89   ar
    22    88    89   ar
    23   103   104    1
    24   103   106    1
    25    89    90    1
    26   104   105    2
    27   107   106    1
    28   107   109    1
    29    74    73    2
    30   106   108    1
    31    32    30    1
    32    71    72    1
    33    72    73    1
    34    72    75    1
    35    16    14   am
    36    78    76    1
    37    15    14    2
    38    14    13    1
    39    48    46    1
    40    31    30    1
    41    30    27    1
    42    13    10    1
    43    75    76    1
    44    76    77    1
    45    27    26    1
    46    27    28    1
    47    41    42    1
    48    12    11    2
    49    42    45    1
    50    42    43    1
    51    46    45    1
    52    45    47    1
    53    10    11    1
    54    10     9    1
    55    29    28    2
    56    67    66    2
    57    11    17   am
    58    28    33   am
    59    44    43    2
    60    69    68    1
    61    65    66    1
    62    65    64    1
    63    65    68    1
    64    70    68    1
    65    17    18    1
    66    33    34    1
    67    18    19    1
    68    18    21    1
    69    20    19    2
    70    34    35    1
    71    34    37    1
    72    35    36    2
    73    21    22    1
    74    52    51    2
    75    25    24    1
    76    22    23    1
    77    54    53    1
    78    23    24    1
    79    37    38    1
    80    55    53    1
    81    38    39    1
    82    50    53    1
    83    50    51    1
    84    50    49    1
    85    51    56   am
    86    59    58    2
    87    58    57    1
    88    56    57    1
    89    39    40    1
    90    57    60    1
    91     7     5    1
    92    60    61    1
    93    62    61   ar
    94    61    63   ar
    95     4     3    2
    96     3     2    1
    97     5     6    1
    98     5     2    1
    99     6     8    1
   100     2     1    1
