@<TRIPOS>MOLECULE
tmp/4xewA01.pdb
 105 103 0 0 0
SMALL
GASTEIGER

@<TRIPOS>ATOM
      1  N         -9.2060   34.2390  -15.8680 N.3    17  PRO17      -0.2102
      2  CA        -9.6450   33.7000  -17.1630 C.3    17  PRO17       0.1504
      3  C        -11.1270   33.9940  -17.4290 C.2    17  PRO17       0.2575
      4  O        -11.9950   33.6830  -16.5840 O.2    17  PRO17      -0.2718
      5  CB        -9.4190   32.1810  -17.0310 C.3    17  PRO17       0.0282
      6  CG        -8.4480   32.0240  -15.9030 C.3    17  PRO17       0.0208
      7  CD        -8.7410   33.1620  -14.9650 C.3    17  PRO17       0.0893
      8  N        -11.4070   34.6040  -18.5830 N.am   18  TYR18      -0.1977
      9  CA       -12.7900   34.8530  -18.9850 C.3    18  TYR18       0.1639
     10  C        -13.6000   35.5960  -17.9140 C.2    18  TYR18       0.2290
     11  O        -14.7940   35.3500  -17.7250 O.2    18  TYR18      -0.2864
     12  CB       -13.4780   33.5420  -19.3960 C.3    18  TYR18       0.0560
     13  CG       -13.0220   33.0250  -20.7570 C.ar   18  TYR18      -0.0198
     14  CD1      -13.8400   33.1880  -21.8920 C.ar   18  TYR18      -0.0009
     15  CD2      -11.7830   32.3790  -20.9130 C.ar   18  TYR18      -0.0009
     16  CE1      -13.4350   32.7280  -23.1370 C.ar   18  TYR18       0.0417
     17  CE2      -11.3790   31.9050  -22.1500 C.ar   18  TYR18       0.0417
     18  CZ       -12.2070   32.0840  -23.2600 C.ar   18  TYR18       0.1957
     19  OH       -11.8400   31.6220  -24.4980 O.3    18  TYR18      -0.2866
     20  N         -5.7970   21.4370  -11.4220 N.3    56  SER56      -0.1202
     21  CA        -5.3510   22.7900  -11.8000 C.3    56  SER56       0.2020
     22  C         -5.4480   22.9990  -13.3140 C.2    56  SER56       0.2618
     23  O         -4.4520   23.3090  -13.9780 O.2    56  SER56      -0.2717
     24  CB        -3.9290   23.0540  -11.3000 C.3    56  SER56       0.2103
     25  OG        -3.9060   23.0140   -9.8900 O.3    56  SER56      -0.2182
     26  N         -6.6660   22.7980  -13.8240 N.am   57  TRP57      -0.1975
     27  CA        -6.9960   22.9000  -15.2430 C.3    57  TRP57       0.1640
     28  C         -6.1650   21.8870  -16.0200 C.2    57  TRP57       0.2290
     29  O         -5.4770   22.2090  -16.9840 O.2    57  TRP57      -0.2864
     30  CB        -6.8920   24.3610  -15.7250 C.3    57  TRP57       0.0576
     31  CG        -7.6190   24.7100  -17.0190 C.ar   57  TRP57       0.0006
     32  CD1       -7.0450   24.9950  -18.2630 C.ar   57  TRP57       0.0946
     33  CD2       -9.0810   24.8460  -17.2440 C.ar   57  TRP57       0.0152
     34  NE1       -8.0000   25.2780  -19.2100 N.ar   57  TRP57      -0.2442
     35  CE2       -9.2450   25.2050  -18.6710 C.ar   57  TRP57       0.0810
     36  CE3      -10.2230   24.7130  -16.4420 C.ar   57  TRP57       0.0012
     37  CZ2      -10.5050   25.4030  -19.2460 C.ar   57  TRP57       0.0191
     38  CZ3      -11.4840   24.9230  -17.0300 C.ar   57  TRP57       0.0001
     39  CH2      -11.6190   25.2550  -18.4000 C.ar   57  TRP57       0.0015
     40  N        -12.1530   23.0590  -29.1230 N.3   150  TYR150     -0.1241
     41  CA       -11.4740   24.1790  -28.4990 C.3   150  TYR150      0.1605
     42  C         -9.9850   24.0340  -28.7480 C.2   150  TYR150      0.2264
     43  O         -9.4450   22.9420  -28.6300 O.2   150  TYR150     -0.2867
     44  CB       -11.7550   24.2520  -26.9870 C.3   150  TYR150      0.0534
     45  CG       -10.9890   25.3910  -26.3090 C.ar  150  TYR150     -0.0201
     46  CD1      -11.3740   26.7330  -26.4940 C.ar  150  TYR150     -0.0009
     47  CD2       -9.8620   25.1300  -25.5150 C.ar  150  TYR150     -0.0009
     48  CE1      -10.6770   27.7670  -25.8790 C.ar  150  TYR150      0.0417
     49  CE2       -9.1640   26.1590  -24.9050 C.ar  150  TYR150      0.0417
     50  CZ        -9.5710   27.4710  -25.0870 C.ar  150  TYR150      0.1957
     51  OH        -8.8630   28.4920  -24.4980 O.3   150  TYR150     -0.2866
     52  N         -6.9410   30.6030  -27.2550 N.3   153  ASP153     -0.1239
     53  CA        -7.5670   31.9310  -27.2730 C.3   153  ASP153      0.1674
     54  C         -6.9090   32.9490  -28.2070 C.2   153  ASP153      0.2266
     55  O         -7.4360   34.0390  -28.3640 O.2   153  ASP153     -0.2867
     56  CB        -7.6000   32.5340  -25.8740 C.3   153  ASP153      0.1410
     57  CG        -8.3760   31.7000  -24.8950 C.2   153  ASP153      0.3668
     58  OD1       -7.9040   31.6160  -23.7380 O.co2 153  ASP153     -0.2456
     59  OD2       -9.4280   31.1370  -25.2610 O.co2 153  ASP153     -0.2456
     60  N        -19.4790   28.0360  -28.8680 N.3   165  GLY165     -0.1210
     61  CA       -18.6180   28.0300  -27.6820 C.3   165  GLY165      0.1956
     62  C        -17.6210   29.1790  -27.6700 C.2   165  GLY165      0.2612
     63  O        -17.4260   29.8400  -26.6480 O.2   165  GLY165     -0.2717
     64  N        -16.9790   29.4110  -28.8090 N.am  166  GLY166     -0.1956
     65  CA       -16.0380   30.5250  -28.9700 C.3   166  GLY166      0.1869
     66  C        -16.6320   31.8900  -29.3150 C.2   166  GLY166      0.2309
     67  O        -15.8800   32.8440  -29.5170 O.2   166  GLY166     -0.2863
     68  N        -12.6490   21.6990  -23.6300 N.3   219  ALA219     -0.1245
     69  CA       -13.2980   22.9240  -23.1540 C.3   219  ALA219      0.1562
     70  C        -14.5520   23.2520  -23.9360 C.2   219  ALA219      0.2260
     71  O        -15.3160   24.1350  -23.5520 O.2   219  ALA219     -0.2867
     72  CB       -12.3360   24.0950  -23.1960 C.3   219  ALA219      0.0290
     73  N        -14.5860   22.8420   -9.9920 N.3   393  ARG393     -0.1245
     74  CA       -14.9360   24.0390  -10.7550 C.3   393  ARG393      0.1563
     75  C        -15.7810   23.6370  -11.9710 C.2   393  ARG393      0.2260
     76  O        -15.2540   23.2190  -13.0010 O.2   393  ARG393     -0.2867
     77  CB       -13.6550   24.8050  -11.1380 C.3   393  ARG393      0.0307
     78  CG       -13.7740   25.8140  -12.2690 C.3   393  ARG393      0.0489
     79  CD       -13.6940   27.2370  -11.7730 C.3   393  ARG393      0.2205
     80  NE       -13.4430   28.1610  -12.8900 N.pl3 393  ARG393     -0.0865
     81  CZ       -13.7480   29.4570  -12.8750 C.cat 393  ARG393      0.5346
     82  NH1      -14.3220   29.9730  -11.7840 N.pl3 393  ARG393      0.1354
     83  NH2      -13.4760   30.2230  -13.9460 N.pl3 393  ARG393      0.1354
     84  N        -18.2370   23.9180  -15.3060 N.3   395  PHE395     -0.1227
     85  CA       -18.1610   24.7200  -16.5120 C.3   395  PHE395      0.1736
     86  C        -19.4330   24.4750  -17.3220 C.2   395  PHE395      0.2595
     87  O        -19.7820   23.3140  -17.6120 O.2   395  PHE395     -0.2718
     88  CB       -16.9060   24.3360  -17.3100 C.3   395  PHE395      0.0547
     89  CG       -16.5950   25.2610  -18.4440 C.ar  395  PHE395     -0.0202
     90  CD1      -16.8410   26.6440  -18.3390 C.ar  395  PHE395     -0.0042
     91  CD2      -16.0330   24.7680  -19.6180 C.ar  395  PHE395     -0.0042
     92  CE1      -16.5560   27.5090  -19.3980 C.ar  395  PHE395     -0.0003
     93  CE2      -15.7290   25.6260  -20.6720 C.ar  395  PHE395     -0.0003
     94  CZ       -16.0010   26.9950  -20.5640 C.ar  395  PHE395     -0.0000
     95  N        -20.1200   25.5700  -17.6780 N.am  396  ARG396     -0.1980
     96  CA       -21.4710   25.5270  -18.2880 C.3   396  ARG396      0.1597
     97  C        -22.3900   24.5400  -17.5250 C.2   396  ARG396      0.2287
     98  O        -22.7110   24.7820  -16.3680 O.2   396  ARG396     -0.2864
     99  CB       -21.4270   25.2080  -19.8000 C.3   396  ARG396      0.0334
    100  CG       -20.4150   25.9770  -20.6350 C.3   396  ARG396      0.0492
    101  CD       -20.3740   25.3590  -22.0220 C.3   396  ARG396      0.2205
    102  NE       -19.0830   25.4250  -22.7170 N.pl3 396  ARG396     -0.0865
    103  CZ       -18.6070   26.4960  -23.3540 C.cat 396  ARG396      0.5346
    104  NH1      -19.2790   27.6360  -23.3670 N.pl3 396  ARG396      0.1354
    105  NH2      -17.4370   26.4310  -23.9700 N.pl3 396  ARG396      0.1354
@<TRIPOS>BOND
     1    67    66    2
     2    66    65    1
     3    40    41    1
     4    65    64    1
     5    60    61    1
     6    64    62   am
     7    42    43    2
     8    42    41    1
     9    41    44    1
    10    55    54    2
    11    54    53    1
    12    61    62    1
    13    62    63    2
    14    53    52    1
    15    53    56    1
    16    44    45    1
    17    46    45   ar
    18    46    48   ar
    19    45    47   ar
    20    48    50   ar
    21    56    57    1
    22    47    49   ar
    23    59    57   ar
    24    50    49   ar
    25    50    51    1
    26    57    58   ar
    27    19    18    1
    28   105   103    1
    29    70    71    2
    30    70    69    1
    31    68    69    1
    32   104   103    1
    33   103   102    2
    34    18    16   ar
    35    18    17   ar
    36    72    69    1
    37    16    14   ar
    38   102   101    1
    39    17    15   ar
    40   101   100    1
    41    14    13   ar
    42    15    13   ar
    43    13    12    1
    44    93    94   ar
    45    93    91   ar
    46   100    99    1
    47    94    92   ar
    48    99    96    1
    49    91    89   ar
    50    92    90   ar
    51    12     9    1
    52    37    35   ar
    53    37    39   ar
    54    34    35   ar
    55    34    32   ar
    56     9     8    1
    57     9    10    1
    58    35    33   ar
    59     8     3   am
    60    89    90   ar
    61    89    88    1
    62    39    38   ar
    63    96    95    1
    64    96    97    1
    65    32    31   ar
    66    10    11    2
    67    95    86   am
    68    87    86    2
    69    97    98    2
    70     3     2    1
    71     3     4    2
    72    86    85    1
    73    88    85    1
    74    33    31   ar
    75    33    36   ar
    76     2     5    1
    77     2     1    1
    78     5     6    1
    79    38    36   ar
    80    31    30    1
    81    29    28    2
    82    85    84    1
    83    28    27    1
    84     6     7    1
    85     1     7    1
    86    30    27    1
    87    27    26    1
    88    23    22    2
    89    83    81    1
    90    26    22   am
    91    22    21    1
    92    76    75    2
    93    80    81    2
    94    80    79    1
    95    81    82    1
    96    78    79    1
    97    78    77    1
    98    75    74    1
    99    21    20    1
   100    21    24    1
   101    24    25    1
   102    77    74    1
   103    74    73    1
