@<TRIPOS>MOLECULE
tmp/4xeyA00.pdb
 157 151 0 0 0
SMALL
GASTEIGER

@<TRIPOS>ATOM
      1  N        -38.2760   -9.5750   -1.6260 N.3   112  LEU112     -0.1245
      2  CA       -39.3190   -9.2260   -0.6720 C.3   112  LEU112      0.1561
      3  C        -38.7410   -8.8540    0.6890 C.2   112  LEU112      0.2260
      4  O        -37.9480   -9.5960    1.2630 O.2   112  LEU112     -0.2867
      5  CB       -40.3070  -10.3840   -0.5230 C.3   112  LEU112      0.0270
      6  CG       -41.0770  -10.8180   -1.7740 C.3   112  LEU112      0.0019
      7  CD1      -41.9190  -12.0480   -1.4760 C.3   112  LEU112      0.0001
      8  CD2      -41.9530   -9.6880   -2.2900 C.3   112  LEU112      0.0001
      9  N        -35.5940  -13.7610    0.4360 N.3   114  VAL114     -0.1245
     10  CA       -36.8550  -14.2800   -0.0780 C.3   114  VAL114      0.1561
     11  C        -37.3560  -13.5020   -1.2900 C.2   114  VAL114      0.2260
     12  O        -37.3620  -12.2700   -1.2920 O.2   114  VAL114     -0.2867
     13  CB       -37.9460  -14.2620    1.0090 C.3   114  VAL114      0.0252
     14  CG1      -39.2090  -14.9410    0.5080 C.3   114  VAL114      0.0019
     15  CG2      -37.4460  -14.9470    2.2680 C.3   114  VAL114      0.0019
     16  N        -43.1650  -18.3470   -3.8640 N.3   127  ALA127     -0.1231
     17  CA       -42.1700  -17.7150   -3.0090 C.3   127  ALA127      0.1694
     18  C        -40.9060  -18.5610   -2.9910 C.2   127  ALA127      0.2592
     19  O        -40.9750  -19.7810   -2.9120 O.2   127  ALA127     -0.2718
     20  CB       -42.7110  -17.5250   -1.6030 C.3   127  ALA127      0.0304
     21  N        -39.7500  -17.9140   -3.0800 N.am  128  VAL128     -0.1966
     22  CA       -38.4820  -18.6290   -3.1570 C.3   128  VAL128      0.1727
     23  C        -37.4910  -18.1470   -2.1060 C.2   128  VAL128      0.2616
     24  O        -37.0290  -17.0100   -2.1580 O.2   128  VAL128     -0.2715
     25  CB       -37.8270  -18.4720   -4.5390 C.3   128  VAL128      0.0290
     26  CG1      -36.6000  -19.3640   -4.6400 C.3   128  VAL128      0.0023
     27  CG2      -38.8220  -18.7860   -5.6470 C.3   128  VAL128      0.0023
     28  N        -37.1590  -19.0160   -1.1580 N.am  129  LYS129     -0.1977
     29  CA       -36.1540  -18.6920   -0.1570 C.3   129  LYS129      0.1596
     30  C        -34.7940  -19.1680   -0.6450 C.2   129  LYS129      0.2287
     31  O        -34.6920  -20.2280   -1.2600 O.2   129  LYS129     -0.2864
     32  CB       -36.4940  -19.3320    1.1870 C.3   129  LYS129      0.0298
     33  CG       -35.8440  -18.6520    2.3810 C.3   129  LYS129      0.0038
     34  CD       -35.7990  -19.5890    3.5750 C.3   129  LYS129      0.0206
     35  CE       -35.5070  -18.8410    4.8630 C.3   129  LYS129      0.1093
     36  NZ       -36.7290  -18.2050    5.4290 N.3   129  LYS129     -0.1314
     37  N        -39.9760  -29.7400    5.6020 N.3   145  MET145     -0.1245
     38  CA       -41.1240  -29.2160    4.8750 C.3   145  MET145      0.1570
     39  C        -41.6670  -30.2330    3.8850 C.2   145  MET145      0.2261
     40  O        -42.8380  -30.1750    3.5150 O.2   145  MET145     -0.2867
     41  CB       -40.7580  -27.9110    4.1600 C.3   145  MET145      0.0387
     42  CG       -40.4130  -26.7820    5.1170 C.3   145  MET145      0.0595
     43  SD       -39.7780  -25.3170    4.2930 S.3   145  MET145     -0.1393
     44  CE       -41.2770  -24.6950    3.5470 C.3   145  MET145      0.0692
     45  N        -47.6780  -23.2460    5.2970 N.3   154  VAL154     -0.1245
     46  CA       -47.1970  -22.8250    3.9840 C.3   154  VAL154      0.1561
     47  C        -46.6810  -24.0130    3.1800 C.2   154  VAL154      0.2260
     48  O        -45.7420  -24.6950    3.5900 O.2   154  VAL154     -0.2867
     49  CB       -46.0860  -21.7690    4.1010 C.3   154  VAL154      0.0252
     50  CG1      -45.5410  -21.4260    2.7250 C.3   154  VAL154      0.0019
     51  CG2      -46.6110  -20.5270    4.8020 C.3   154  VAL154      0.0019
     52  N        -35.5890  -22.9170   -1.8010 N.3   168  ILE168     -0.1245
     53  CA       -36.7820  -23.5930   -1.3150 C.3   168  ILE168      0.1561
     54  C        -37.9700  -22.8650   -1.9170 C.2   168  ILE168      0.2260
     55  O        -38.1350  -21.6670   -1.7110 O.2   168  ILE168     -0.2867
     56  CB       -36.8890  -23.6030    0.2190 C.3   168  ILE168      0.0252
     57  CG1      -35.7840  -24.4690    0.8260 C.3   168  ILE168      0.0019
     58  CG2      -38.2530  -24.1290    0.6440 C.3   168  ILE168      0.0019
     59  CD1      -35.7030  -24.3910    2.3280 C.3   168  ILE168      0.0001
     60  N        -42.0070  -22.3490   -2.2140 N.3   170  THR170     -0.1203
     61  CA       -43.3090  -22.5800   -1.6130 C.3   170  THR170      0.1994
     62  C        -44.3760  -21.8090   -2.3740 C.2   170  THR170      0.2618
     63  O        -44.0760  -21.0740   -3.3200 O.2   170  THR170     -0.2717
     64  CB       -43.3430  -22.1610   -0.1270 C.3   170  THR170      0.1784
     65  OG1      -43.2530  -20.7350   -0.0200 O.3   170  THR170     -0.2211
     66  CG2      -42.1940  -22.7970    0.6400 C.3   170  THR170      0.0376
     67  N        -45.6240  -21.9830   -1.9560 N.am  171  GLU171     -0.1965
     68  CA       -46.7220  -21.1820   -2.4730 C.3   171  GLU171      0.1733
     69  C        -46.4930  -19.7320   -2.0660 C.2   171  GLU171      0.2616
     70  O        -45.7500  -19.4600   -1.1240 O.2   171  GLU171     -0.2715
     71  CB       -48.0570  -21.6860   -1.9360 C.3   171  GLU171      0.0429
     72  CG       -48.1560  -21.5940   -0.4270 C.3   171  GLU171      0.1163
     73  CD       -49.4520  -22.1510    0.1150 C.2   171  GLU171      0.3649
     74  OE1      -50.4400  -22.2130   -0.6450 O.co2 171  GLU171     -0.2457
     75  OE2      -49.4770  -22.5310    1.3030 O.co2 171  GLU171     -0.2457
     76  N        -47.1230  -18.8000   -2.7690 N.am  172  PHE172     -0.1960
     77  CA       -46.9410  -17.3910   -2.4430 C.3   172  PHE172      0.1771
     78  C        -48.1300  -16.8350   -1.6680 C.2   172  PHE172      0.2619
     79  O        -49.2470  -16.7760   -2.1810 O.2   172  PHE172     -0.2715
     80  CB       -46.7100  -16.5690   -3.7140 C.3   172  PHE172      0.0574
     81  CG       -46.5210  -15.0970   -3.4600 C.ar  172  PHE172     -0.0200
     82  CD1      -45.3150  -14.6070   -2.9870 C.ar  172  PHE172     -0.0042
     83  CD2      -47.5510  -14.2050   -3.6980 C.ar  172  PHE172     -0.0042
     84  CE1      -45.1430  -13.2560   -2.7540 C.ar  172  PHE172     -0.0003
     85  CE2      -47.3860  -12.8550   -3.4690 C.ar  172  PHE172     -0.0003
     86  CZ       -46.1800  -12.3790   -2.9960 C.ar  172  PHE172     -0.0000
     87  N        -47.8840  -16.4370   -0.4250 N.am  173  MET173     -0.1963
     88  CA       -48.9130  -15.8030    0.3860 C.3   173  MET173      0.1736
     89  C        -48.9670  -14.3230    0.0390 C.2   173  MET173      0.2617
     90  O        -47.9760  -13.6060    0.1700 O.2   173  MET173     -0.2715
     91  CB       -48.6420  -16.0130    1.8740 C.3   173  MET173      0.0427
     92  CG       -48.5230  -17.4740    2.2760 C.3   173  MET173      0.0599
     93  SD       -50.0060  -18.4320    1.9120 S.3   173  MET173     -0.1393
     94  CE       -51.2280  -17.5630    2.8890 C.3   173  MET173      0.0692
     95  N        -50.1370  -13.8820   -0.4030 N.am  174  THR174     -0.1937
     96  CA       -50.2870  -12.5790   -1.0360 C.3   174  THR174      0.2028
     97  C        -49.9070  -11.3830   -0.1650 C.2   174  THR174      0.2642
     98  O        -49.1850  -10.4970   -0.6130 O.2   174  THR174     -0.2714
     99  CB       -51.7370  -12.3680   -1.5140 C.3   174  THR174      0.1808
    100  OG1      -52.2220  -13.5700   -2.1230 O.3   174  THR174     -0.2208
    101  CG2      -51.8070  -11.2220   -2.5130 C.3   174  THR174      0.0379
    102  N        -50.3920  -11.3560    1.0710 N.am  175  TYR175     -0.1959
    103  CA       -50.3420  -10.1350    1.8740 C.3   175  TYR175      0.1771
    104  C        -49.1410  -10.0220    2.8090 C.2   175  TYR175      0.2620
    105  O        -48.9690   -9.0020    3.4770 O.2   175  TYR175     -0.2715
    106  CB       -51.6250  -10.0020    2.6960 C.3   175  TYR175      0.0574
    107  CG       -52.8590   -9.7730    1.8580 C.ar  175  TYR175     -0.0198
    108  CD1      -53.2440   -8.4890    1.4930 C.ar  175  TYR175     -0.0009
    109  CD2      -53.6400  -10.8370    1.4300 C.ar  175  TYR175     -0.0009
    110  CE1      -54.3710   -8.2720    0.7250 C.ar  175  TYR175      0.0417
    111  CE2      -54.7690  -10.6310    0.6620 C.ar  175  TYR175      0.0417
    112  CZ       -55.1300   -9.3460    0.3120 C.ar  175  TYR175      0.1957
    113  OH       -56.2560   -9.1400   -0.4540 O.3   175  TYR175     -0.2866
    114  N        -48.3140  -11.0570    2.8610 N.am  176  GLY176     -0.1940
    115  CA       -47.1620  -11.0400    3.7420 C.3   176  GLY176      0.2014
    116  C        -47.5220  -11.4760    5.1480 C.2   176  GLY176      0.2638
    117  O        -48.4980  -12.1990    5.3490 O.2   176  GLY176     -0.2714
    118  N        -46.7450  -11.0230    6.1270 N.am  177  ASN177     -0.1972
    119  CA       -46.8950  -11.5140    7.4900 C.3   177  ASN177      0.1688
    120  C        -48.1150  -10.9500    8.2140 C.2   177  ASN177      0.2292
    121  O        -48.6260   -9.8840    7.8710 O.2   177  ASN177     -0.2864
    122  CB       -45.6280  -11.2240    8.3060 C.3   177  ASN177      0.1181
    123  CG       -45.4510   -9.7500    8.6200 C.2   177  ASN177      0.2629
    124  OD1      -46.1610   -9.1940    9.4580 O.2   177  ASN177     -0.2716
    125  ND2      -44.4790   -9.1180    7.9730 N.am  177  ASN177     -0.0877
    126  N        -48.1800  -16.0090    7.7310 N.3   225  LEU225     -0.1245
    127  CA       -48.3920  -15.2940    6.4810 C.3   225  LEU225      0.1561
    128  C        -49.8720  -15.2760    6.1200 C.2   225  LEU225      0.2260
    129  O        -50.6200  -16.1920    6.4720 O.2   225  LEU225     -0.2867
    130  CB       -47.5680  -15.9290    5.3630 C.3   225  LEU225      0.0270
    131  CG       -46.0540  -15.8380    5.5490 C.3   225  LEU225      0.0019
    132  CD1      -45.3310  -16.8100    4.6340 C.3   225  LEU225      0.0001
    133  CD2      -45.5720  -14.4130    5.3100 C.3   225  LEU225      0.0001
    134  N        -45.4510  -20.1300    8.9810 N.3   235  ALA235     -0.1231
    135  CA       -44.2270  -20.3150    8.2080 C.3   235  ALA235      0.1694
    136  C        -43.4560  -21.5450    8.6860 C.2   235  ALA235      0.2592
    137  O        -43.0770  -21.6270    9.8530 O.2   235  ALA235     -0.2718
    138  CB       -43.3550  -19.0760    8.3030 C.3   235  ALA235      0.0304
    139  N        -43.2180  -22.4950    7.7850 N.am  236  ASP236     -0.1960
    140  CA       -42.6060  -23.7630    8.1720 C.3   236  ASP236      0.1840
    141  C        -41.0830  -23.7150    8.2230 C.2   236  ASP236      0.2622
    142  O        -40.4390  -24.7510    8.3800 O.2   236  ASP236     -0.2715
    143  CB       -43.0380  -24.8810    7.2230 C.3   236  ASP236      0.1450
    144  CG       -44.1590  -24.4620    6.3050 C.2   236  ASP236      0.3671
    145  OD1      -43.9030  -23.6300    5.4130 O.co2 236  ASP236     -0.2456
    146  OD2      -45.2860  -24.9700    6.4630 O.co2 236  ASP236     -0.2456
    147  N        -40.4920  -22.5350    8.0720 N.am  237  PHE237     -0.1974
    148  CA       -39.0670  -22.4140    8.3540 C.3   237  PHE237      0.1639
    149  C        -38.9330  -22.0040    9.8180 C.2   237  PHE237      0.2290
    150  O        -39.1280  -20.8450   10.1840 O.2   237  PHE237     -0.2864
    151  CB       -38.3790  -21.4090    7.4310 C.3   237  PHE237      0.0560
    152  CG       -36.9110  -21.7010    7.1970 C.ar  237  PHE237     -0.0200
    153  CD1      -35.9410  -21.1730    8.0330 C.ar  237  PHE237     -0.0042
    154  CD2      -36.5040  -22.5050    6.1420 C.ar  237  PHE237     -0.0042
    155  CE1      -34.5960  -21.4400    7.8240 C.ar  237  PHE237     -0.0003
    156  CE2      -35.1650  -22.7730    5.9270 C.ar  237  PHE237     -0.0003
    157  CZ       -34.2100  -22.2430    6.7690 C.ar  237  PHE237     -0.0000
@<TRIPOS>BOND
     1    27    25    1
     2    26    25    1
     3    25    22    1
     4    16    17    1
     5    80    81    1
     6    80    77    1
     7    83    85   ar
     8    83    81   ar
     9    85    86   ar
    10    81    82   ar
    11    63    62    2
    12    22    21    1
    13    22    23    1
    14    21    18   am
    15    17    18    1
    16    17    20    1
    17    86    84   ar
    18    18    19    2
    19    82    84   ar
    20    76    77    1
    21    76    69   am
    22   101    99    1
    23    68    69    1
    24    68    67    1
    25    68    71    1
    26    77    78    1
    27    62    67   am
    28    62    61    1
    29     8     6    1
    30    60    61    1
    31    79    78    2
    32    24    23    2
    33   100    99    1
    34    23    28   am
    35    69    70    2
    36    71    72    1
    37    54    55    2
    38    54    53    1
    39    52    53    1
    40     6     7    1
    41     6     5    1
    42    78    87   am
    43     1     2    1
    44    61    64    1
    45    99    96    1
    46    53    56    1
    47    12    11    2
    48    11    10    1
    49    31    30    2
    50    28    29    1
    51    96    95    1
    52    96    97    1
    53     2     5    1
    54     2     3    1
    55    30    29    1
    56    74    73   ar
    57    98    97    2
    58   113   112    1
    59    72    73    1
    60    87    88    1
    61    95    89   am
    62    97   102   am
    63    29    32    1
    64    64    65    1
    65    64    66    1
    66    10     9    1
    67    10    13    1
    68    89    90    2
    69    89    88    1
    70    73    75   ar
    71    56    58    1
    72    56    57    1
    73   112   111   ar
    74   112   110   ar
    75    88    91    1
    76    14    13    1
    77   111   109   ar
    78     3     4    2
    79   110   108   ar
    80    57    59    1
    81    13    15    1
    82   102   103    1
    83    32    33    1
    84   109   107   ar
    85   108   107   ar
    86   107   106    1
    87    91    92    1
    88   103   106    1
    89   103   104    1
    90    93    92    1
    91    93    94    1
    92    33    34    1
    93    50    49    1
    94   104   114   am
    95   104   105    2
    96   114   115    1
    97    47    48    2
    98    47    46    1
    99    40    39    2
   100    44    43    1
   101    34    35    1
   102   115   116    1
   103    39    38    1
   104    46    49    1
   105    46    45    1
   106    49    51    1
   107    41    38    1
   108    41    42    1
   109    43    42    1
   110   132   131    1
   111    35    36    1
   112    38    37    1
   113   116   117    2
   114   116   118   am
   115   133   131    1
   116   130   131    1
   117   130   127    1
   118   145   144   ar
   119   156   154   ar
   120   156   157   ar
   121   128   129    2
   122   128   127    1
   123   118   119    1
   124   154   152   ar
   125   144   146   ar
   126   144   143    1
   127   127   126    1
   128   157   155   ar
   129   152   151    1
   130   152   153   ar
   131   143   140    1
   132   151   148    1
   133   119   120    1
   134   119   122    1
   135   139   140    1
   136   139   136   am
   137   155   153   ar
   138   121   120    2
   139   125   123   am
   140   147   141   am
   141   147   148    1
   142   140   141    1
   143   135   138    1
   144   135   136    1
   145   135   134    1
   146   141   142    2
   147   122   123    1
   148   148   149    1
   149   123   124    2
   150   136   137    2
   151   149   150    2
