@<TRIPOS>MOLECULE
tmp/4xf6A00.pdb
 166 154 0 0 0
SMALL
GASTEIGER

@<TRIPOS>ATOM
      1  N         17.7270   66.6610    1.1620 N.3    10  VAL10      -0.1245
      2  CA        16.7430   66.2910    0.1580 C.3    10  VAL10       0.1561
      3  C         17.4010   66.0010   -1.1930 C.2    10  VAL10       0.2260
      4  O         18.4180   66.6110   -1.5610 O.2    10  VAL10      -0.2867
      5  CB        15.7130   67.4270   -0.0370 C.3    10  VAL10       0.0252
      6  CG1       14.6640   67.0360   -1.0620 C.3    10  VAL10       0.0019
      7  CG2       15.0060   67.7410    1.2870 C.3    10  VAL10       0.0019
      8  N         16.6230   66.8240   -4.5470 N.3    12  ASP12      -0.1239
      9  CA        15.7990   67.7080   -5.3190 C.3    12  ASP12       0.1674
     10  C         15.7760   67.2290   -6.8150 C.2    12  ASP12       0.2266
     11  O         16.8370   66.8870   -7.4230 O.2    12  ASP12      -0.2867
     12  CB        16.2830   69.1760   -5.2150 C.3    12  ASP12       0.1410
     13  CG        15.7660   69.9090   -3.9750 C.2    12  ASP12       0.3668
     14  OD1       14.9870   69.3430   -3.1870 O.co2  12  ASP12      -0.2456
     15  OD2       16.1450   71.0910   -3.7880 O.co2  12  ASP12      -0.2456
     16  N         19.5370   69.2580   -1.8840 N.3    25  GLY25      -0.1210
     17  CA        18.7270   70.3440   -1.3850 C.3    25  GLY25       0.1956
     18  C         18.3500   70.0870    0.0690 C.2    25  GLY25       0.2612
     19  O         18.9790   69.2730    0.7920 O.2    25  GLY25      -0.2717
     20  N         17.3550   70.8260    0.5150 N.am   26  GLY26      -0.1942
     21  CA        16.8780   70.7120    1.8780 C.3    26  GLY26       0.2014
     22  C         17.2430   71.9470    2.6890 C.2    26  GLY26       0.2639
     23  O         18.3640   72.5390    2.5510 O.2    26  GLY26      -0.2714
     24  N         16.2900   72.3070    3.5650 N.am   27  GLY27      -0.1954
     25  CA        16.4720   73.3700    4.5260 C.3    27  GLY27       0.1869
     26  C         17.7390   73.2320    5.3360 C.2    27  GLY27       0.2309
     27  O         18.4840   74.1970    5.4760 O.2    27  GLY27      -0.2863
     28  N         20.8430   73.9670    2.9480 N.3    30  TYR30      -0.1241
     29  CA        20.9980   75.3510    2.5710 C.3    30  TYR30       0.1605
     30  C         21.2780   76.2830    3.7480 C.2    30  TYR30       0.2264
     31  O         22.1120   77.1380    3.6330 O.2    30  TYR30      -0.2867
     32  CB        19.8210   75.8330    1.7090 C.3    30  TYR30       0.0534
     33  CG        19.8060   75.3280    0.3020 C.ar   30  TYR30      -0.0201
     34  CD1       20.7750   75.7590   -0.6200 C.ar   30  TYR30      -0.0009
     35  CD2       18.7730   74.4750   -0.1670 C.ar   30  TYR30      -0.0009
     36  CE1       20.7770   75.3150   -1.9390 C.ar   30  TYR30       0.0417
     37  CE2       18.7350   74.0830   -1.5110 C.ar   30  TYR30       0.0417
     38  CZ        19.7340   74.5150   -2.3900 C.ar   30  TYR30       0.1957
     39  OH        19.7750   74.1060   -3.7140 O.3    30  TYR30      -0.2866
     40  N         11.9870   65.7620   -3.2630 N.3    75  TYR75      -0.1241
     41  CA        11.0150   66.7650   -3.7300 C.3    75  TYR75       0.1605
     42  C         11.2380   67.0710   -5.2010 C.2    75  TYR75       0.2264
     43  O         12.3910   67.2160   -5.6500 O.2    75  TYR75      -0.2867
     44  CB        11.1740   68.0920   -2.9660 C.3    75  TYR75       0.0534
     45  CG        10.3290   68.2490   -1.7140 C.ar   75  TYR75      -0.0201
     46  CD1        8.9740   68.4590   -1.8060 C.ar   75  TYR75      -0.0009
     47  CD2       10.9080   68.2100   -0.4240 C.ar   75  TYR75      -0.0009
     48  CE1        8.1970   68.6010   -0.6710 C.ar   75  TYR75       0.0417
     49  CE2       10.1480   68.3370    0.7140 C.ar   75  TYR75       0.0417
     50  CZ         8.7760   68.5660    0.5790 C.ar   75  TYR75       0.1957
     51  OH         7.9600   68.6830    1.6630 O.3    75  TYR75      -0.2866
     52  N         10.5870   70.1220   -7.6500 N.3    77  LEU77      -0.1245
     53  CA        10.2930   71.5540   -7.6600 C.3    77  LEU77       0.1561
     54  C         10.1880   72.0190   -9.1130 C.2    77  LEU77       0.2260
     55  O         11.1430   71.8670   -9.9020 O.2    77  LEU77      -0.2867
     56  CB        11.3840   72.3390   -6.9430 C.3    77  LEU77       0.0270
     57  CG        11.6650   71.9910   -5.4640 C.3    77  LEU77       0.0019
     58  CD1       12.5360   70.7600   -5.3430 C.3    77  LEU77       0.0001
     59  CD2       12.3790   73.1210   -4.7470 C.3    77  LEU77       0.0001
     60  N          6.5540   78.3880   -7.5830 N.3    85  ARG85      -0.1245
     61  CA         6.9080   76.9990   -7.7230 C.3    85  ARG85       0.1563
     62  C          5.8020   76.0700   -7.2350 C.2    85  ARG85       0.2260
     63  O          4.9820   76.4120   -6.3570 O.2    85  ARG85      -0.2867
     64  CB         8.2200   76.6870   -6.9760 C.3    85  ARG85       0.0307
     65  CG         8.1780   77.0640   -5.5140 C.3    85  ARG85       0.0489
     66  CD         9.4450   76.6270   -4.8130 C.3    85  ARG85       0.2205
     67  NE         9.3590   76.8670   -3.3860 N.pl3  85  ARG85      -0.0865
     68  CZ        10.4150   76.9210   -2.5570 C.cat  85  ARG85       0.5346
     69  NH1       11.7000   76.7860   -3.0000 N.pl3  85  ARG85       0.1354
     70  NH2       10.1740   77.1720   -1.2710 N.pl3  85  ARG85       0.1354
     71  N          5.6730   72.3450   -5.6040 N.3    87  LEU87      -0.1245
     72  CA         6.4250   71.3060   -4.9210 C.3    87  LEU87       0.1561
     73  C          5.5740   70.0650   -4.8300 C.2    87  LEU87       0.2260
     74  O          4.3790   70.1450   -4.5800 O.2    87  LEU87      -0.2867
     75  CB         6.8050   71.6930   -3.4950 C.3    87  LEU87       0.0270
     76  CG         7.7840   72.8310   -3.3420 C.3    87  LEU87       0.0019
     77  CD1        7.0220   74.1450   -3.2670 C.3    87  LEU87       0.0001
     78  CD2        8.6080   72.6150   -2.0950 C.3    87  LEU87       0.0001
     79  N         11.6640   70.1730    6.2540 N.3   112  VAL112     -0.1245
     80  CA        10.9280   70.3390    5.0190 C.3   112  VAL112      0.1561
     81  C          9.7390   69.4120    4.8370 C.2   112  VAL112      0.2260
     82  O          8.9620   69.6270    3.8950 O.2   112  VAL112     -0.2867
     83  CB        11.8400   70.1790    3.7680 C.3   112  VAL112      0.0252
     84  CG1       12.9570   71.2240    3.8160 C.3   112  VAL112      0.0019
     85  CG2       12.4100   68.7760    3.6900 C.3   112  VAL112      0.0019
     86  N          8.6850   76.2740    7.4050 N.3   136  GLN136     -0.1245
     87  CA         8.1980   75.5730    6.2190 C.3   136  GLN136      0.1566
     88  C          7.7840   74.0960    6.4590 C.2   136  GLN136      0.2260
     89  O          6.6530   73.7280    6.1630 O.2   136  GLN136     -0.2867
     90  CB         9.1560   75.7420    5.0140 C.3   136  GLN136      0.0367
     91  CG        10.5340   75.1130    5.1470 C.3   136  GLN136      0.0905
     92  CD        11.5480   75.6730    4.1340 C.2   136  GLN136      0.2608
     93  OE1       11.1950   76.4000    3.1830 O.2   136  GLN136     -0.2717
     94  NE2       12.8060   75.3760    4.3630 N.am  136  GLN136     -0.0878
     95  N          3.5310   71.8940    6.3840 N.3   140  ARG140     -0.1245
     96  CA         3.2840   71.0390    5.2380 C.3   140  ARG140      0.1563
     97  C          2.7170   69.7270    5.7860 C.2   140  ARG140      0.2260
     98  O          3.1140   69.3120    6.8650 O.2   140  ARG140     -0.2867
     99  CB         4.6240   70.7990    4.4980 C.3   140  ARG140      0.0307
    100  CG         5.1460   72.0310    3.7750 C.3   140  ARG140      0.0489
    101  CD         6.5510   71.8220    3.2190 C.3   140  ARG140      0.2205
    102  NE         7.0460   72.9990    2.4990 N.pl3 140  ARG140     -0.0865
    103  CZ         8.2570   73.0930    1.9250 C.cat 140  ARG140      0.5346
    104  NH1        9.0910   72.0590    1.9150 N.pl3 140  ARG140      0.1354
    105  NH2        8.5980   74.2040    1.2970 N.pl3 140  ARG140      0.1354
    106  N         11.7790   82.2790   10.5400 N.3   164  HIS164     -0.1241
    107  CA        11.5370   82.7390    9.1940 C.3   164  HIS164      0.1621
    108  C         10.3420   82.0160    8.5420 C.2   164  HIS164      0.2264
    109  O         10.1630   80.8340    8.7200 O.2   164  HIS164     -0.2867
    110  CB        12.7670   82.5200    8.3240 C.3   164  HIS164      0.0745
    111  CG        12.4650   82.6820    6.8760 C.ar  164  HIS164      0.0817
    112  ND1       12.2500   81.6190    6.0440 N.ar  164  HIS164     -0.2268
    113  CD2       12.2650   83.7870    6.1320 C.ar  164  HIS164      0.1154
    114  CE1       11.9510   82.0570    4.8390 C.ar  164  HIS164      0.1986
    115  NE2       11.9690   83.3720    4.8610 N.ar  164  HIS164     -0.2212
    116  N          8.0470   82.5250    4.5980 N.3   166  ASP166     -0.1239
    117  CA         7.6600   83.3750    3.4690 C.3   166  ASP166      0.1674
    118  C          6.1650   83.7420    3.6270 C.2   166  ASP166      0.2266
    119  O          5.4730   83.1730    4.4730 O.2   166  ASP166     -0.2867
    120  CB         8.0640   82.8040    2.0940 C.3   166  ASP166      0.1410
    121  CG         7.1640   81.6660    1.6020 C.2   166  ASP166      0.3668
    122  OD1        5.9980   81.5980    2.0470 O.co2 166  ASP166     -0.2456
    123  OD2        7.6360   80.8680    0.7260 O.co2 166  ASP166     -0.2456
    124  N          3.3550   81.0510    3.7110 N.3   169  GLU169     -0.1245
    125  CA         3.4920   80.1150    4.8190 C.3   169  GLU169      0.1567
    126  C          2.9730   80.7240    6.1290 C.2   169  GLU169      0.2260
    127  O          2.3520   80.0440    6.9390 O.2   169  GLU169     -0.2867
    128  CB         4.9570   79.7400    4.9600 C.3   169  GLU169      0.0388
    129  CG         5.4940   79.0060    3.7420 C.3   169  GLU169      0.1160
    130  CD         6.9910   78.7910    3.8090 C.2   169  GLU169      0.3649
    131  OE1        7.7210   79.5900    4.4470 O.co2 169  GLU169     -0.2457
    132  OE2        7.4510   77.8060    3.2180 O.co2 169  GLU169     -0.2457
    133  N         14.8730   79.8170   -7.4210 N.3   214  SER214     -0.1202
    134  CA        15.2510   80.4020   -6.1520 C.3   214  SER214      0.2020
    135  C         15.3300   79.3650   -5.0300 C.2   214  SER214      0.2619
    136  O         15.1670   79.7000   -3.8860 O.2   214  SER214     -0.2717
    137  CB        14.2370   81.4970   -5.7640 C.3   214  SER214      0.2103
    138  OG        12.9210   80.9730   -5.7020 O.3   214  SER214     -0.2182
    139  N         15.6150   78.1140   -5.3660 N.am  215  THR215     -0.1938
    140  CA        15.6530   77.0150   -4.4130 C.3   215  THR215      0.2028
    141  C         16.6760   77.2950   -3.3090 C.2   215  THR215      0.2643
    142  O         17.8600   77.5810   -3.6030 O.2   215  THR215     -0.2714
    143  CB        16.0650   75.6960   -5.1040 C.3   215  THR215      0.1808
    144  OG1       15.2370   75.4500   -6.2540 O.3   215  THR215     -0.2208
    145  CG2       15.9730   74.5340   -4.1450 C.3   215  THR215      0.0379
    146  N         16.2150   77.2770   -2.0590 N.am  216  GLY216     -0.1939
    147  CA        17.0940   77.5230   -0.8930 C.3   216  GLY216      0.2014
    148  C         17.1730   78.9560   -0.3750 C.2   216  GLY216      0.2639
    149  O         17.7440   79.2050    0.7140 O.2   216  GLY216     -0.2714
    150  N         16.6050   79.9070   -1.1350 N.am  217  ALA217     -0.1963
    151  CA        16.5800   81.3420   -0.7300 C.3   217  ALA217      0.1728
    152  C         16.2490   81.6250    0.7630 C.2   217  ALA217      0.2617
    153  O         17.0180   82.2920    1.4860 O.2   217  ALA217     -0.2715
    154  CB        15.6320   82.1280   -1.6260 C.3   217  ALA217      0.0334
    155  N         15.0920   81.1740    1.1980 N.am  218  GLY218     -0.1940
    156  CA        14.6910   81.3070    2.5780 C.3   218  GLY218      0.2014
    157  C         15.6620   80.6790    3.5680 C.2   218  GLY218      0.2638
    158  O         15.8810   81.2220    4.6190 O.2   218  GLY218     -0.2714
    159  N         16.1630   79.4940    3.2680 N.am  219  ASP219     -0.1971
    160  CA        17.0930   78.8100    4.1400 C.3   219  ASP219      0.1709
    161  C         18.3910   79.5940    4.3030 C.2   219  ASP219      0.2293
    162  O         18.9350   79.7140    5.4250 O.2   219  ASP219     -0.2864
    163  CB        17.4390   77.4100    3.6060 C.3   219  ASP219      0.1436
    164  CG        16.2070   76.6160    3.1910 C.2   219  ASP219      0.3671
    165  OD1       15.1600   76.7290    3.8620 O.co2 219  ASP219     -0.2456
    166  OD2       16.2870   75.8940    2.1790 O.co2 219  ASP219     -0.2456
@<TRIPOS>BOND
     1    55    54    2
     2    54    53    1
     3    61    60    1
     4    61    62    1
     5    61    64    1
     6    53    52    1
     7    53    56    1
     8    11    10    2
     9   133   134    1
    10    62    63    2
    11    64    65    1
    12    56    57    1
    13    10     9    1
    14   144   143    1
    15   134   137    1
    16   134   135    1
    17   137   138    1
    18    43    42    2
    19    71    72    1
    20    65    66    1
    21    57    58    1
    22    57    59    1
    23   139   135   am
    24   139   140    1
    25     9    12    1
    26     9     8    1
    27    12    13    1
    28    42    41    1
    29   143   140    1
    30   143   145    1
    31   135   136    2
    32    72    73    1
    33    72    75    1
    34    73    74    2
    35    66    67    1
    36   140   141    1
    37    13    15   ar
    38    13    14   ar
    39    41    40    1
    40    41    44    1
    41    39    38    1
    42   142   141    2
    43    75    76    1
    44    67    68    2
    45    76    77    1
    46    76    78    1
    47   141   146   am
    48    69    68    1
    49    44    45    1
    50    68    70    1
    51    38    36   ar
    52    38    37   ar
    53   146   147    1
    54    36    34   ar
    55    16    17    1
    56    46    45   ar
    57    46    48   ar
    58    45    47   ar
    59   154   151    1
    60     4     3    2
    61    37    35   ar
    62    17    18    1
    63     3     2    1
    64   150   151    1
    65   150   148   am
    66     6     5    1
    67   147   148    1
    68   151   152    1
    69    48    50   ar
    70    34    33   ar
    71    47    49   ar
    72   148   149    2
    73    35    33   ar
    74     5     2    1
    75     5     7    1
    76    18    20   am
    77    18    19    2
    78     2     1    1
    79    33    32    1
    80    20    21    1
    81    50    49   ar
    82    50    51    1
    83   123   121   ar
    84   152   155   am
    85   152   153    2
    86   155   156    1
    87   105   103    1
    88   121   122   ar
    89   121   120    1
    90    32    29    1
    91    21    22    1
    92   104   103    1
    93   103   102    2
    94   120   117    1
    95   166   164   ar
    96   102   101    1
    97    23    22    2
    98    29    28    1
    99    29    30    1
   100   156   157    1
   101    22    24   am
   102    93    92    2
   103   164   163    1
   104   164   165   ar
   105   132   130   ar
   106   101   100    1
   107   159   157   am
   108   159   160    1
   109   117   118    1
   110   117   116    1
   111    24    25    1
   112   157   158    2
   113   163   160    1
   114   118   119    2
   115    31    30    2
   116    85    83    1
   117   124   125    1
   118   129   130    1
   119   129   128    1
   120    83    84    1
   121    83    80    1
   122   100    99    1
   123   130   131   ar
   124    82    81    2
   125    92    94   am
   126    92    91    1
   127   160   161    1
   128   161   162    2
   129    99    96    1
   130    25    26    1
   131   125   128    1
   132   125   126    1
   133    81    80    1
   134   114   115   ar
   135   114   112   ar
   136   115   113   ar
   137    90    91    1
   138    90    87    1
   139    80    79    1
   140    96    97    1
   141    96    95    1
   142    26    27    2
   143    97    98    2
   144   112   111   ar
   145   126   127    2
   146   113   111   ar
   147    89    88    2
   148    87    88    1
   149    87    86    1
   150   111   110    1
   151   110   107    1
   152   108   109    2
   153   108   107    1
   154   107   106    1
