@<TRIPOS>MOLECULE
tmp/4xf6A01.pdb
 208 196 0 0 0
SMALL
GASTEIGER

@<TRIPOS>ATOM
      1  N         11.2080   82.6020  -11.3870 N.3    82  GLY82      -0.1210
      2  CA        12.2100   82.3940  -10.3160 C.3    82  GLY82       0.1956
      3  C         11.6810   81.9730   -8.9480 C.2    82  GLY82       0.2611
      4  O         12.3190   81.1810   -8.2530 O.2    82  GLY82      -0.2717
      5  N         10.5200   82.4780   -8.5390 N.am   83  ASN83      -0.1974
      6  CA         9.9560   82.0920   -7.2270 C.3    83  ASN83       0.1688
      7  C          8.6940   81.2140   -7.2600 C.2    83  ASN83       0.2292
      8  O          8.6660   80.1800   -6.5570 O.2    83  ASN83      -0.2864
      9  CB         9.7760   83.3260   -6.3410 C.3    83  ASN83       0.1181
     10  CG        11.1090   83.8620   -5.8570 C.2    83  ASN83       0.2629
     11  OD1       11.8300   84.5230   -6.6170 O.2    83  ASN83      -0.2716
     12  ND2       11.4730   83.5360   -4.6080 N.am   83  ASN83      -0.0877
     13  N          6.5540   78.3880   -7.5830 N.3    85  ARG85      -0.1245
     14  CA         6.9080   76.9990   -7.7230 C.3    85  ARG85       0.1563
     15  C          5.8020   76.0700   -7.2350 C.2    85  ARG85       0.2260
     16  O          4.9820   76.4120   -6.3570 O.2    85  ARG85      -0.2867
     17  CB         8.2200   76.6870   -6.9760 C.3    85  ARG85       0.0307
     18  CG         8.1780   77.0640   -5.5140 C.3    85  ARG85       0.0489
     19  CD         9.4450   76.6270   -4.8130 C.3    85  ARG85       0.2205
     20  NE         9.3590   76.8670   -3.3860 N.pl3  85  ARG85      -0.0865
     21  CZ        10.4150   76.9210   -2.5570 C.cat  85  ARG85       0.5346
     22  NH1       11.7000   76.7860   -3.0000 N.pl3  85  ARG85       0.1354
     23  NH2       10.1740   77.1720   -1.2710 N.pl3  85  ARG85       0.1354
     24  N         12.8970   77.7330   10.8690 N.3   134  ASP134     -0.1239
     25  CA        12.1160   78.0120    9.6760 C.3   134  ASP134      0.1674
     26  C         10.8230   77.1930    9.7810 C.2   134  ASP134      0.2266
     27  O         10.8570   76.0190   10.0660 O.2   134  ASP134     -0.2867
     28  CB        12.8850   77.6170    8.4250 C.3   134  ASP134      0.1410
     29  CG        12.2580   78.1590    7.1690 C.2   134  ASP134      0.3668
     30  OD1       11.0970   77.7810    6.8960 O.co2 134  ASP134     -0.2456
     31  OD2       12.9280   78.9750    6.4690 O.co2 134  ASP134     -0.2456
     32  N          8.6850   76.2740    7.4050 N.3   136  GLN136     -0.1245
     33  CA         8.1980   75.5730    6.2190 C.3   136  GLN136      0.1566
     34  C          7.7840   74.0960    6.4590 C.2   136  GLN136      0.2260
     35  O          6.6530   73.7280    6.1630 O.2   136  GLN136     -0.2867
     36  CB         9.1560   75.7420    5.0140 C.3   136  GLN136      0.0367
     37  CG        10.5340   75.1130    5.1470 C.3   136  GLN136      0.0905
     38  CD        11.5480   75.6730    4.1340 C.2   136  GLN136      0.2608
     39  OE1       11.1950   76.4000    3.1830 O.2   136  GLN136     -0.2717
     40  NE2       12.8060   75.3760    4.3630 N.am  136  GLN136     -0.0878
     41  N         11.7790   82.2790   10.5400 N.3   164  HIS164     -0.1241
     42  CA        11.5370   82.7390    9.1940 C.3   164  HIS164      0.1621
     43  C         10.3420   82.0160    8.5420 C.2   164  HIS164      0.2264
     44  O         10.1630   80.8340    8.7200 O.2   164  HIS164     -0.2867
     45  CB        12.7670   82.5200    8.3240 C.3   164  HIS164      0.0745
     46  CG        12.4650   82.6820    6.8760 C.ar  164  HIS164      0.0817
     47  ND1       12.2500   81.6190    6.0440 N.ar  164  HIS164     -0.2268
     48  CD2       12.2650   83.7870    6.1320 C.ar  164  HIS164      0.1154
     49  CE1       11.9510   82.0570    4.8390 C.ar  164  HIS164      0.1986
     50  NE2       11.9690   83.3720    4.8610 N.ar  164  HIS164     -0.2212
     51  N          8.0470   82.5250    4.5980 N.3   166  ASP166     -0.1239
     52  CA         7.6600   83.3750    3.4690 C.3   166  ASP166      0.1674
     53  C          6.1650   83.7420    3.6270 C.2   166  ASP166      0.2266
     54  O          5.4730   83.1730    4.4730 O.2   166  ASP166     -0.2867
     55  CB         8.0640   82.8040    2.0940 C.3   166  ASP166      0.1410
     56  CG         7.1640   81.6660    1.6020 C.2   166  ASP166      0.3668
     57  OD1        5.9980   81.5980    2.0470 O.co2 166  ASP166     -0.2456
     58  OD2        7.6360   80.8680    0.7260 O.co2 166  ASP166     -0.2456
     59  N          3.3550   81.0510    3.7110 N.3   169  GLU169     -0.1245
     60  CA         3.4920   80.1150    4.8190 C.3   169  GLU169      0.1567
     61  C          2.9730   80.7240    6.1290 C.2   169  GLU169      0.2260
     62  O          2.3520   80.0440    6.9390 O.2   169  GLU169     -0.2867
     63  CB         4.9570   79.7400    4.9600 C.3   169  GLU169      0.0388
     64  CG         5.4940   79.0060    3.7420 C.3   169  GLU169      0.1160
     65  CD         6.9910   78.7910    3.8090 C.2   169  GLU169      0.3649
     66  OE1        7.7210   79.5900    4.4470 O.co2 169  GLU169     -0.2457
     67  OE2        7.4510   77.8060    3.2180 O.co2 169  GLU169     -0.2457
     68  N          9.4060   86.9950    4.6730 N.3   187  SER187     -0.1202
     69  CA         9.9360   87.3070    3.3540 C.3   187  SER187      0.2020
     70  C          8.8880   87.0640    2.2740 C.2   187  SER187      0.2619
     71  O          7.9340   86.3150    2.4760 O.2   187  SER187     -0.2717
     72  CB        11.1980   86.4890    3.0800 C.3   187  SER187      0.2103
     73  OG        10.9250   85.0640    3.0120 O.3   187  SER187     -0.2182
     74  N          9.1000   87.6850    1.1190 N.am  188  ASN188     -0.1960
     75  CA         8.1910   87.5600    0.0100 C.3   188  ASN188      0.1819
     76  C          8.8910   87.4710   -1.3680 C.2   188  ASN188      0.2622
     77  O          8.5500   88.1850   -2.2870 O.2   188  ASN188     -0.2715
     78  CB         7.2270   88.7380    0.0440 C.3   188  ASN188      0.1195
     79  CG         5.9970   88.4930   -0.7720 C.2   188  ASN188      0.2630
     80  OD1        5.8060   87.4130   -1.3080 O.2   188  ASN188     -0.2716
     81  ND2        5.1580   89.4910   -0.8720 N.am  188  ASN188     -0.0877
     82  N          9.8450   86.5520   -1.4900 N.am  189  GLY189     -0.1940
     83  CA        10.6530   86.3900   -2.7170 C.3   189  GLY189      0.1998
     84  C         11.4140   87.6420   -3.1660 C.2   189  GLY189      0.2480
     85  O         12.0970   88.2700   -2.3780 O.2   189  GLY189     -0.2729
     86  N         11.2600   88.0420   -4.4470 N.am  190  PRO190     -0.2726
     87  CA        11.9180   89.2610   -4.9140 C.3   190  PRO190      0.1402
     88  C         11.2650   90.5460   -4.3650 C.2   190  PRO190      0.2269
     89  O         11.8330   91.6170   -4.5310 O.2   190  PRO190     -0.2865
     90  CB        11.7030   89.2060   -6.4440 C.3   190  PRO190      0.0296
     91  CG        10.3860   88.5000   -6.5970 C.3   190  PRO190      0.0237
     92  CD        10.3170   87.5020   -5.4550 C.3   190  PRO190      0.0939
     93  N         10.1110   92.6620    1.9080 N.3   193  GLY193     -0.1225
     94  CA         9.8710   91.7630    3.0280 C.3   193  GLY193      0.1811
     95  C          9.6050   92.5170    4.3130 C.2   193  GLY193      0.2280
     96  O          9.6700   93.7230    4.3380 O.2   193  GLY193     -0.2866
     97  N         12.0640   95.6020    4.4220 N.3   204  PHE204     -0.1241
     98  CA        13.2820   95.5900    3.6020 C.3   204  PHE204      0.1605
     99  C         12.9780   95.2520    2.1340 C.2   204  PHE204      0.2264
    100  O         12.0140   94.5450    1.8330 O.2   204  PHE204     -0.2867
    101  CB        14.3290   94.6250    4.1780 C.3   204  PHE204      0.0534
    102  CG        13.9360   93.1720    4.1050 C.ar  204  PHE204     -0.0203
    103  CD1       13.1040   92.6120    5.0700 C.ar  204  PHE204     -0.0042
    104  CD2       14.3890   92.3700    3.0740 C.ar  204  PHE204     -0.0042
    105  CE1       12.7250   91.2750    4.9980 C.ar  204  PHE204     -0.0003
    106  CE2       14.0400   91.0300    3.0020 C.ar  204  PHE204     -0.0003
    107  CZ        13.2010   90.4790    3.9610 C.ar  204  PHE204     -0.0000
    108  N         14.6460   93.4600   -1.1390 N.3   206  PRO206     -0.2102
    109  CA        15.8120   92.6680   -1.5700 C.3   206  PRO206      0.1504
    110  C         16.5730   93.2480   -2.7740 C.2   206  PRO206      0.2576
    111  O         16.0770   94.1360   -3.4430 O.2   206  PRO206     -0.2718
    112  CB        15.2070   91.3090   -1.9450 C.3   206  PRO206      0.0282
    113  CG        13.8690   91.2810   -1.3180 C.3   206  PRO206      0.0208
    114  CD        13.3960   92.7060   -1.2850 C.3   206  PRO206      0.0893
    115  N         17.7800   92.7380   -3.0080 N.am  207  VAL207     -0.1966
    116  CA        18.5910   93.0930   -4.1830 C.3   207  VAL207      0.1727
    117  C         17.9580   92.4200   -5.4110 C.2   207  VAL207      0.2616
    118  O         17.6340   91.2480   -5.3510 O.2   207  VAL207     -0.2715
    119  CB        20.0460   92.5520   -4.0630 C.3   207  VAL207      0.0290
    120  CG1       20.8810   92.9550   -5.2680 C.3   207  VAL207      0.0023
    121  CG2       20.7120   92.9960   -2.7700 C.3   207  VAL207      0.0023
    122  N         17.7970   93.1570   -6.5040 N.am  208  HIS208     -0.1959
    123  CA        17.2120   92.6310   -7.7320 C.3   208  HIS208      0.1787
    124  C         18.2160   91.7070   -8.4400 C.2   208  HIS208      0.2620
    125  O         19.3030   92.1450   -8.8140 O.2   208  HIS208     -0.2715
    126  CB        16.8160   93.8030   -8.6410 C.3   208  HIS208      0.0785
    127  CG        16.1550   93.3990   -9.9280 C.ar  208  HIS208      0.0821
    128  ND1       16.7050   93.6670  -11.1680 N.ar  208  HIS208     -0.2267
    129  CD2       14.9800   92.7670  -10.1700 C.ar  208  HIS208      0.1154
    130  CE1       15.9010   93.2160  -12.1160 C.ar  208  HIS208      0.1986
    131  NE2       14.8470   92.6640  -11.5370 N.ar  208  HIS208     -0.2212
    132  N         17.8520   90.4330   -8.6050 N.am  209  VAL209     -0.1977
    133  CA        18.6510   89.4640   -9.3670 C.3   209  VAL209      0.1596
    134  C         17.7320   88.7030  -10.3410 C.2   209  VAL209      0.2287
    135  O         16.6050   88.3500   -9.9830 O.2   209  VAL209     -0.2864
    136  CB        19.3590   88.4450   -8.4440 C.3   209  VAL209      0.0276
    137  CG1       20.3910   87.6480   -9.2150 C.3   209  VAL209      0.0022
    138  CG2       20.0490   89.1390   -7.2730 C.3   209  VAL209      0.0022
    139  N         16.9180   85.3800  -11.8680 N.3   211  VAL211     -0.1245
    140  CA        17.1980   83.9520  -11.7070 C.3   211  VAL211      0.1561
    141  C         16.0860   83.0300  -12.2270 C.2   211  VAL211      0.2260
    142  O         14.8850   83.3440  -12.1580 O.2   211  VAL211     -0.2867
    143  CB        17.5360   83.5920  -10.2380 C.3   211  VAL211      0.0252
    144  CG1       18.8850   84.1810   -9.8470 C.3   211  VAL211      0.0019
    145  CG2       16.4400   84.0460   -9.2800 C.3   211  VAL211      0.0019
    146  N         14.8730   79.8170   -7.4210 N.3   214  SER214     -0.1217
    147  CA        15.2510   80.4020   -6.1520 C.3   214  SER214      0.1889
    148  C         15.3300   79.3650   -5.0300 C.2   214  SER214      0.2288
    149  O         15.1670   79.7000   -3.8860 O.2   214  SER214     -0.2866
    150  CB        14.2370   81.4970   -5.7640 C.3   214  SER214      0.2089
    151  OG        12.9210   80.9730   -5.7020 O.3   214  SER214     -0.2183
    152  N         16.2150   77.2770   -2.0590 N.3   216  GLY216     -0.1210
    153  CA        17.0940   77.5230   -0.8930 C.3   216  GLY216      0.1956
    154  C         17.1730   78.9560   -0.3750 C.2   216  GLY216      0.2612
    155  O         17.7440   79.2050    0.7140 O.2   216  GLY216     -0.2717
    156  N         16.6050   79.9070   -1.1350 N.am  217  ALA217     -0.1965
    157  CA        16.5800   81.3420   -0.7300 C.3   217  ALA217      0.1728
    158  C         16.2490   81.6250    0.7630 C.2   217  ALA217      0.2617
    159  O         17.0180   82.2920    1.4860 O.2   217  ALA217     -0.2715
    160  CB        15.6320   82.1280   -1.6260 C.3   217  ALA217      0.0334
    161  N         15.0920   81.1740    1.1980 N.am  218  GLY218     -0.1940
    162  CA        14.6910   81.3070    2.5780 C.3   218  GLY218      0.2014
    163  C         15.6620   80.6790    3.5680 C.2   218  GLY218      0.2638
    164  O         15.8810   81.2220    4.6190 O.2   218  GLY218     -0.2714
    165  N         16.1630   79.4940    3.2680 N.am  219  ASP219     -0.1971
    166  CA        17.0930   78.8100    4.1400 C.3   219  ASP219      0.1709
    167  C         18.3910   79.5940    4.3030 C.2   219  ASP219      0.2293
    168  O         18.9350   79.7140    5.4250 O.2   219  ASP219     -0.2864
    169  CB        17.4390   77.4100    3.6060 C.3   219  ASP219      0.1436
    170  CG        16.2070   76.6160    3.1910 C.2   219  ASP219      0.3671
    171  OD1       15.1600   76.7290    3.8620 O.co2 219  ASP219     -0.2456
    172  OD2       16.2870   75.8940    2.1790 O.co2 219  ASP219     -0.2456
    173  N         18.7030   82.7460    3.6830 N.3   221  PHE221     -0.1241
    174  CA        18.4030   84.0480    4.2940 C.3   221  PHE221      0.1605
    175  C         18.3640   83.9070    5.8370 C.2   221  PHE221      0.2264
    176  O         18.9410   84.7200    6.5420 O.2   221  PHE221     -0.2867
    177  CB        17.0820   84.5720    3.7470 C.3   221  PHE221      0.0534
    178  CG        16.6940   85.9310    4.2450 C.ar  221  PHE221     -0.0203
    179  CD1       17.4060   87.0640    3.8690 C.ar  221  PHE221     -0.0042
    180  CD2       15.5520   86.0910    5.0100 C.ar  221  PHE221     -0.0042
    181  CE1       17.0390   88.3200    4.3060 C.ar  221  PHE221     -0.0003
    182  CE2       15.1630   87.3480    5.4400 C.ar  221  PHE221     -0.0003
    183  CZ        15.9290   88.4600    5.1090 C.ar  221  PHE221     -0.0000
    184  N         20.3310   89.8740    3.2800 N.3   242  ALA242     -0.1245
    185  CA        19.7260   90.0750    1.9830 C.3   242  ALA242      0.1562
    186  C         20.7790   90.0090    0.8820 C.2   242  ALA242      0.2260
    187  O         20.5970   89.3270   -0.1290 O.2   242  ALA242     -0.2867
    188  CB        19.0040   91.4150    1.9430 C.3   242  ALA242      0.0290
    189  N         22.2440   86.4100    0.5020 N.3   245  THR245     -0.1203
    190  CA        21.2470   85.6140   -0.2040 C.3   245  THR245      0.1994
    191  C         21.1930   85.9440   -1.6950 C.2   245  THR245      0.2617
    192  O         21.0640   85.0490   -2.5300 O.2   245  THR245     -0.2717
    193  CB        19.8440   85.7600    0.4370 C.3   245  THR245      0.1784
    194  OG1       19.9200   85.5700    1.8470 O.3   245  THR245     -0.2211
    195  CG2       18.8640   84.7780   -0.1520 C.3   245  THR245      0.0376
    196  N         21.3390   87.2240   -2.0270 N.am  246  ALA246     -0.1979
    197  CA        21.3410   87.6770   -3.4180 C.3   246  ALA246      0.1597
    198  C         22.5800   87.1430   -4.1750 C.2   246  ALA246      0.2287
    199  O         22.4910   86.6910   -5.3050 O.2   246  ALA246     -0.2864
    200  CB        21.2730   89.2060   -3.4730 C.3   246  ALA246      0.0319
    201  N         22.1170   83.3370   -4.8000 N.3   249  LEU249     -0.1245
    202  CA        21.1850   83.0440   -5.9010 C.3   249  LEU249      0.1561
    203  C         21.8070   83.0880   -7.2920 C.2   249  LEU249      0.2260
    204  O         21.5520   82.2270   -8.1430 O.2   249  LEU249     -0.2867
    205  CB        19.9470   83.9830   -5.8170 C.3   249  LEU249      0.0270
    206  CG        18.9620   83.7280   -4.6580 C.3   249  LEU249      0.0019
    207  CD1       17.9130   84.8440   -4.5540 C.3   249  LEU249      0.0001
    208  CD2       18.3120   82.3550   -4.7430 C.3   249  LEU249      0.0001
@<TRIPOS>BOND
     1   141   142    2
     2   141   140    1
     3   130   131   ar
     4   130   128   ar
     5   139   140    1
     6   140   143    1
     7   131   129   ar
     8     1     2    1
     9   128   127   ar
    10   134   135    2
    11   134   133    1
    12     2     3    1
    13   143   144    1
    14   143   145    1
    15   129   127   ar
    16   127   126    1
    17   133   132    1
    18   133   136    1
    19   137   136    1
    20     3     5   am
    21     3     4    2
    22   125   124    2
    23   126   123    1
    24   132   124   am
    25     5     6    1
    26   136   138    1
    27   124   123    1
    28   204   203    2
    29   123   122    1
    30    14    13    1
    31    14    15    1
    32    14    17    1
    33   146   147    1
    34   203   202    1
    35     7     6    1
    36     7     8    2
    37    15    16    2
    38     6     9    1
    39    17    18    1
    40    11    10    2
    41    91    90    1
    42    91    92    1
    43   122   117   am
    44    90    87    1
    45     9    10    1
    46   147   150    1
    47   147   148    1
    48   202   205    1
    49   202   201    1
    50    10    12   am
    51   205   206    1
    52   150   151    1
    53    18    19    1
    54    92    86    1
    55   117   118    2
    56   117   116    1
    57   199   198    2
    58   120   119    1
    59   148   149    2
    60    87    86    1
    61    87    88    1
    62    19    20    1
    63   208   206    1
    64   206   207    1
    65    89    88    2
    66    86    84   am
    67   116   119    1
    68   116   115    1
    69   198   197    1
    70   119   121    1
    71   200   197    1
    72   111   110    2
    73   197   196    1
    74    20    21    2
    75    84    83    1
    76    84    85    2
    77   115   110   am
    78    22    21    1
    79   110   109    1
    80    83    82    1
    81    21    23    1
    82   192   191    2
    83    77    76    2
    84   152   153    1
    85   196   191   am
    86   112   109    1
    87   112   113    1
    88   191   190    1
    89   160   157    1
    90   109   108    1
    91    82    76   am
    92    76    75    1
    93   113   114    1
    94    80    79    2
    95   114   108    1
    96   156   157    1
    97   156   154   am
    98   153   154    1
    99    81    79   am
   100    79    78    1
   101   157   158    1
   102   154   155    2
   103   190   193    1
   104   190   189    1
   105   195   193    1
   106   187   186    2
   107    75    78    1
   108    75    74    1
   109   193   194    1
   110    58    56   ar
   111   158   161   am
   112   158   159    2
   113   186   185    1
   114    74    70   am
   115   161   162    1
   116    56    57   ar
   117    56    55    1
   118   100    99    2
   119    93    94    1
   120   188   185    1
   121   185   184    1
   122    55    52    1
   123    99    98    1
   124   172   170   ar
   125    70    71    2
   126    70    69    1
   127   162   163    1
   128   106   104   ar
   129   106   107   ar
   130    73    72    1
   131    94    95    1
   132   104   102   ar
   133    72    69    1
   134    39    38    2
   135   170   169    1
   136   170   171   ar
   137    67    65   ar
   138   165   163   am
   139   165   166    1
   140    69    68    1
   141    52    53    1
   142    52    51    1
   143   163   164    2
   144    98   101    1
   145    98    97    1
   146   169   166    1
   147    53    54    2
   148   173   174    1
   149    59    60    1
   150    64    65    1
   151    64    63    1
   152   177   178    1
   153   177   174    1
   154    65    66   ar
   155   179   178   ar
   156   179   181   ar
   157   107   105   ar
   158   102   101    1
   159   102   103   ar
   160    38    40   am
   161    38    37    1
   162   166   167    1
   163   178   180   ar
   164   174   175    1
   165   167   168    2
   166   181   183   ar
   167    95    96    2
   168    60    63    1
   169    60    61    1
   170    49    50   ar
   171    49    47   ar
   172    50    48   ar
   173   105   103   ar
   174   180   182   ar
   175    36    37    1
   176    36    33    1
   177   183   182   ar
   178   175   176    2
   179    47    46   ar
   180    61    62    2
   181    48    46   ar
   182    35    34    2
   183    33    34    1
   184    33    32    1
   185    31    29   ar
   186    46    45    1
   187    30    29   ar
   188    29    28    1
   189    45    42    1
   190    28    25    1
   191    43    44    2
   192    43    42    1
   193    42    41    1
   194    25    26    1
   195    25    24    1
   196    26    27    2
