@<TRIPOS>MOLECULE
tmp/4xf7B01.pdb
 193 184 0 0 0
SMALL
GASTEIGER

@<TRIPOS>ATOM
      1  N          0.1840   45.9560   -9.0670 N.3    85  ARG85      -0.1245
      2  CA         1.0720   47.0580   -8.7530 C.3    85  ARG85       0.1563
      3  C          0.8170   48.2400   -9.6840 C.2    85  ARG85       0.2260
      4  O          0.5350   48.0690  -10.8770 O.2    85  ARG85      -0.2867
      5  CB         2.5200   46.6190   -8.8640 C.3    85  ARG85       0.0307
      6  CG         2.8540   45.9030  -10.1640 C.3    85  ARG85       0.0489
      7  CD         4.0910   46.5000  -10.7760 C.3    85  ARG85       0.2205
      8  NE         4.5370   45.8120  -11.9930 N.pl3  85  ARG85      -0.0865
      9  CZ         5.7950   45.4540  -12.2510 C.cat  85  ARG85       0.5346
     10  NH1        6.7750   45.6980  -11.3810 N.pl3  85  ARG85       0.1354
     11  NH2        6.0760   44.8300  -13.3910 N.pl3  85  ARG85       0.1354
     12  N          7.9540   45.4260  -22.7240 N.3   136  GLN136     -0.1245
     13  CA         7.3610   46.3940  -21.8040 C.3   136  GLN136      0.1566
     14  C          7.7870   47.8310  -22.0250 C.2   136  GLN136      0.2260
     15  O          6.9570   48.7120  -22.0120 O.2   136  GLN136     -0.2867
     16  CB         7.6070   45.9830  -20.3260 C.3   136  GLN136      0.0367
     17  CG         9.0810   45.9460  -19.9180 C.3   136  GLN136      0.0905
     18  CD         9.3310   45.1720  -18.6280 C.2   136  GLN136      0.2608
     19  OE1        8.3960   44.7050  -17.9790 O.2   136  GLN136     -0.2717
     20  NE2       10.5930   45.0020  -18.2780 N.am  136  GLN136     -0.0878
     21  N          9.3590   38.3160  -24.7040 N.3   164  HIS164     -0.1241
     22  CA         8.4560   38.2100  -23.6110 C.3   164  HIS164      0.1621
     23  C          7.5120   39.4260  -23.5380 C.2   164  HIS164      0.2264
     24  O          7.9360   40.5740  -23.7270 O.2   164  HIS164     -0.2867
     25  CB         9.2320   38.1070  -22.2900 C.3   164  HIS164      0.0745
     26  CG         8.3170   38.1430  -21.1160 C.ar  164  HIS164      0.0817
     27  ND1        8.2280   39.2250  -20.2730 N.ar  164  HIS164     -0.2268
     28  CD2        7.3670   37.2700  -20.7190 C.ar  164  HIS164      0.1154
     29  CE1        7.2780   39.0010  -19.3840 C.ar  164  HIS164      0.1986
     30  NE2        6.7330   37.8280  -19.6380 N.ar  164  HIS164     -0.2212
     31  N          3.6030   40.2370  -21.1470 N.3   166  ASP166     -0.1239
     32  CA         2.4760   39.6830  -20.4590 C.3   166  ASP166      0.1674
     33  C          1.2390   39.8670  -21.3190 C.2   166  ASP166      0.2266
     34  O          1.2230   40.6920  -22.2450 O.2   166  ASP166     -0.2867
     35  CB         2.2880   40.2110  -19.0250 C.3   166  ASP166      0.1410
     36  CG         2.0500   41.6810  -18.9570 C.2   166  ASP166      0.3668
     37  OD1        1.2570   42.2320  -19.7560 O.co2 166  ASP166     -0.2456
     38  OD2        2.6330   42.3070  -18.0260 O.co2 166  ASP166     -0.2456
     39  N          0.0280   43.4290  -21.9760 N.3   169  GLU169     -0.1245
     40  CA         0.9550   44.1960  -22.8090 C.3   169  GLU169      0.1567
     41  C          0.8370   43.8080  -24.2890 C.2   169  GLU169      0.2260
     42  O          1.0460   44.6340  -25.1840 O.2   169  GLU169     -0.2867
     43  CB         2.3880   43.9610  -22.3540 C.3   169  GLU169      0.0388
     44  CG         2.7720   44.6960  -21.0520 C.3   169  GLU169      0.1160
     45  CD         4.0840   44.2100  -20.4820 C.2   169  GLU169      0.3649
     46  OE1        4.5680   43.1240  -20.8690 O.co2 169  GLU169     -0.2457
     47  OE2        4.6030   44.8890  -19.5870 O.co2 169  GLU169     -0.2457
     48  N          3.1660   35.6480  -20.6100 N.3   187  SER187     -0.1202
     49  CA         2.9620   35.3250  -19.2260 C.3   187  SER187      0.2020
     50  C          1.7500   36.0260  -18.6050 C.2   187  SER187      0.2619
     51  O          1.2640   37.0340  -19.1250 O.2   187  SER187     -0.2717
     52  CB         4.2220   35.6720  -18.4490 C.3   187  SER187      0.2103
     53  OG         4.4200   37.0760  -18.4260 O.3   187  SER187     -0.2182
     54  N          1.2830   35.4880  -17.4840 N.am  188  ASN188     -0.1960
     55  CA         0.1700   36.0810  -16.7390 C.3   188  ASN188      0.1819
     56  C          0.3550   35.9470  -15.2340 C.2   188  ASN188      0.2622
     57  O         -0.5270   35.4740  -14.5140 O.2   188  ASN188     -0.2715
     58  CB        -1.1450   35.4140  -17.1540 C.3   188  ASN188      0.1195
     59  CG        -2.3590   36.2350  -16.8200 C.2   188  ASN188      0.2630
     60  OD1       -2.2700   37.4050  -16.4240 O.2   188  ASN188     -0.2716
     61  ND2       -3.5100   35.6320  -16.9710 N.am  188  ASN188     -0.0877
     62  N          1.5100   36.3650  -14.7400 N.am  189  GLY189     -0.1940
     63  CA         1.7760   36.2630  -13.3080 C.3   189  GLY189      0.1998
     64  C          1.7460   34.8210  -12.8170 C.2   189  GLY189      0.2481
     65  O          2.3550   33.9430  -13.4340 O.2   189  GLY189     -0.2729
     66  N          1.0290   34.5600  -11.7110 N.am  190  PRO190     -0.2715
     67  CA         0.9250   33.2030  -11.1900 C.3   190  PRO190      0.1536
     68  C         -0.0640   32.3140  -11.9420 C.2   190  PRO190      0.2598
     69  O         -0.0940   31.1110  -11.6840 O.2   190  PRO190     -0.2715
     70  CB         0.4550   33.4250   -9.7320 C.3   190  PRO190      0.0310
     71  CG        -0.3360   34.6780   -9.8040 C.3   190  PRO190      0.0237
     72  CD         0.3670   35.5380  -10.8250 C.3   190  PRO190      0.0939
     73  N         -0.8310   32.8820  -12.8820 N.am  191  GLU191     -0.1978
     74  CA        -1.8280   32.1250  -13.6510 C.3   191  GLU191      0.1602
     75  C         -1.1770   31.4570  -14.8830 C.2   191  GLU191      0.2287
     76  O         -0.0450   31.7630  -15.1980 O.2   191  GLU191     -0.2864
     77  CB        -2.9900   33.0500  -14.0750 C.3   191  GLU191      0.0415
     78  CG        -3.7880   33.7360  -12.9320 C.3   191  GLU191      0.1163
     79  CD        -4.1430   32.8390  -11.7750 C.2   191  GLU191      0.3649
     80  OE1       -4.4230   31.6370  -11.9830 O.co2 191  GLU191     -0.2457
     81  OE2       -4.1910   33.3550  -10.6230 O.co2 191  GLU191     -0.2457
     82  N          1.6240   26.8230  -20.2950 N.3   204  PHE204     -0.1241
     83  CA         2.4460   26.4450  -19.1570 C.3   204  PHE204      0.1605
     84  C          1.8030   26.9590  -17.8640 C.2   204  PHE204      0.2264
     85  O          1.0740   27.9590  -17.8620 O.2   204  PHE204     -0.2867
     86  CB         3.9090   26.8780  -19.3100 C.3   204  PHE204      0.0534
     87  CG         4.1200   28.3570  -19.1950 C.ar  204  PHE204     -0.0203
     88  CD1        3.8390   29.2080  -20.2710 C.ar  204  PHE204     -0.0042
     89  CD2        4.5870   28.9160  -18.0120 C.ar  204  PHE204     -0.0042
     90  CE1        4.0110   30.5840  -20.1620 C.ar  204  PHE204     -0.0003
     91  CE2        4.7580   30.2910  -17.9010 C.ar  204  PHE204     -0.0003
     92  CZ         4.4750   31.1260  -18.9740 C.ar  204  PHE204     -0.0000
     93  N          2.5780   28.0000  -14.0530 N.3   206  PRO206     -0.2102
     94  CA         3.5120   28.3150  -12.9680 C.3   206  PRO206      0.1504
     95  C          3.1790   27.5060  -11.6970 C.2   206  PRO206      0.2576
     96  O          2.0500   27.0810  -11.5270 O.2   206  PRO206     -0.2718
     97  CB         3.2660   29.8060  -12.7390 C.3   206  PRO206      0.0282
     98  CG         2.8950   30.2920  -14.1250 C.3   206  PRO206      0.0208
     99  CD         1.9980   29.2200  -14.6420 C.3   206  PRO206      0.0893
    100  N          4.1630   27.2500  -10.8550 N.am  207  VAL207     -0.1966
    101  CA         3.8700   26.7120   -9.5170 C.3   207  VAL207      0.1727
    102  C          3.7080   27.9210   -8.6150 C.2   207  VAL207      0.2616
    103  O          4.6040   28.7490   -8.5760 O.2   207  VAL207     -0.2715
    104  CB         5.0140   25.8230   -9.0040 C.3   207  VAL207      0.0290
    105  CG1        4.7220   25.2700   -7.6130 C.3   207  VAL207      0.0023
    106  CG2        5.1830   24.6430   -9.9640 C.3   207  VAL207      0.0023
    107  N          2.5730   28.0270   -7.9150 N.am  208  HIS208     -0.1959
    108  CA         2.2610   29.1870   -7.0540 C.3   208  HIS208      0.1787
    109  C          3.3030   29.4340   -5.9550 C.2   208  HIS208      0.2620
    110  O          3.7900   28.4830   -5.3290 O.2   208  HIS208     -0.2715
    111  CB         0.8890   29.0120   -6.3790 C.3   208  HIS208      0.0785
    112  CG        -0.2460   29.0150   -7.3440 C.ar  208  HIS208      0.0821
    113  ND1       -0.4740   30.0740   -8.2060 N.ar  208  HIS208     -0.2267
    114  CD2       -1.2180   28.1030   -7.5400 C.ar  208  HIS208      0.1154
    115  CE1       -1.5650   29.7790   -8.9070 C.ar  208  HIS208      0.1986
    116  NE2       -2.0530   28.5910   -8.5210 N.ar  208  HIS208     -0.2212
    117  N          3.6470   30.7100   -5.7470 N.am  209  VAL209     -0.1977
    118  CA         4.4540   31.1370   -4.5850 C.3   209  VAL209      0.1596
    119  C          3.9210   32.4500   -3.9780 C.2   209  VAL209      0.2287
    120  O          3.7520   33.4490   -4.6860 O.2   209  VAL209     -0.2864
    121  CB         5.9530   31.3150   -4.9560 C.3   209  VAL209      0.0276
    122  CG1        6.7510   31.8070   -3.7480 C.3   209  VAL209      0.0022
    123  CG2        6.5380   30.0040   -5.4500 C.3   209  VAL209      0.0022
    124  N          4.1020   35.9520   -2.2070 N.3   211  VAL211     -0.1245
    125  CA         5.0660   37.0650   -2.1180 C.3   211  VAL211      0.1561
    126  C          4.3390   38.3690   -1.8080 C.2   211  VAL211      0.2260
    127  O          3.1850   38.5340   -2.1920 O.2   211  VAL211     -0.2867
    128  CB         5.8420   37.2830   -3.4420 C.3   211  VAL211      0.0252
    129  CG1        6.5340   36.0060   -3.8890 C.3   211  VAL211      0.0019
    130  CG2        4.9260   37.7950   -4.5590 C.3   211  VAL211      0.0019
    131  N          5.9600   41.1270   -6.6670 N.3   214  SER214     -0.1217
    132  CA         6.3240   40.3590   -7.8430 C.3   214  SER214      0.1889
    133  C          7.5480   40.9510   -8.5310 C.2   214  SER214      0.2288
    134  O          7.8780   40.5460   -9.6500 O.2   214  SER214     -0.2866
    135  CB         5.1450   40.4020   -8.8350 C.3   214  SER214      0.2089
    136  OG         4.9490   41.7370   -9.3490 O.3   214  SER214     -0.2183
    137  N         10.2500   42.2380  -10.6080 N.3   216  GLY216     -0.1210
    138  CA        11.3380   41.6950  -11.4230 C.3   216  GLY216      0.1956
    139  C         11.0590   40.3340  -12.0160 C.2   216  GLY216      0.2612
    140  O         11.8500   39.8540  -12.8540 O.2   216  GLY216     -0.2717
    141  N          9.9140   39.7330  -11.6640 N.am  217  ALA217     -0.1965
    142  CA         9.6160   38.3600  -12.0790 C.3   217  ALA217      0.1728
    143  C          9.6470   38.2020  -13.6140 C.2   217  ALA217      0.2617
    144  O         10.2870   37.2850  -14.1320 O.2   217  ALA217     -0.2715
    145  CB         8.2780   37.9240  -11.5360 C.3   217  ALA217      0.0334
    146  N          8.9530   39.0710  -14.3520 N.am  218  GLY218     -0.1940
    147  CA         9.0430   39.0060  -15.8370 C.3   218  GLY218      0.2014
    148  C         10.4560   39.1060  -16.4260 C.2   218  GLY218      0.2638
    149  O         10.7830   38.4770  -17.4510 O.2   218  GLY218     -0.2714
    150  N         11.2840   39.9150  -15.7900 N.am  219  ASP219     -0.1971
    151  CA        12.6150   40.2070  -16.2520 C.3   219  ASP219      0.1709
    152  C         13.5220   38.9950  -15.9900 C.2   219  ASP219      0.2293
    153  O         14.3890   38.6170  -16.8210 O.2   219  ASP219     -0.2864
    154  CB        13.1450   41.4320  -15.5050 C.3   219  ASP219      0.1436
    155  CG        12.3170   42.6660  -15.7360 C.2   219  ASP219      0.3671
    156  OD1       11.6710   42.8150  -16.8450 O.co2 219  ASP219     -0.2456
    157  OD2       12.3280   43.5370  -14.7970 O.co2 219  ASP219     -0.2456
    158  N         12.3660   35.9470  -15.5350 N.3   221  PHE221     -0.1241
    159  CA        11.8150   34.8950  -16.3760 C.3   221  PHE221      0.1605
    160  C         12.4090   34.9220  -17.7830 C.2   221  PHE221      0.2264
    161  O         12.8120   33.8710  -18.3220 O.2   221  PHE221     -0.2867
    162  CB        10.2790   35.0310  -16.4010 C.3   221  PHE221      0.0534
    163  CG         9.5820   34.0150  -17.2460 C.ar  221  PHE221     -0.0203
    164  CD1        9.6730   32.6710  -16.9560 C.ar  221  PHE221     -0.0042
    165  CD2        8.7660   34.4180  -18.3120 C.ar  221  PHE221     -0.0042
    166  CE1        9.0090   31.7300  -17.7460 C.ar  221  PHE221     -0.0003
    167  CE2        8.0860   33.4900  -19.0780 C.ar  221  PHE221     -0.0003
    168  CZ         8.2250   32.1390  -18.8060 C.ar  221  PHE221     -0.0000
    169  N         10.4360   28.9180  -15.5610 N.3   242  ALA242     -0.1245
    170  CA         9.3570   29.0800  -14.5640 C.3   242  ALA242      0.1562
    171  C          9.8240   28.7440  -13.1290 C.2   242  ALA242      0.2260
    172  O          9.5400   29.4880  -12.1760 O.2   242  ALA242     -0.2867
    173  CB         8.1730   28.2080  -14.9470 C.3   242  ALA242      0.0290
    174  N         12.3160   31.3570  -11.7690 N.3   245  THR245     -0.1203
    175  CA        11.6680   32.6030  -11.3860 C.3   245  THR245      0.1994
    176  C         10.9530   32.4730  -10.0500 C.2   245  THR245      0.2617
    177  O         11.0370   33.3590   -9.2110 O.2   245  THR245     -0.2717
    178  CB        10.7140   33.0580  -12.5080 C.3   245  THR245      0.1784
    179  OG1       11.4760   33.1490  -13.6990 O.3   245  THR245     -0.2211
    180  CG2       10.1070   34.4260  -12.2290 C.3   245  THR245      0.0376
    181  N         10.2960   31.3440   -9.8560 N.am  246  ALA246     -0.1979
    182  CA         9.5910   31.0380   -8.6350 C.3   246  ALA246      0.1597
    183  C         10.5380   30.9970   -7.4510 C.2   246  ALA246      0.2287
    184  O         10.1830   31.4270   -6.3420 O.2   246  ALA246     -0.2864
    185  CB         8.8540   29.7150   -8.7720 C.3   246  ALA246      0.0319
    186  N         11.6080   34.4140   -6.5620 N.3   249  LEU249     -0.1245
    187  CA        10.5420   35.1420   -5.8720 C.3   249  LEU249      0.1561
    188  C         10.4240   34.7710   -4.3990 C.2   249  LEU249      0.2260
    189  O         10.1720   35.6400   -3.5430 O.2   249  LEU249     -0.2867
    190  CB         9.1970   34.9030   -6.5490 C.3   249  LEU249      0.0270
    191  CG         8.9720   35.6690   -7.8450 C.3   249  LEU249      0.0019
    192  CD1        7.7020   35.1700   -8.5280 C.3   249  LEU249      0.0001
    193  CD2        8.8760   37.1520   -7.4850 C.3   249  LEU249      0.0001
@<TRIPOS>BOND
     1    42    41    2
     2    21    22    1
     3    41    40    1
     4    24    23    2
     5    22    23    1
     6    22    25    1
     7    40    43    1
     8    40    39    1
     9    12    13    1
    10    43    44    1
    11    25    26    1
    12    34    33    2
    13    14    15    2
    14    14    13    1
    15    13    16    1
    16    33    32    1
    17    31    32    1
    18    26    28   ar
    19    26    27   ar
    20    44    45    1
    21    46    45   ar
    22    28    30   ar
    23    48    49    1
    24    45    47   ar
    25    32    35    1
    26    16    17    1
    27    82    83    1
    28    27    29   ar
    29    88    90   ar
    30    88    87   ar
    31    90    92   ar
    32    17    18    1
    33    37    36   ar
    34    30    29   ar
    35    86    87    1
    36    86    83    1
    37    49    50    1
    38    49    52    1
    39    87    89   ar
    40    83    84    1
    41    51    50    2
    42   167   168   ar
    43   167   165   ar
    44    35    36    1
    45    92    91   ar
    46    36    38   ar
    47   168   166   ar
    48    18    20   am
    49    18    19    2
    50    50    54   am
    51    52    53    1
    52   161   160    2
    53   165   163   ar
    54    89    91   ar
    55    84    85    2
    56   160   159    1
    57   166   164   ar
    58    54    55    1
    59   149   148    2
    60   163   164   ar
    61   163   162    1
    62    58    59    1
    63    58    55    1
    64    61    59   am
    65   156   155   ar
    66   153   152    2
    67    59    60    2
    68    55    56    1
    69   148   147    1
    70   148   150   am
    71   162   159    1
    72   159   158    1
    73   151   152    1
    74   151   150    1
    75   151   154    1
    76   147   146    1
    77   155   154    1
    78   155   157   ar
    79   169   170    1
    80    56    62   am
    81    56    57    2
    82    76    75    2
    83   173   170    1
    84    75    74    1
    85    62    63    1
    86    99    98    1
    87    99    93    1
    88   170   171    1
    89   146   143   am
    90   144   143    2
    91    98    97    1
    92    77    74    1
    93    77    78    1
    94    93    94    1
    95   179   178    1
    96    74    73    1
    97   143   142    1
    98    65    64    2
    99    11     9    1
   100    63    64    1
   101   171   172    2
   102    94    97    1
   103    94    95    1
   104    78    79    1
   105    73    68   am
   106   140   139    2
   107    64    66   am
   108   178   180    1
   109   178   175    1
   110     9     8    2
   111     9    10    1
   112   142   141    1
   113   142   145    1
   114   139   141   am
   115   139   138    1
   116     8     7    1
   117    80    79   ar
   118    68    69    2
   119    68    67    1
   120    79    81   ar
   121   174   175    1
   122    66    67    1
   123    66    72    1
   124    95    96    2
   125    95   100   am
   126   138   137    1
   127   175   176    1
   128    67    70    1
   129     4     3    2
   130   100   101    1
   131    72    71    1
   132     7     6    1
   133     6     5    1
   134   176   181   am
   135   176   177    2
   136   106   104    1
   137   181   182    1
   138    71    70    1
   139     3     2    1
   140   134   133    2
   141   101   104    1
   142   101   102    1
   143   136   135    1
   144     1     2    1
   145   104   105    1
   146   115   116   ar
   147   115   113   ar
   148     5     2    1
   149   135   132    1
   150   185   182    1
   151   182   183    1
   152   102   103    2
   153   102   107   am
   154   133   132    1
   155   192   191    1
   156   116   114   ar
   157   113   112   ar
   158   107   108    1
   159   191   193    1
   160   191   190    1
   161   132   131    1
   162   114   112   ar
   163   183   184    2
   164   112   111    1
   165   108   111    1
   166   108   109    1
   167   186   187    1
   168   190   187    1
   169   109   117   am
   170   109   110    2
   171   187   188    1
   172   117   118    1
   173   123   121    1
   174   121   118    1
   175   121   122    1
   176   120   119    2
   177   118   119    1
   178   130   128    1
   179   188   189    2
   180   129   128    1
   181   128   125    1
   182   124   125    1
   183   127   126    2
   184   125   126    1
