@<TRIPOS>MOLECULE
tmp/4xfeA00.pdb
 152 141 0 0 0
SMALL
GASTEIGER

@<TRIPOS>ATOM
      1  N         32.3600   19.3940   34.3430 N.3     8  ILE8       -0.1231
      2  CA        31.4750   18.9650   35.4060 C.3     8  ILE8        0.1692
      3  C         30.8180   20.1900   36.0470 C.2     8  ILE8        0.2592
      4  O         29.7450   20.0810   36.6210 O.2     8  ILE8       -0.2718
      5  CB        32.2750   18.1550   36.4580 C.3     8  ILE8        0.0266
      6  CG1       31.3730   17.2640   37.3010 C.3     8  ILE8        0.0019
      7  CG2       33.1080   19.0350   37.3490 C.3     8  ILE8        0.0020
      8  CD1       30.7200   16.1450   36.4800 C.3     8  ILE8        0.0001
      9  N         31.4340   21.3610   35.9530 N.am    9  HIS9       -0.1976
     10  CA        30.9300   22.5450   36.6350 C.3     9  HIS9        0.1656
     11  C         29.8370   23.2330   35.8280 C.2     9  HIS9        0.2291
     12  O         29.8080   23.1250   34.5980 O.2     9  HIS9       -0.2864
     13  CB        32.0910   23.5170   36.8900 C.3     9  HIS9        0.0771
     14  CG        33.0350   23.0640   37.9500 C.ar    9  HIS9        0.0820
     15  ND1       32.6030   22.7090   39.2010 N.ar    9  HIS9       -0.2267
     16  CD2       34.3670   22.8720   37.9380 C.ar    9  HIS9        0.1154
     17  CE1       33.6380   22.3360   39.9340 C.ar    9  HIS9        0.1986
     18  NE2       34.7180   22.4190   39.1850 N.ar    9  HIS9       -0.2212
     19  N         30.8520   29.1510   35.9400 N.3    13  TYR13      -0.1241
     20  CA        31.9200   28.8180   36.8880 C.3    13  TYR13       0.1605
     21  C         33.2720   29.2960   36.3450 C.2    13  TYR13       0.2264
     22  O         33.4720   29.3300   35.1410 O.2    13  TYR13      -0.2867
     23  CB        31.9260   27.2990   37.0990 C.3    13  TYR13       0.0534
     24  CG        32.6230   26.8070   38.3490 C.ar   13  TYR13      -0.0201
     25  CD1       31.9750   26.8640   39.5690 C.ar   13  TYR13      -0.0009
     26  CD2       33.8930   26.2690   38.3200 C.ar   13  TYR13      -0.0009
     27  CE1       32.5700   26.3880   40.7210 C.ar   13  TYR13       0.0417
     28  CE2       34.5060   25.8150   39.4870 C.ar   13  TYR13       0.0417
     29  CZ        33.8330   25.8770   40.6740 C.ar   13  TYR13       0.1957
     30  OH        34.4600   25.4260   41.8000 O.3    13  TYR13      -0.2866
     31  N         33.4710   12.9940   35.7390 N.3    45  GLU45      -0.1245
     32  CA        34.8530   13.2400   35.3540 C.3    45  GLU45       0.1567
     33  C         35.5460   11.9450   34.9410 C.2    45  GLU45       0.2260
     34  O         36.2910   11.9460   33.9840 O.2    45  GLU45      -0.2867
     35  CB        35.6290   13.9670   36.4610 C.3    45  GLU45       0.0388
     36  CG        35.1800   15.4260   36.6470 C.3    45  GLU45       0.1160
     37  CD        36.2590   16.3530   37.2270 C.2    45  GLU45       0.3649
     38  OE1       37.1880   15.8820   37.9370 O.co2  45  GLU45      -0.2457
     39  OE2       36.1770   17.5930   36.9790 O.co2  45  GLU45      -0.2457
     40  N         38.6930   19.5580   31.4260 N.3    60  ARG60      -0.1245
     41  CA        39.4700   19.8780   32.6160 C.3    60  ARG60       0.1563
     42  C         38.9110   19.0180   33.7100 C.2    60  ARG60       0.2260
     43  O         37.6890   18.9750   33.9040 O.2    60  ARG60      -0.2867
     44  CB        39.3390   21.3600   32.9840 C.3    60  ARG60       0.0307
     45  CG        40.0170   21.7060   34.3420 C.3    60  ARG60       0.0489
     46  CD        39.1940   22.6910   35.1860 C.3    60  ARG60       0.2205
     47  NE        37.8480   22.1820   35.4130 N.pl3  60  ARG60      -0.0865
     48  CZ        37.5190   21.2800   36.3340 C.cat  60  ARG60       0.5346
     49  NH1       38.4210   20.8190   37.1810 N.pl3  60  ARG60       0.1354
     50  NH2       36.2860   20.7980   36.3850 N.pl3  60  ARG60       0.1354
     51  N         39.7910   17.3690   37.9370 N.3    62  SER62      -0.1217
     52  CA        40.6920   17.4440   39.0610 C.3    62  SER62       0.1889
     53  C         41.7910   16.4050   38.8840 C.2    62  SER62       0.2288
     54  O         41.5590   15.2760   38.4580 O.2    62  SER62      -0.2866
     55  CB        39.9230   17.1800   40.3500 C.3    62  SER62       0.2089
     56  OG        40.8010   17.1810   41.4790 O.3    62  SER62      -0.2183
     57  N         41.8750   25.2160   41.5270 N.3   116  GLY116     -0.1225
     58  CA        40.6910   24.8520   42.2910 C.3   116  GLY116      0.1811
     59  C         40.8710   25.1060   43.7690 C.2   116  GLY116      0.2280
     60  O         40.3010   24.3880   44.5960 O.2   116  GLY116     -0.2866
     61  N         41.0880   22.4480   49.4620 N.3   119  ARG119     -0.1245
     62  CA        39.9480   21.6610   49.8770 C.3   119  ARG119      0.1563
     63  C         39.9160   21.5420   51.3850 C.2   119  ARG119      0.2260
     64  O         40.9350   21.2400   52.0110 O.2   119  ARG119     -0.2867
     65  CB        40.0260   20.2880   49.2400 C.3   119  ARG119      0.0307
     66  CG        40.0300   20.3430   47.6970 C.3   119  ARG119      0.0489
     67  CD        40.3340   19.0150   47.0410 C.3   119  ARG119      0.2205
     68  NE        39.2580   18.0370   47.1550 N.pl3 119  ARG119     -0.0865
     69  CZ        38.3420   17.8180   46.2130 C.cat 119  ARG119      0.5346
     70  NH1       38.3270   18.5360   45.1010 N.pl3 119  ARG119      0.1354
     71  NH2       37.4360   16.8750   46.3630 N.pl3 119  ARG119      0.1354
     72  N         32.9310   11.9280   51.9360 N.3   138  ARG138     -0.1245
     73  CA        33.1710   11.6670   50.5130 C.3   138  ARG138      0.1563
     74  C         34.4960   12.2490   50.0720 C.2   138  ARG138      0.2260
     75  O         34.8250   13.3940   50.4040 O.2   138  ARG138     -0.2867
     76  CB        32.0510   12.2580   49.6570 C.3   138  ARG138      0.0307
     77  CG        32.2270   12.0070   48.1460 C.3   138  ARG138      0.0489
     78  CD        33.0940   13.0690   47.4960 C.3   138  ARG138      0.2205
     79  NE        33.1880   12.9030   46.0480 N.pl3 138  ARG138     -0.0865
     80  CZ        33.8120   13.7660   45.2480 C.cat 138  ARG138      0.5346
     81  NH1       33.8670   13.5570   43.9310 N.pl3 138  ARG138      0.1354
     82  NH2       34.3700   14.8410   45.7450 N.pl3 138  ARG138      0.1354
     83  N         37.2160   12.0000   46.3230 N.3   140  GLN140     -0.1245
     84  CA        37.2640   11.5680   44.9370 C.3   140  GLN140      0.1566
     85  C         37.7980   10.1490   44.8420 C.2   140  GLN140      0.2260
     86  O         38.4390    9.6430   45.7580 O.2   140  GLN140     -0.2867
     87  CB        38.1490   12.5080   44.1040 C.3   140  GLN140      0.0367
     88  CG        37.5990   13.9170   43.9820 C.3   140  GLN140      0.0905
     89  CD        38.4200   14.7970   43.0840 C.2   140  GLN140      0.2608
     90  OE1       38.1760   14.8650   41.8910 O.2   140  GLN140     -0.2717
     91  NE2       39.3720   15.4980   43.6460 N.am  140  GLN140     -0.0878
     92  N         31.2260   13.3150   41.6140 N.3   157  THR157     -0.1218
     93  CA        30.7960   14.6460   41.9930 C.3   157  THR157      0.1862
     94  C         29.2660   14.7670   42.1120 C.2   157  THR157      0.2287
     95  O         28.7490   15.3050   43.0980 O.2   157  THR157     -0.2866
     96  CB        31.2790   15.6720   40.9490 C.3   157  THR157      0.1770
     97  OG1       32.6230   15.3660   40.5300 O.3   157  THR157     -0.2211
     98  CG2       31.1970   17.1040   41.4930 C.3   157  THR157      0.0375
     99  N         27.1020   13.5160   45.3840 N.3   160  ILE160     -0.1245
    100  CA        27.3440   14.0430   46.7330 C.3   160  ILE160      0.1561
    101  C         26.0930   14.6810   47.3320 C.2   160  ILE160      0.2260
    102  O         25.7760   14.4440   48.5010 O.2   160  ILE160     -0.2867
    103  CB        28.4950   15.0870   46.7410 C.3   160  ILE160      0.0252
    104  CG1       29.8100   14.4740   46.2860 C.3   160  ILE160      0.0019
    105  CG2       28.6570   15.7010   48.1250 C.3   160  ILE160      0.0019
    106  CD1       30.7480   15.5350   45.7660 C.3   160  ILE160      0.0001
    107  N         36.0180   20.0240   49.9040 N.3   174  ASN174     -0.1225
    108  CA        36.1530   20.7820   48.6720 C.3   174  ASN174      0.1785
    109  C         36.4160   22.2450   48.9510 C.2   174  ASN174      0.2597
    110  O         36.5360   22.6620   50.1090 O.2   174  ASN174     -0.2718
    111  CB        34.9280   20.6090   47.7700 C.3   174  ASN174      0.1169
    112  CG        35.3100   20.4080   46.3320 C.2   174  ASN174      0.2627
    113  OD1       35.9970   21.2440   45.7390 O.2   174  ASN174     -0.2716
    114  ND2       34.9190   19.2900   45.7710 N.am  174  ASN174     -0.0877
    115  N         36.5410   23.0160   47.8740 N.am  175  ASN175     -0.1974
    116  CA        36.7270   24.4530   47.9280 C.3   175  ASN175      0.1688
    117  C         35.3880   25.1960   48.0490 C.2   175  ASN175      0.2292
    118  O         34.3200   24.5890   47.9210 O.2   175  ASN175     -0.2864
    119  CB        37.5170   24.9240   46.7060 C.3   175  ASN175      0.1181
    120  CG        36.8480   24.5680   45.4090 C.2   175  ASN175      0.2629
    121  OD1       35.6630   24.8110   45.2270 O.2   175  ASN175     -0.2716
    122  ND2       37.5910   24.0080   44.4970 N.am  175  ASN175     -0.0877
    123  N         32.7870   25.2060   44.9920 N.3   178  THR178     -0.1218
    124  CA        32.1020   23.9420   44.7530 C.3   178  THR178      0.1862
    125  C         31.0300   23.7250   45.8160 C.2   178  THR178      0.2287
    126  O         29.8860   23.3760   45.4970 O.2   178  THR178     -0.2866
    127  CB        33.0870   22.7650   44.7580 C.3   178  THR178      0.1770
    128  OG1       33.9530   22.8770   43.6320 O.3   178  THR178     -0.2211
    129  CG2       32.3720   21.4340   44.6300 C.3   178  THR178      0.0375
    130  N         44.3780   21.2560   38.4520 N.3   201  GLU201     -0.1245
    131  CA        43.3850   20.6550   37.5710 C.3   201  GLU201      0.1567
    132  C         43.8730   20.7180   36.1300 C.2   201  GLU201      0.2260
    133  O         43.8470   21.7700   35.5020 O.2   201  GLU201     -0.2867
    134  CB        42.0450   21.3910   37.7250 C.3   201  GLU201      0.0388
    135  CG        41.6360   21.4670   39.1470 C.3   201  GLU201      0.1160
    136  CD        40.2930   22.0980   39.3760 C.2   201  GLU201      0.3649
    137  OE1       39.8490   22.9460   38.5830 O.co2 201  GLU201     -0.2457
    138  OE2       39.6760   21.7530   40.4070 O.co2 201  GLU201     -0.2457
    139  N         39.2480   32.8500   39.5390 N.3   234  TRP234     -0.1241
    140  CA        39.1570   31.9720   40.6940 C.3   234  TRP234      0.1605
    141  C         39.1750   32.7890   41.9730 C.2   234  TRP234      0.2264
    142  O         38.3270   32.5840   42.8620 O.2   234  TRP234     -0.2867
    143  CB        40.2880   30.9270   40.7340 C.3   234  TRP234      0.0550
    144  CG        40.0880   30.0930   41.9460 C.ar  234  TRP234      0.0003
    145  CD1       40.7200   30.1990   43.1630 C.ar  234  TRP234      0.0946
    146  CD2       39.1180   29.0680   42.0850 C.ar  234  TRP234      0.0152
    147  NE1       40.1840   29.2870   44.0550 N.ar  234  TRP234     -0.2442
    148  CE2       39.1910   28.5940   43.4110 C.ar  234  TRP234      0.0810
    149  CE3       38.1620   28.5290   41.2250 C.ar  234  TRP234      0.0012
    150  CZ2       38.3650   27.5770   43.8790 C.ar  234  TRP234      0.0191
    151  CZ3       37.3270   27.5160   41.7060 C.ar  234  TRP234      0.0001
    152  CH2       37.4480   27.0530   43.0150 C.ar  234  TRP234      0.0015
@<TRIPOS>BOND
     1    40    41    1
     2    41    44    1
     3    41    42    1
     4    44    45    1
     5    42    43    2
     6    34    33    2
     7    45    46    1
     8     1     2    1
     9    12    11    2
    10    33    32    1
    11    22    21    2
    12    46    47    1
    13    32    31    1
    14    32    35    1
    15     2     3    1
    16     2     5    1
    17    47    48    2
    18   133   132    2
    19    11    10    1
    20    19    20    1
    21     9     3   am
    22     9    10    1
    23     3     4    2
    24   132   131    1
    25    48    50    1
    26    48    49    1
    27    21    20    1
    28     5     6    1
    29     5     7    1
    30    35    36    1
    31     8     6    1
    32    10    13    1
    33    36    37    1
    34    20    23    1
    35    13    14    1
    36    39    37   ar
    37    23    24    1
    38    37    38   ar
    39   131   134    1
    40   131   130    1
    41   134   135    1
    42    51    52    1
    43    16    14   ar
    44    16    18   ar
    45    14    15   ar
    46    26    24   ar
    47    26    28   ar
    48    24    25   ar
    49    54    53    2
    50   137   136   ar
    51    53    52    1
    52    52    55    1
    53   135   136    1
    54    18    17   ar
    55    15    17   ar
    56   136   138   ar
    57    28    29   ar
    58   139   140    1
    59    25    27   ar
    60    55    56    1
    61    97    96    1
    62    29    27   ar
    63    29    30    1
    64   140   143    1
    65   140   141    1
    66   143   144    1
    67    96    98    1
    68    96    93    1
    69   149   151   ar
    70   149   146   ar
    71    57    58    1
    72    92    93    1
    73   151   152   ar
    74    90    89    2
    75   144   146   ar
    76   144   145   ar
    77   141   142    2
    78    93    94    1
    79   146   148   ar
    80    94    95    2
    81    58    59    1
    82   152   150   ar
    83    89    91   am
    84    89    88    1
    85   145   147   ar
    86   148   150   ar
    87   148   147   ar
    88   128   127    1
    89    59    60    2
    90    81    80    1
    91    88    87    1
    92    87    84    1
    93   122   120   am
    94   129   127    1
    95   124   127    1
    96   124   123    1
    97   124   125    1
    98    85    84    1
    99    85    86    2
   100    84    83    1
   101    70    69    1
   102   121   120    2
   103    80    82    1
   104    80    79    2
   105    99   100    1
   106   120   119    1
   107   126   125    2
   108   113   112    2
   109   106   104    1
   110   114   112   am
   111    79    78    1
   112    69    71    1
   113    69    68    2
   114   104   103    1
   115   112   111    1
   116   119   116    1
   117   100   103    1
   118   100   101    1
   119   103   105    1
   120    67    68    1
   121    67    66    1
   122   101   102    2
   123    78    77    1
   124    66    65    1
   125   111   108    1
   126   115   116    1
   127   115   109   am
   128   118   117    2
   129   116   117    1
   130    77    76    1
   131   108   109    1
   132   108   107    1
   133   109   110    2
   134    65    62    1
   135    61    62    1
   136    76    73    1
   137    62    63    1
   138    74    75    2
   139    74    73    1
   140    73    72    1
   141    63    64    2
