@<TRIPOS>MOLECULE
tmp/4xfjB01.pdb
 156 145 0 0 0
SMALL
GASTEIGER

@<TRIPOS>ATOM
      1  N         40.0620   18.9780   66.2290 N.3    86  TYR86      -0.1241
      2  CA        39.0060   19.3500   67.2480 C.3    86  TYR86       0.1605
      3  C         39.1990   18.7540   68.6550 C.2    86  TYR86       0.2264
      4  O         39.0930   17.5420   68.7990 O.2    86  TYR86      -0.2867
      5  CB        37.5990   18.8960   66.7160 C.3    86  TYR86       0.0534
      6  CG        36.3610   18.9680   67.6670 C.ar   86  TYR86      -0.0201
      7  CD1       35.4600   17.8960   67.7780 C.ar   86  TYR86      -0.0009
      8  CD2       36.0850   20.1010   68.4090 C.ar   86  TYR86      -0.0009
      9  CE1       34.3330   17.9530   68.6330 C.ar   86  TYR86       0.0417
     10  CE2       34.9630   20.1690   69.2560 C.ar   86  TYR86       0.0417
     11  CZ        34.0760   19.1070   69.3640 C.ar   86  TYR86       0.1957
     12  OH        32.9580   19.1950   70.2360 O.3    86  TYR86      -0.2866
     13  N         32.2360   19.7480   72.8300 N.3    90  SER90      -0.1202
     14  CA        30.9080   19.2960   73.2230 C.3    90  SER90       0.2020
     15  C         30.8480   17.8170   73.5670 C.2    90  SER90       0.2618
     16  O         29.9680   17.3780   74.3000 O.2    90  SER90      -0.2717
     17  CB        29.9100   19.5940   72.1200 C.3    90  SER90       0.2103
     18  OG        29.9440   20.9700   71.7950 O.3    90  SER90      -0.2182
     19  N         31.7870   17.0420   73.0700 N.am   91  ALA91      -0.1979
     20  CA        31.7230   15.6210   73.2940 C.3    91  ALA91       0.1597
     21  C         32.1150   15.2750   74.7130 C.2    91  ALA91       0.2287
     22  O         31.5640   14.3430   75.2960 O.2    91  ALA91      -0.2864
     23  CB        32.6250   14.8910   72.3060 C.3    91  ALA91       0.0319
     24  N         29.4510   15.4470   77.7280 N.3    94  ARG94      -0.1245
     25  CA        28.2420   14.6300   77.7200 C.3    94  ARG94       0.1563
     26  C         28.2680   13.4640   78.7210 C.2    94  ARG94       0.2260
     27  O         27.2850   13.2710   79.4320 O.2    94  ARG94      -0.2867
     28  CB        27.9570   14.1080   76.3100 C.3    94  ARG94       0.0307
     29  CG        27.8080   15.1840   75.2480 C.3    94  ARG94       0.0489
     30  CD        27.1430   16.4350   75.7640 C.3    94  ARG94       0.2205
     31  NE        26.8910   17.3920   74.6900 N.pl3  94  ARG94      -0.0865
     32  CZ        26.6510   18.6800   74.8910 C.cat  94  ARG94       0.5346
     33  NH1       26.6330   19.1640   76.1280 N.pl3  94  ARG94       0.1354
     34  NH2       26.4300   19.4830   73.8590 N.pl3  94  ARG94       0.1354
     35  N         25.5110   14.2770   67.0960 N.3   122  ASN122     -0.1225
     36  CA        26.2610   13.2820   67.8360 C.3   122  ASN122      0.1785
     37  C         25.8030   13.2340   69.2900 C.2   122  ASN122      0.2597
     38  O         25.9880   12.2300   69.9720 O.2   122  ASN122     -0.2718
     39  CB        27.7600   13.5950   67.7890 C.3   122  ASN122      0.1169
     40  CG        28.3520   13.4720   66.3960 C.2   122  ASN122      0.2627
     41  OD1       28.2420   12.4240   65.7380 O.2   122  ASN122     -0.2716
     42  ND2       29.0070   14.5460   65.9430 N.am  122  ASN122     -0.0877
     43  N         25.2290   14.3220   69.7870 N.am  123  ASP123     -0.1974
     44  CA        24.9980   14.3830   71.2280 C.3   123  ASP123      0.1709
     45  C         23.9360   13.3770   71.6750 C.2   123  ASP123      0.2293
     46  O         24.0600   12.8060   72.7650 O.2   123  ASP123     -0.2864
     47  CB        24.6450   15.8080   71.6660 C.3   123  ASP123      0.1436
     48  CG        25.8870   16.7000   71.7610 C.2   123  ASP123      0.3671
     49  OD1       26.9980   16.1820   72.0530 O.co2 123  ASP123     -0.2456
     50  OD2       25.7590   17.9130   71.5350 O.co2 123  ASP123     -0.2456
     51  N         25.8470   10.2570   72.4390 N.3   126  ARG126     -0.1245
     52  CA        26.6270   10.3360   73.6730 C.3   126  ARG126      0.1563
     53  C         25.7370   10.2120   74.9000 C.2   126  ARG126      0.2260
     54  O         26.0670    9.4720   75.8260 O.2   126  ARG126     -0.2867
     55  CB        27.4260   11.6290   73.6920 C.3   126  ARG126      0.0307
     56  CG        28.3660   11.7070   72.4690 C.3   126  ARG126      0.0489
     57  CD        28.8350   13.1240   72.1710 C.3   126  ARG126      0.2205
     58  NE        29.6870   13.1470   70.9820 N.pl3 126  ARG126     -0.0865
     59  CZ        29.9590   14.2430   70.2910 C.cat 126  ARG126      0.5346
     60  NH1       29.4470   15.4180   70.6650 N.pl3 126  ARG126      0.1354
     61  NH2       30.7440   14.1690   69.2200 N.pl3 126  ARG126      0.1354
     62  N         23.7740   28.5030   66.5370 N.3   174  SER174     -0.1202
     63  CA        23.6270   27.3910   67.4550 C.3   174  SER174      0.2020
     64  C         24.9550   27.2680   68.1890 C.2   174  SER174      0.2619
     65  O         25.9740   26.9390   67.5820 O.2   174  SER174     -0.2717
     66  CB        23.2760   26.0890   66.7320 C.3   174  SER174      0.2103
     67  OG        23.2340   25.0010   67.6440 O.3   174  SER174     -0.2182
     68  N         24.9380   27.5410   69.4880 N.am  175  ILE175     -0.1965
     69  CA        26.1710   27.6320   70.2590 C.3   175  ILE175      0.1727
     70  C         26.1660   26.6650   71.4220 C.2   175  ILE175      0.2616
     71  O         25.1700   26.5430   72.1400 O.2   175  ILE175     -0.2715
     72  CB        26.3890   29.0590   70.8040 C.3   175  ILE175      0.0290
     73  CG1       26.5430   30.0530   69.6650 C.3   175  ILE175      0.0022
     74  CG2       27.6200   29.1310   71.7040 C.3   175  ILE175      0.0023
     75  CD1       26.4580   31.4920   70.1210 C.3   175  ILE175      0.0001
     76  N         27.2720   25.9600   71.5980 N.am  176  ASP176     -0.1971
     77  CA        27.4860   25.2000   72.8120 C.3   176  ASP176      0.1709
     78  C         28.8160   25.6050   73.3900 C.2   176  ASP176      0.2293
     79  O         29.8160   25.5520   72.6960 O.2   176  ASP176     -0.2864
     80  CB        27.4900   23.6980   72.5630 C.3   176  ASP176      0.1436
     81  CG        27.5810   22.9240   73.8520 C.2   176  ASP176      0.3671
     82  OD1       26.8660   23.3250   74.7980 O.co2 176  ASP176     -0.2456
     83  OD2       28.3900   21.9750   73.9450 O.co2 176  ASP176     -0.2456
     84  N         31.5530   26.0300   70.5990 N.3   183  ALA183     -0.1245
     85  CA        31.2310   25.5130   69.2750 C.3   183  ALA183      0.1562
     86  C         30.1460   26.3910   68.6760 C.2   183  ALA183      0.2260
     87  O         29.2020   26.7280   69.3640 O.2   183  ALA183     -0.2867
     88  CB        30.7660   24.0480   69.3610 C.3   183  ALA183      0.0290
     89  N         27.5960   26.9210   65.1750 N.3   185  GLU185     -0.1245
     90  CA        26.9820   26.4850   63.9300 C.3   185  GLU185      0.1567
     91  C         26.0660   27.6040   63.4790 C.2   185  GLU185      0.2260
     92  O         25.2700   28.0830   64.2690 O.2   185  GLU185     -0.2867
     93  CB        26.1420   25.2170   64.1130 C.3   185  GLU185      0.0388
     94  CG        26.8880   23.9420   64.3720 C.3   185  GLU185      0.1160
     95  CD        25.9380   22.7770   64.6260 C.2   185  GLU185      0.3649
     96  OE1       25.1380   22.8550   65.5840 O.co2 185  GLU185     -0.2457
     97  OE2       25.9830   21.7880   63.8680 O.co2 185  GLU185     -0.2457
     98  N         33.9250   18.0380   59.6400 N.3   259  GLU259     -0.1245
     99  CA        34.1170   16.7740   60.3480 C.3   259  GLU259      0.1567
    100  C         33.1220   15.7180   59.9420 C.2   259  GLU259      0.2260
    101  O         32.0650   16.0060   59.4120 O.2   259  GLU259     -0.2867
    102  CB        34.0440   16.9850   61.8640 C.3   259  GLU259      0.0388
    103  CG        32.7070   17.4400   62.3550 C.3   259  GLU259      0.1160
    104  CD        32.7770   17.9500   63.7720 C.2   259  GLU259      0.3649
    105  OE1       33.3530   19.0410   63.9940 O.co2 259  GLU259     -0.2457
    106  OE2       32.2490   17.2710   64.6590 O.co2 259  GLU259     -0.2457
    107  N         30.5060   13.2490   61.1860 N.3   261  ARG261     -0.1245
    108  CA        29.6340   12.8930   62.3040 C.3   261  ARG261      0.1563
    109  C         29.5140   11.3840   62.3500 C.2   261  ARG261      0.2260
    110  O         29.6440   10.7250   61.3400 O.2   261  ARG261     -0.2867
    111  CB        28.2580   13.5180   62.1480 C.3   261  ARG261      0.0307
    112  CG        28.2820   15.0020   62.1910 C.3   261  ARG261      0.0489
    113  CD        26.9050   15.5340   62.4080 C.3   261  ARG261      0.2205
    114  NE        26.9410   16.9880   62.3860 N.pl3 261  ARG261     -0.0865
    115  CZ        25.8840   17.7690   62.5900 C.cat 261  ARG261      0.5346
    116  NH1       24.6910   17.2400   62.8150 N.pl3 261  ARG261      0.1354
    117  NH2       26.0280   19.0890   62.5610 N.pl3 261  ARG261      0.1354
    118  N         29.8140   17.7130   58.4270 N.3   267  SER267     -0.1217
    119  CA        29.2760   19.0320   58.7570 C.3   267  SER267      0.1889
    120  C         30.4040   19.9890   59.0820 C.2   267  SER267      0.2288
    121  O         31.5070   19.5730   59.4000 O.2   267  SER267     -0.2866
    122  CB        28.2880   18.9600   59.9230 C.3   267  SER267      0.2089
    123  OG        28.9200   18.4560   61.0610 O.3   267  SER267     -0.2183
    124  N         31.8020   23.2280   61.2690 N.3   269  GLU269     -0.1245
    125  CA        31.6230   23.8900   62.5360 C.3   269  GLU269      0.1567
    126  C         32.8000   24.8070   62.8310 C.2   269  GLU269      0.2260
    127  O         33.9190   24.5380   62.3800 O.2   269  GLU269     -0.2867
    128  CB        31.4650   22.8390   63.6340 C.3   269  GLU269      0.0388
    129  CG        30.8570   23.3840   64.8700 C.3   269  GLU269      0.1160
    130  CD        29.9050   22.4220   65.5180 C.2   269  GLU269      0.3649
    131  OE1       29.6530   21.3190   64.9530 O.co2 269  GLU269     -0.2457
    132  OE2       29.4010   22.7890   66.5980 O.co2 269  GLU269     -0.2457
    133  N         35.0570   26.3210   65.9890 N.3   271  TYR271     -0.1241
    134  CA        35.3550   26.1550   67.4020 C.3   271  TYR271      0.1605
    135  C         36.2850   27.2270   67.9040 C.2   271  TYR271      0.2264
    136  O         37.1420   27.7270   67.1630 O.2   271  TYR271     -0.2867
    137  CB        35.9800   24.7860   67.6690 C.3   271  TYR271      0.0534
    138  CG        35.1210   23.6500   67.2160 C.ar  271  TYR271     -0.0201
    139  CD1       34.0050   23.2560   67.9480 C.ar  271  TYR271     -0.0009
    140  CD2       35.4090   22.9630   66.0380 C.ar  271  TYR271     -0.0009
    141  CE1       33.2100   22.1840   67.5140 C.ar  271  TYR271      0.0417
    142  CE2       34.6270   21.9150   65.6100 C.ar  271  TYR271      0.0417
    143  CZ        33.5230   21.5420   66.3340 C.ar  271  TYR271      0.1957
    144  OH        32.7540   20.4870   65.9070 O.3   271  TYR271     -0.2866
    145  N         34.3150   10.8350   70.7200 N.3   311  TYR311     -0.1241
    146  CA        33.4530   11.4890   69.7410 C.3   311  TYR311      0.1605
    147  C         32.2110   10.6390   69.4310 C.2   311  TYR311      0.2264
    148  O         31.0820   11.1620   69.3310 O.2   311  TYR311     -0.2867
    149  CB        34.2310   11.7550   68.4560 C.3   311  TYR311      0.0534
    150  CG        33.4680   12.5690   67.4510 C.ar  311  TYR311     -0.0201
    151  CD1       33.5160   13.9570   67.4700 C.ar  311  TYR311     -0.0009
    152  CD2       32.6870   11.9550   66.4790 C.ar  311  TYR311     -0.0009
    153  CE1       32.8210   14.7100   66.5250 C.ar  311  TYR311      0.0417
    154  CE2       31.9940   12.6920   65.5570 C.ar  311  TYR311      0.0417
    155  CZ        32.0720   14.0690   65.5740 C.ar  311  TYR311      0.1957
    156  OH        31.3870   14.7940   64.6160 O.3   311  TYR311     -0.2866
@<TRIPOS>BOND
     1   118   119    1
     2   119   120    1
     3   119   122    1
     4   120   121    2
     5   101   100    2
     6    98    99    1
     7   122   123    1
     8   100    99    1
     9    99   102    1
    10   107   108    1
    11   124   125    1
    12   110   109    2
    13   102   103    1
    14   111   112    1
    15   111   108    1
    16   112   113    1
    17   108   109    1
    18   103   104    1
    19   127   126    2
    20   114   113    1
    21   114   115    2
    22   125   126    1
    23   125   128    1
    24   117   115    1
    25   115   116    1
    26    91    90    1
    27    91    92    2
    28   128   129    1
    29   104   105   ar
    30   104   106   ar
    31    97    95   ar
    32    90    93    1
    33    90    89    1
    34    93    94    1
    35    94    95    1
    36   156   155    1
    37    95    96   ar
    38   129   130    1
    39   131   130   ar
    40   130   132   ar
    41   154   155   ar
    42   154   152   ar
    43   155   153   ar
    44   142   140   ar
    45   142   143   ar
    46    41    40    2
    47   144   143    1
    48    42    40   am
    49   133   134    1
    50   140   138   ar
    51     1     2    1
    52   143   141   ar
    53    40    39    1
    54   152   150   ar
    55   153   151   ar
    56    62    63    1
    57     5     2    1
    58     5     6    1
    59    66    63    1
    60    66    67    1
    61    35    36    1
    62   136   135    2
    63   138   137    1
    64   138   139   ar
    65     2     3    1
    66   134   137    1
    67   134   135    1
    68   150   151   ar
    69   150   149    1
    70    63    64    1
    71   141   139   ar
    72    65    64    2
    73     6     7   ar
    74     6     8   ar
    75     7     9   ar
    76    39    36    1
    77    36    37    1
    78    64    68   am
    79     8    10   ar
    80   149   146    1
    81     9    11   ar
    82     3     4    2
    83    86    85    1
    84    86    87    2
    85    61    59    1
    86    10    11   ar
    87    85    88    1
    88    85    84    1
    89    37    43   am
    90    37    38    2
    91   148   147    2
    92    11    12    1
    93   147   146    1
    94    68    69    1
    95    73    75    1
    96    73    72    1
    97   146   145    1
    98    43    44    1
    99    69    72    1
   100    69    70    1
   101    59    60    1
   102    59    58    2
   103    72    74    1
   104    58    57    1
   105    44    47    1
   106    44    45    1
   107    70    76   am
   108    70    71    2
   109    50    48   ar
   110    76    77    1
   111    47    48    1
   112    45    46    2
   113    48    49   ar
   114    18    17    1
   115    17    14    1
   116    57    56    1
   117    23    20    1
   118    51    52    1
   119    56    55    1
   120    80    77    1
   121    80    81    1
   122    79    78    2
   123    77    78    1
   124    13    14    1
   125    19    20    1
   126    19    15   am
   127    14    15    1
   128    20    21    1
   129    15    16    2
   130    52    55    1
   131    52    53    1
   132    81    83   ar
   133    81    82   ar
   134    34    32    1
   135    31    32    2
   136    31    30    1
   137    21    22    2
   138    32    33    1
   139    53    54    2
   140    29    30    1
   141    29    28    1
   142    28    25    1
   143    25    24    1
   144    25    26    1
   145    26    27    2
