@<TRIPOS>MOLECULE
tmp/4xfjB00.pdb
 181 170 0 0 0
SMALL
GASTEIGER

@<TRIPOS>ATOM
      1  N         17.5870   16.7700   81.7610 N.3     7  ALA7       -0.1231
      2  CA        18.8200   17.4870   81.5030 C.3     7  ALA7        0.1694
      3  C         18.4360   18.8730   81.0500 C.2     7  ALA7        0.2592
      4  O         18.0410   19.0670   79.8950 O.2     7  ALA7       -0.2718
      5  CB        19.6400   16.7920   80.4360 C.3     7  ALA7        0.0304
      6  N         18.5350   19.8250   81.9670 N.am    8  TYR8       -0.1962
      7  CA        17.9850   21.1450   81.7670 C.3     8  TYR8        0.1771
      8  C         19.0660   22.1880   81.5570 C.2     8  TYR8        0.2620
      9  O         19.9270   22.3820   82.4070 O.2     8  TYR8       -0.2715
     10  CB        17.1140   21.5230   82.9680 C.3     8  TYR8        0.0574
     11  CG        16.4260   22.8530   82.8200 C.ar    8  TYR8       -0.0198
     12  CD1       15.6150   23.1090   81.7260 C.ar    8  TYR8       -0.0009
     13  CD2       16.5790   23.8540   83.7760 C.ar    8  TYR8       -0.0009
     14  CE1       14.9710   24.3210   81.5870 C.ar    8  TYR8        0.0417
     15  CE2       15.9430   25.0720   83.6400 C.ar    8  TYR8        0.0417
     16  CZ        15.1360   25.2960   82.5430 C.ar    8  TYR8        0.1957
     17  OH        14.4880   26.5010   82.3750 O.3     8  TYR8       -0.2866
     18  N         19.0140   22.8650   80.4160 N.am    9  SER9       -0.1950
     19  CA        20.0240   23.8580   80.0750 C.3     9  SER9        0.1924
     20  C         19.5630   25.2710   80.4110 C.2     9  SER9        0.2314
     21  O         20.3800   26.1720   80.5820 O.2     9  SER9       -0.2863
     22  CB        20.3770   23.7660   78.5890 C.3     9  SER9        0.2116
     23  OG        19.2310   24.0200   77.7930 O.3     9  SER9       -0.2180
     24  N         17.2290   26.8310   78.4300 N.3    11  GLY11      -0.1210
     25  CA        16.7050   27.4040   77.2000 C.3    11  GLY11       0.1956
     26  C         15.1900   27.3580   77.1190 C.2    11  GLY11       0.2612
     27  O         14.5340   26.6900   77.9170 O.2    11  GLY11      -0.2717
     28  N         14.6330   28.0730   76.1460 N.am   12  LEU12      -0.1965
     29  CA        13.1860   28.1390   75.9800 C.3    12  LEU12       0.1728
     30  C         12.5840   26.7640   75.7640 C.2    12  LEU12       0.2616
     31  O         11.6040   26.3940   76.4080 O.2    12  LEU12      -0.2715
     32  CB        12.8120   29.0350   74.7990 C.3    12  LEU12       0.0311
     33  CG        11.3150   29.0260   74.4700 C.3    12  LEU12       0.0022
     34  CD1       10.5220   29.8350   75.4970 C.3    12  LEU12       0.0001
     35  CD2       11.0450   29.5140   73.0440 C.3    12  LEU12       0.0001
     36  N         13.1830   26.0120   74.8510 N.am   13  ASP13      -0.1957
     37  CA        12.6320   24.7360   74.4270 C.3    13  ASP13       0.1840
     38  C         12.5120   23.7490   75.5840 C.2    13  ASP13       0.2622
     39  O         11.4380   23.2030   75.8120 O.2    13  ASP13      -0.2715
     40  CB        13.4830   24.1430   73.3030 C.3    13  ASP13       0.1450
     41  CG        13.3570   24.9240   72.0080 C.2    13  ASP13       0.3671
     42  OD1       12.9580   26.1100   72.0620 O.co2  13  ASP13      -0.2456
     43  OD2       13.6540   24.3570   70.9350 O.co2  13  ASP13      -0.2456
     44  N         13.5960   23.5300   76.3220 N.am   14  THR14      -0.1951
     45  CA        13.5390   22.5800   77.4310 C.3    14  THR14       0.1897
     46  C         12.7310   23.1430   78.6010 C.2    14  THR14       0.2313
     47  O         12.1350   22.3770   79.3560 O.2    14  THR14      -0.2863
     48  CB        14.9480   22.1530   77.9300 C.3    14  THR14       0.1794
     49  OG1       15.6750   23.2880   78.4130 O.3    14  THR14      -0.2208
     50  CG2       15.7320   21.4950   76.8130 C.3    14  THR14       0.0378
     51  N         17.6280   19.2320   86.1670 N.3    32  VAL32      -0.1245
     52  CA        18.9890   19.1790   86.6540 C.3    32  VAL32       0.1561
     53  C         19.8540   20.0120   85.7260 C.2    32  VAL32       0.2260
     54  O         19.9970   19.6810   84.5490 O.2    32  VAL32      -0.2867
     55  CB        19.5240   17.7320   86.7220 C.3    32  VAL32       0.0252
     56  CG1       20.9370   17.7240   87.2590 C.3    32  VAL32       0.0019
     57  CG2       18.6160   16.8620   87.5910 C.3    32  VAL32       0.0019
     58  N         23.5930   21.6300   84.9830 N.3    34  ILE34      -0.1245
     59  CA        24.9890   21.4140   85.3220 C.3    34  ILE34       0.1561
     60  C         25.8120   22.6390   84.9400 C.2    34  ILE34       0.2260
     61  O         25.7800   23.0760   83.7840 O.2    34  ILE34      -0.2867
     62  CB        25.5790   20.1790   84.6020 C.3    34  ILE34       0.0252
     63  CG1       24.6340   18.9680   84.7080 C.3    34  ILE34       0.0019
     64  CG2       26.9540   19.8480   85.1620 C.3    34  ILE34       0.0019
     65  CD1       24.5590   18.3750   86.0510 C.3    34  ILE34       0.0001
     66  N         29.0490   23.8910   83.8530 N.3    36  LEU36      -0.1245
     67  CA        30.2980   23.4710   83.2380 C.3    36  LEU36       0.1561
     68  C         31.0920   24.6790   82.7760 C.2    36  LEU36       0.2260
     69  O         32.0120   24.5510   81.9580 O.2    36  LEU36      -0.2867
     70  CB        30.0320   22.5520   82.0440 C.3    36  LEU36       0.0270
     71  CG        29.2610   21.2840   82.3900 C.3    36  LEU36       0.0019
     72  CD1       28.7080   20.6450   81.1350 C.3    36  LEU36       0.0001
     73  CD2       30.2380   20.3720   83.0910 C.3    36  LEU36       0.0001
     74  N         29.5950   27.3560   81.2440 N.3    38  GLN38      -0.1245
     75  CA        28.9350   27.8880   80.0540 C.3    38  GLN38       0.1566
     76  C         28.6390   29.3750   80.1600 C.2    38  GLN38       0.2260
     77  O         28.2780   30.0020   79.1670 O.2    38  GLN38      -0.2867
     78  CB        27.6240   27.1360   79.7810 C.3    38  GLN38       0.0367
     79  CG        26.5770   27.2350   80.9010 C.3    38  GLN38       0.0905
     80  CD        26.6160   26.0470   81.8260 C.2    38  GLN38       0.2608
     81  OE1       27.6800   25.5520   82.1650 O.2    38  GLN38      -0.2717
     82  NE2       25.4470   25.5740   82.2280 N.am   38  GLN38      -0.0878
     83  N         29.4510   15.4470   77.7280 N.3    94  ARG94      -0.1245
     84  CA        28.2420   14.6300   77.7200 C.3    94  ARG94       0.1563
     85  C         28.2680   13.4640   78.7210 C.2    94  ARG94       0.2260
     86  O         27.2850   13.2710   79.4320 O.2    94  ARG94      -0.2867
     87  CB        27.9570   14.1080   76.3100 C.3    94  ARG94       0.0307
     88  CG        27.8080   15.1840   75.2480 C.3    94  ARG94       0.0489
     89  CD        27.1430   16.4350   75.7640 C.3    94  ARG94       0.2205
     90  NE        26.8910   17.3920   74.6900 N.pl3  94  ARG94      -0.0865
     91  CZ        26.6510   18.6800   74.8910 C.cat  94  ARG94       0.5346
     92  NH1       26.6330   19.1640   76.1280 N.pl3  94  ARG94       0.1354
     93  NH2       26.4300   19.4830   73.8590 N.pl3  94  ARG94       0.1354
     94  N         27.5290   14.8770   82.1660 N.3    97  ILE97      -0.1245
     95  CA        26.1060   15.1800   82.3390 C.3    97  ILE97       0.1561
     96  C         25.2990   13.9040   82.5820 C.2    97  ILE97       0.2260
     97  O         24.4540   13.8500   83.4940 O.2    97  ILE97      -0.2867
     98  CB        25.5490   15.9440   81.1280 C.3    97  ILE97       0.0252
     99  CG1       26.2650   17.3000   81.0020 C.3    97  ILE97       0.0019
    100  CG2       24.0550   16.1830   81.2820 C.3    97  ILE97       0.0019
    101  CD1       26.0370   17.9910   79.6820 C.3    97  ILE97       0.0001
    102  N         22.9270   12.9960   85.7750 N.3   101  LEU101     -0.1245
    103  CA        21.5030   12.7690   85.5810 C.3   101  LEU101      0.1561
    104  C         21.1010   11.4330   86.1770 C.2   101  LEU101      0.2260
    105  O         20.0330   11.2980   86.7830 O.2   101  LEU101     -0.2867
    106  CB        21.1380   12.8380   84.1020 C.3   101  LEU101      0.0270
    107  CG        21.0890   14.2670   83.5590 C.3   101  LEU101      0.0019
    108  CD1       21.0510   14.1950   82.0590 C.3   101  LEU101      0.0001
    109  CD2       19.8790   15.0280   84.0960 C.3   101  LEU101      0.0001
    110  N         16.3110   14.3140   77.4310 N.3   115  HIS115     -0.1226
    111  CA        17.3070   15.2360   76.9040 C.3   115  HIS115      0.1752
    112  C         16.6860   15.9170   75.7060 C.2   115  HIS115      0.2597
    113  O         15.6850   15.4290   75.1700 O.2   115  HIS115     -0.2718
    114  CB        18.6080   14.5150   76.5150 C.3   115  HIS115      0.0759
    115  CG        18.4390   13.5310   75.3980 C.ar  115  HIS115      0.0818
    116  ND1       18.3540   13.9120   74.0740 N.ar  115  HIS115     -0.2268
    117  CD2       18.3150   12.1830   75.4100 C.ar  115  HIS115      0.1154
    118  CE1       18.1970   12.8390   73.3190 C.ar  115  HIS115      0.1986
    119  NE2       18.1660   11.7770   74.1060 N.ar  115  HIS115     -0.2212
    120  N         17.2720   17.0330   75.2850 N.am  116  GLY116     -0.1942
    121  CA        16.7270   17.8020   74.1820 C.3   116  GLY116      0.2014
    122  C         17.5460   17.7420   72.9100 C.2   116  GLY116      0.2639
    123  O         17.4800   18.6540   72.0980 O.2   116  GLY116     -0.2714
    124  N         18.3190   16.6770   72.7200 N.am  117  CYS117     -0.1967
    125  CA        19.1470   16.5770   71.5170 C.3   117  CYS117      0.1712
    126  C         18.2990   16.2950   70.2760 C.2   117  CYS117      0.2296
    127  O         17.1900   15.7560   70.3750 O.2   117  CYS117     -0.2864
    128  CB        20.2070   15.4810   71.6650 C.3   117  CYS117      0.0983
    129  SG        21.2570   15.6220   73.1110 S.3   117  CYS117     -0.0798
    130  N         25.2290   14.3220   69.7870 N.3   123  ASP123     -0.1239
    131  CA        24.9980   14.3830   71.2280 C.3   123  ASP123      0.1674
    132  C         23.9360   13.3770   71.6750 C.2   123  ASP123      0.2266
    133  O         24.0600   12.8060   72.7650 O.2   123  ASP123     -0.2867
    134  CB        24.6450   15.8080   71.6660 C.3   123  ASP123      0.1410
    135  CG        25.8870   16.7000   71.7610 C.2   123  ASP123      0.3668
    136  OD1       26.9980   16.1820   72.0530 O.co2 123  ASP123     -0.2456
    137  OD2       25.7590   17.9130   71.5350 O.co2 123  ASP123     -0.2456
    138  N         24.5910   10.8970   74.8860 N.3   127  PHE127     -0.1241
    139  CA        23.6430   10.7590   75.9860 C.3   127  PHE127      0.1605
    140  C         23.0740    9.3500   76.0590 C.2   127  PHE127      0.2264
    141  O         23.1160    8.7140   77.1080 O.2   127  PHE127     -0.2867
    142  CB        22.4820   11.7580   75.8640 C.3   127  PHE127      0.0534
    143  CG        22.8020   13.1210   76.3840 C.ar  127  PHE127     -0.0203
    144  CD1       22.7030   13.3990   77.7400 C.ar  127  PHE127     -0.0042
    145  CD2       23.1710   14.1380   75.5210 C.ar  127  PHE127     -0.0042
    146  CE1       22.9900   14.6640   78.2150 C.ar  127  PHE127     -0.0003
    147  CE2       23.4740   15.4010   76.0000 C.ar  127  PHE127     -0.0003
    148  CZ        23.3840   15.6670   77.3330 C.ar  127  PHE127     -0.0000
    149  N         10.7980   24.8310   68.6340 N.3   151  ARG151     -0.1245
    150  CA        10.6430   26.1490   69.2350 C.3   151  ARG151      0.1563
    151  C          9.1980   26.6190   69.0780 C.2   151  ARG151      0.2260
    152  O          8.5800   27.0850   70.0340 O.2   151  ARG151     -0.2867
    153  CB        11.6060   27.1540   68.6040 C.3   151  ARG151      0.0307
    154  CG        11.4530   28.5990   69.0230 C.3   151  ARG151      0.0489
    155  CD        12.4750   29.5190   68.3360 C.3   151  ARG151      0.2205
    156  NE        13.8370   29.3570   68.8330 N.pl3 151  ARG151     -0.0865
    157  CZ        14.3750   30.1060   69.8170 C.cat 151  ARG151      0.5346
    158  NH1       13.7130   31.0580   70.4940 N.pl3 151  ARG151      0.1354
    159  NH2       15.6480   29.8630   70.1180 N.pl3 151  ARG151      0.1354
    160  N         23.7740   28.5030   66.5370 N.3   174  SER174     -0.1202
    161  CA        23.6270   27.3910   67.4550 C.3   174  SER174      0.2020
    162  C         24.9550   27.2680   68.1890 C.2   174  SER174      0.2619
    163  O         25.9740   26.9390   67.5820 O.2   174  SER174     -0.2717
    164  CB        23.2760   26.0890   66.7320 C.3   174  SER174      0.2103
    165  OG        23.2340   25.0010   67.6440 O.3   174  SER174     -0.2182
    166  N         24.9380   27.5410   69.4880 N.am  175  ILE175     -0.1965
    167  CA        26.1710   27.6320   70.2590 C.3   175  ILE175      0.1727
    168  C         26.1660   26.6650   71.4220 C.2   175  ILE175      0.2616
    169  O         25.1700   26.5430   72.1400 O.2   175  ILE175     -0.2715
    170  CB        26.3890   29.0590   70.8040 C.3   175  ILE175      0.0290
    171  CG1       26.5430   30.0530   69.6650 C.3   175  ILE175      0.0022
    172  CG2       27.6200   29.1310   71.7040 C.3   175  ILE175      0.0023
    173  CD1       26.4580   31.4920   70.1210 C.3   175  ILE175      0.0001
    174  N         27.2720   25.9600   71.5980 N.am  176  ASP176     -0.1971
    175  CA        27.4860   25.2000   72.8120 C.3   176  ASP176      0.1709
    176  C         28.8160   25.6050   73.3900 C.2   176  ASP176      0.2293
    177  O         29.8160   25.5520   72.6960 O.2   176  ASP176     -0.2864
    178  CB        27.4900   23.6980   72.5630 C.3   176  ASP176      0.1436
    179  CG        27.5810   22.9240   73.8520 C.2   176  ASP176      0.3671
    180  OD1       26.8660   23.3250   74.7980 O.co2 176  ASP176     -0.2456
    181  OD2       28.3900   21.9750   73.9450 O.co2 176  ASP176     -0.2456
@<TRIPOS>BOND
     1   160   161    1
     2   164   161    1
     3   164   165    1
     4   161   162    1
     5   163   162    2
     6   162   166   am
     7   155   156    1
     8   155   154    1
     9   153   154    1
    10   153   150    1
    11   149   150    1
    12   156   157    2
    13   151   150    1
    14   151   152    2
    15   166   167    1
    16   171   173    1
    17   171   170    1
    18   130   131    1
    19   157   159    1
    20   157   158    1
    21   167   170    1
    22   167   168    1
    23   126   127    2
    24   126   125    1
    25   170   172    1
    26    43    41   ar
    27   131   134    1
    28   131   132    1
    29   168   174   am
    30   168   169    2
    31   125   128    1
    32   125   124    1
    33   137   135   ar
    34   174   175    1
    35   128   129    1
    36   134   135    1
    37   132   133    2
    38   135   136   ar
    39    41    42   ar
    40    41    40    1
    41   123   122    2
    42   178   175    1
    43   178   179    1
    44   177   176    2
    45   124   122   am
    46   175   176    1
    47   122   121    1
    48    35    33    1
    49    40    37    1
    50   118   116   ar
    51   118   119   ar
    52   179   181   ar
    53   179   180   ar
    54    93    91    1
    55   116   115   ar
    56   119   117   ar
    57   121   120    1
    58    37    36    1
    59    37    38    1
    60    33    32    1
    61    33    34    1
    62    90    91    2
    63    90    89    1
    64    32    29    1
    65    36    30   am
    66   138   139    1
    67    91    92    1
    68   113   112    2
    69    88    89    1
    70    88    87    1
    71   120   112   am
    72   115   117   ar
    73   115   114    1
    74   145   147   ar
    75   145   143   ar
    76    38    39    2
    77    38    44   am
    78   112   111    1
    79    30    29    1
    80    30    31    2
    81   142   139    1
    82   142   143    1
    83    29    28    1
    84   139   140    1
    85   147   148   ar
    86   140   141    2
    87    28    26   am
    88    87    84    1
    89    44    45    1
    90   143   144   ar
    91   114   111    1
    92    50    48    1
    93   111   110    1
    94    26    25    1
    95    26    27    2
    96    25    24    1
    97   148   146   ar
    98    45    48    1
    99    45    46    1
   100    84    83    1
   101    84    85    1
   102   144   146   ar
   103    23    22    1
   104    48    49    1
   105    22    19    1
   106    46    47    2
   107    85    86    2
   108    77    76    2
   109   101    99    1
   110    78    75    1
   111    78    79    1
   112     4     3    2
   113    75    76    1
   114    75    74    1
   115    19    20    1
   116    19    18    1
   117    20    21    2
   118    18     8   am
   119     5     2    1
   120    79    80    1
   121    99    98    1
   122     3     2    1
   123     3     6   am
   124    98   100    1
   125    98    95    1
   126    72    71    1
   127     2     1    1
   128     8     7    1
   129     8     9    2
   130    14    12   ar
   131    14    16   ar
   132    12    11   ar
   133     7     6    1
   134     7    10    1
   135    80    81    2
   136    80    82   am
   137    69    68    2
   138    70    71    1
   139    70    67    1
   140   108   107    1
   141    94    95    1
   142    95    96    1
   143    17    16    1
   144    71    73    1
   145    16    15   ar
   146    96    97    2
   147    68    67    1
   148    11    10    1
   149    11    13   ar
   150    67    66    1
   151   107   109    1
   152   107   106    1
   153    15    13   ar
   154    61    60    2
   155   106   103    1
   156    54    53    2
   157    62    63    1
   158    62    64    1
   159    62    59    1
   160    63    65    1
   161    60    59    1
   162    58    59    1
   163   103   102    1
   164   103   104    1
   165    53    52    1
   166    51    52    1
   167   104   105    2
   168    52    55    1
   169    55    56    1
   170    55    57    1
