@<TRIPOS>MOLECULE
tmp/4xfmA00.pdb
 117 108 0 0 0
SMALL
GASTEIGER

@<TRIPOS>ATOM
      1  N         47.2140   12.9290   10.8880 N.3     9  ASP9       -0.1239
      2  CA        46.7990   13.0680   12.2670 C.3     9  ASP9        0.1674
      3  C         47.8780   13.6820   13.1630 C.2     9  ASP9        0.2266
      4  O         49.0010   13.9350   12.7400 O.2     9  ASP9       -0.2867
      5  CB        46.2570   11.7400   12.8350 C.3     9  ASP9        0.1410
      6  CG        47.3360   10.7650   13.2520 C.2     9  ASP9        0.3668
      7  OD1       48.5070   10.8730   12.8200 O.co2   9  ASP9       -0.2456
      8  OD2       46.9510    9.8800   14.0640 O.co2   9  ASP9       -0.2456
      9  N         49.3960   12.6080   16.0750 N.3    11  THR11      -0.1203
     10  CA        50.5600   11.8110   16.4630 C.3    11  THR11       0.1994
     11  C         51.5340   11.5960   15.3060 C.2    11  THR11       0.2618
     12  O         52.7400   11.6770   15.4940 O.2    11  THR11      -0.2717
     13  CB        50.1220   10.4620   17.0720 C.3    11  THR11       0.1784
     14  OG1       49.4430   10.7320   18.3030 O.3    11  THR11      -0.2211
     15  CG2       51.3120    9.5700   17.3280 C.3    11  THR11       0.0376
     16  N         51.0230   11.3440   14.1000 N.am   12  GLY12      -0.1956
     17  CA        51.8590   11.2030   12.9360 C.3    12  GLY12       0.1869
     18  C         52.6690   12.4450   12.6390 C.2    12  GLY12       0.2309
     19  O         53.8610   12.3850   12.3220 O.2    12  GLY12      -0.2863
     20  N         55.3590   12.6990   15.3900 N.3    15  ASP15      -0.1239
     21  CA        56.3670   11.6480   15.2420 C.3    15  ASP15       0.1674
     22  C         57.3270   12.0340   14.0960 C.2    15  ASP15       0.2266
     23  O         58.5310   11.9030   14.2270 O.2    15  ASP15      -0.2867
     24  CB        55.7170   10.2860   14.9870 C.3    15  ASP15       0.1410
     25  CG        55.1500    9.5950   16.2950 C.2    15  ASP15       0.3668
     26  OD1       55.4660   10.0490   17.4190 O.co2  15  ASP15      -0.2456
     27  OD2       54.4140    8.6150   16.1250 O.co2  15  ASP15      -0.2456
     28  N         42.0160   11.6620    8.8980 N.3    52  ARG52      -0.1245
     29  CA        41.8880   10.2030    8.9120 C.3    52  ARG52       0.1563
     30  C         40.4690    9.6800    8.8750 C.2    52  ARG52       0.2260
     31  O         40.2220    8.6120    8.2850 O.2    52  ARG52      -0.2867
     32  CB        42.6230    9.6180   10.1080 C.3    52  ARG52       0.0307
     33  CG        42.8250    8.0820    9.9920 C.3    52  ARG52       0.0489
     34  CD        43.8410    7.5650   11.0070 C.3    52  ARG52       0.2205
     35  NE        45.1900    7.9820   10.6810 N.pl3  52  ARG52      -0.0865
     36  CZ        46.2750    7.6820   11.3730 C.cat  52  ARG52       0.5346
     37  NH1       46.1900    6.9400   12.4520 N.pl3  52  ARG52       0.1354
     38  NH2       47.4410    8.1290   10.9860 N.pl3  52  ARG52       0.1354
     39  N         52.9230   11.5090    5.0130 N.3    82  LYS82      -0.1231
     40  CA        52.9560   10.6270    6.1610 C.3    82  LYS82       0.1693
     41  C         51.6130    9.9510    6.2950 C.2    82  LYS82       0.2592
     42  O         50.5890   10.5870    6.5290 O.2    82  LYS82      -0.2718
     43  CB        53.3270   11.4570    7.4150 C.3    82  LYS82       0.0285
     44  CG        52.9740   10.8310    8.7780 C.3    82  LYS82       0.0035
     45  CD        53.7110    9.5480    8.9900 C.3    82  LYS82       0.0206
     46  CE        53.4310    8.9180   10.3630 C.3    82  LYS82       0.1093
     47  NZ        52.0140    8.3890   10.5030 N.3    82  LYS82      -0.1314
     48  N         51.6250    8.6230    6.1690 N.am   83  ILE83      -0.1966
     49  CA        50.4490    7.8010    6.3150 C.3    83  ILE83       0.1727
     50  C         50.5970    6.9430    7.5670 C.2    83  ILE83       0.2616
     51  O         51.6970    6.7740    8.0910 O.2    83  ILE83      -0.2715
     52  CB        50.2510    6.8510    5.1000 C.3    83  ILE83       0.0290
     53  CG1       51.4610    5.9570    4.8970 C.3    83  ILE83       0.0022
     54  CG2       50.0160    7.6700    3.8370 C.3    83  ILE83       0.0023
     55  CD1       51.1630    4.7430    3.9980 C.3    83  ILE83       0.0001
     56  N         49.4900    6.4170    8.0390 N.am   84  ASP84      -0.1957
     57  CA        49.4880    5.4210    9.1160 C.3    84  ASP84       0.1840
     58  C         50.2660    4.1910    8.6780 C.2    84  ASP84       0.2623
     59  O         49.9970    3.6220    7.6220 O.2    84  ASP84      -0.2715
     60  CB        48.0450    5.0470    9.4070 C.3    84  ASP84       0.1450
     61  CG        47.8800    4.0940   10.5740 C.2    84  ASP84       0.3671
     62  OD1       48.5500    4.2740   11.6060 O.co2  84  ASP84      -0.2456
     63  OD2       47.0290    3.1770   10.4730 O.co2  84  ASP84      -0.2456
     64  N         51.2230    3.7530    9.4930 N.am   85  SER85      -0.1936
     65  CA        51.9220    2.4930    9.2250 C.3    85  SER85       0.2055
     66  C         50.9710    1.3200    9.1080 C.2    85  SER85       0.2643
     67  O         51.2850    0.3360    8.4290 O.2    85  SER85      -0.2714
     68  CB        52.9430    2.2120   10.3370 C.3    85  SER85       0.2130
     69  OG        52.3060    2.0100   11.5790 O.3    85  SER85      -0.2179
     70  N         49.8510    1.3620    9.8230 N.am   86  THR86      -0.1950
     71  CA        48.8510    0.3100    9.8260 C.3    86  THR86       0.1897
     72  C         47.6570    0.6030    8.8890 C.2    86  THR86       0.2313
     73  O         46.5880    0.0300    9.0260 O.2    86  THR86      -0.2863
     74  CB        48.4260   -0.0170   11.2750 C.3    86  THR86       0.1794
     75  OG1       48.1790    1.1980   12.0250 O.3    86  THR86      -0.2208
     76  CG2       49.5570   -0.7390   11.9630 C.3    86  THR86       0.0378
     77  N         45.3620    2.7890    8.1380 N.3    88  ARG88      -0.1245
     78  CA        44.0650    3.4070    8.3920 C.3    88  ARG88       0.1563
     79  C         43.9760    4.7200    7.6400 C.2    88  ARG88       0.2260
     80  O         44.9810    5.4020    7.5050 O.2    88  ARG88      -0.2867
     81  CB        43.8470    3.6530    9.8910 C.3    88  ARG88       0.0307
     82  CG        43.7830    2.4150   10.7180 C.3    88  ARG88       0.0489
     83  CD        43.7910    2.6710   12.2050 C.3    88  ARG88       0.2205
     84  NE        45.1120    3.1360   12.5810 N.pl3  88  ARG88      -0.0865
     85  CZ        45.5300    3.3240   13.8230 C.cat  88  ARG88       0.5346
     86  NH1       44.7540    3.0320   14.8460 N.pl3  88  ARG88       0.1354
     87  NH2       46.7790    3.7550   14.0050 N.pl3  88  ARG88       0.1354
     88  N         59.5570   -0.5430   14.5640 N.3   116  LEU116     -0.1245
     89  CA        58.2700   -0.5920   15.2660 C.3   116  LEU116      0.1561
     90  C         57.4550   -1.8410   14.9150 C.2   116  LEU116      0.2260
     91  O         56.2700   -1.9550   15.2610 O.2   116  LEU116     -0.2867
     92  CB        57.4420    0.6400   14.8910 C.3   116  LEU116      0.0270
     93  CG        58.0770    2.0260   15.0280 C.3   116  LEU116      0.0019
     94  CD1       57.1240    3.1230   14.5690 C.3   116  LEU116      0.0001
     95  CD2       58.5140    2.2450   16.4650 C.3   116  LEU116      0.0001
     96  N         56.5740   -3.0320   11.9100 N.3   118  ARG118     -0.1245
     97  CA        55.8230   -3.0090   10.6520 C.3   118  ARG118      0.1563
     98  C         56.7410   -3.2250    9.4560 C.2   118  ARG118      0.2260
     99  O         57.6400   -2.4300    9.1950 O.2   118  ARG118     -0.2867
    100  CB        55.0770   -1.6840   10.4550 C.3   118  ARG118      0.0307
    101  CG        53.9610   -1.4040   11.4220 C.3   118  ARG118      0.0489
    102  CD        54.4290   -0.6180   12.6490 C.3   118  ARG118      0.2205
    103  NE        53.2580   -0.1240   13.3550 N.pl3 118  ARG118     -0.0865
    104  CZ        52.8060   -0.5830   14.5120 C.cat 118  ARG118      0.5346
    105  NH1       51.6900   -0.0850   15.0150 N.pl3 118  ARG118      0.1354
    106  NH2       53.4360   -1.5530   15.1810 N.pl3 118  ARG118      0.1354
    107  N         55.6540    5.9660    6.5900 N.3   219  SER219     -0.1202
    108  CA        55.4560    6.2030    8.0140 C.3   219  SER219      0.2020
    109  C         56.7730    6.6040    8.6250 C.2   219  SER219      0.2618
    110  O         57.6250    7.2030    7.9530 O.2   219  SER219     -0.2717
    111  CB        54.7620    5.0030    8.6870 C.3   219  SER219      0.2103
    112  OG        55.5140    3.7870    8.6500 O.3   219  SER219     -0.2182
    113  N         56.9510    6.3390    9.9180 N.am  220  ALA220     -0.1979
    114  CA        58.1570    6.8130   10.5960 C.3   220  ALA220      0.1597
    115  C         59.4460    6.3420    9.9610 C.2   220  ALA220      0.2287
    116  O         60.4160    7.0860    9.8950 O.2   220  ALA220     -0.2864
    117  CB        58.0980    6.4260   12.0810 C.3   220  ALA220      0.0319
@<TRIPOS>BOND
     1    54    52    1
     2    55    53    1
     3    53    52    1
     4    39    40    1
     5    52    49    1
     6    40    41    1
     7    40    43    1
     8    48    41   am
     9    48    49    1
    10    41    42    2
    11    49    50    1
    12   107   108    1
    13    43    44    1
    14    80    79    2
    15    50    56   am
    16    50    51    2
    17    59    58    2
    18    79    78    1
    19   110   109    2
    20   108   109    1
    21   108   111    1
    22    56    57    1
    23    77    78    1
    24    31    30    2
    25    78    81    1
    26    67    66    2
    27   109   113   am
    28   112   111    1
    29    58    57    1
    30    58    64   am
    31    44    45    1
    32    30    29    1
    33    72    73    2
    34    72    71    1
    35    28    29    1
    36    29    32    1
    37    45    46    1
    38    66    65    1
    39    66    70   am
    40    57    60    1
    41    99    98    2
    42    65    64    1
    43    65    68    1
    44    60    61    1
    45    98    97    1
    46    70    71    1
    47    71    74    1
    48    81    82    1
    49   116   115    2
    50   113   114    1
    51   115   114    1
    52    33    32    1
    53    33    34    1
    54    68    69    1
    55    46    47    1
    56   100    97    1
    57   100   101    1
    58    63    61   ar
    59    61    62   ar
    60   114   117    1
    61    97    96    1
    62    35    34    1
    63    35    36    2
    64    82    83    1
    65     1     2    1
    66    38    36    1
    67    74    76    1
    68    74    75    1
    69    36    37    1
    70   101   102    1
    71    83    84    1
    72     2     5    1
    73     2     3    1
    74    19    18    2
    75    84    85    2
    76    18    17    1
    77   102   103    1
    78     4     3    2
    79     7     6   ar
    80     5     6    1
    81    17    16    1
    82     6     8   ar
    83   103   104    2
    84    85    87    1
    85    85    86    1
    86    22    23    2
    87    22    21    1
    88    16    11   am
    89   104   105    1
    90   104   106    1
    91    88    89    1
    92    94    93    1
    93    92    93    1
    94    92    89    1
    95    90    91    2
    96    90    89    1
    97    24    21    1
    98    24    25    1
    99    93    95    1
   100    21    20    1
   101    11    12    2
   102    11    10    1
   103     9    10    1
   104    27    25   ar
   105    25    26   ar
   106    10    13    1
   107    13    15    1
   108    13    14    1
