@<TRIPOS>MOLECULE
tmp/4xfrB00.pdb
 118 108 0 0 0
SMALL
GASTEIGER

@<TRIPOS>ATOM
      1  N         76.2680   14.3910   22.2850 N.3     9  ASP9       -0.1239
      2  CA        75.0230   13.6450   22.2240 C.3     9  ASP9        0.1674
      3  C         74.0060   14.5190   21.5510 C.2     9  ASP9        0.2266
      4  O         74.2560   15.7030   21.3700 O.2     9  ASP9       -0.2867
      5  CB        74.5620   13.1890   23.6280 C.3     9  ASP9        0.1410
      6  CG        74.0100   14.3410   24.4970 C.2     9  ASP9        0.3668
      7  OD1       74.1520   15.5690   24.1490 O.co2   9  ASP9       -0.2456
      8  OD2       73.4350   13.9970   25.5690 O.co2   9  ASP9       -0.2456
      9  N         70.7610   15.4200   22.4840 N.3    11  THR11      -0.1203
     10  CA        70.1110   16.4240   23.3080 C.3    11  THR11       0.1994
     11  C         70.9000   17.7100   23.3160 C.2    11  THR11       0.2618
     12  O         70.3650   18.7610   23.0570 O.2    11  THR11      -0.2717
     13  CB        69.8710   15.9080   24.7240 C.3    11  THR11       0.1784
     14  OG1       68.8620   14.8720   24.6800 O.3    11  THR11      -0.2211
     15  CG2       69.4140   17.0350   25.6250 C.3    11  THR11       0.0376
     16  N         72.2040   17.6150   23.5580 N.am   12  GLY12      -0.1956
     17  CA        73.0120   18.8060   23.7400 C.3    12  GLY12       0.1869
     18  C         73.1910   19.5860   22.4570 C.2    12  GLY12       0.2309
     19  O         73.1900   20.8230   22.4540 O.2    12  GLY12      -0.2863
     20  N         69.9150   21.4470   21.8730 N.3    15  ASP15      -0.1239
     21  CA        69.7410   22.5300   22.8110 C.3    15  ASP15       0.1674
     22  C         70.6310   23.7160   22.4690 C.2    15  ASP15       0.2266
     23  O         70.1580   24.8290   22.3070 O.2    15  ASP15      -0.2867
     24  CB        70.0060   22.0540   24.2270 C.3    15  ASP15       0.1410
     25  CG        69.5730   23.0750   25.2460 C.2    15  ASP15       0.3668
     26  OD1       70.1750   24.1640   25.2550 O.co2  15  ASP15      -0.2456
     27  OD2       68.6260   22.7880   26.0090 O.co2  15  ASP15      -0.2456
     28  N         79.2900    9.9900   23.7820 N.3    56  ARG56      -0.1245
     29  CA        79.3640   10.1160   25.2370 C.3    56  ARG56       0.1563
     30  C         79.6360    8.7930   25.9470 C.2    56  ARG56       0.2260
     31  O         80.3700    8.7680   26.9170 O.2    56  ARG56      -0.2867
     32  CB        78.1020   10.7450   25.8240 C.3    56  ARG56       0.0307
     33  CG        78.2250   10.8790   27.3520 C.3    56  ARG56       0.0489
     34  CD        77.2390   11.8860   27.9520 C.3    56  ARG56       0.2205
     35  NE        77.3550   13.2210   27.3510 N.pl3  56  ARG56      -0.0865
     36  CZ        76.5530   14.2470   27.6320 C.cat  56  ARG56       0.5346
     37  NH1       75.5490   14.1040   28.4850 N.pl3  56  ARG56       0.1354
     38  NH2       76.7410   15.4260   27.0410 N.pl3  56  ARG56       0.1354
     39  N         80.4630   21.1100   22.5500 N.3    85  LYS85      -0.1245
     40  CA        79.3870   21.0780   23.5280 C.3    85  LYS85       0.1561
     41  C         79.4560   19.7760   24.3000 C.2    85  LYS85       0.2260
     42  O         79.3110   18.6940   23.7010 O.2    85  LYS85      -0.2867
     43  CB        78.0250   21.2020   22.8140 C.3    85  LYS85       0.0271
     44  CG        76.8610   20.7420   23.6340 C.3    85  LYS85       0.0035
     45  CD        76.8100   21.5070   24.9150 C.3    85  LYS85       0.0206
     46  CE        75.5780   21.1390   25.7040 C.3    85  LYS85       0.1093
     47  NZ        75.6680   19.7770   26.2610 N.3    85  LYS85      -0.1314
     48  N         78.7810   17.7600   28.4630 N.3    87  ASP87      -0.1225
     49  CA        77.9170   17.6430   29.6570 C.3    87  ASP87       0.1805
     50  C         78.4000   18.6640   30.6750 C.2    87  ASP87       0.2598
     51  O         79.5850   18.8370   30.8280 O.2    87  ASP87      -0.2718
     52  CB        78.0460   16.2430   30.2520 C.3    87  ASP87       0.1424
     53  CG        77.1730   16.0210   31.4980 C.2    87  ASP87       0.3668
     54  OD1       76.0000   16.3820   31.4710 O.co2  87  ASP87      -0.2456
     55  OD2       77.6620   15.4450   32.5060 O.co2  87  ASP87      -0.2456
     56  N         77.4940   19.3460   31.3580 N.am   88  SER88      -0.1938
     57  CA        77.8980   20.3040   32.3770 C.3    88  SER88       0.2055
     58  C         78.5330   19.6010   33.5700 C.2    88  SER88       0.2643
     59  O         79.3350   20.2230   34.3080 O.2    88  SER88      -0.2714
     60  CB        76.6990   21.1230   32.8630 C.3    88  SER88       0.2130
     61  OG        75.6830   20.2900   33.3880 O.3    88  SER88      -0.2179
     62  N         78.2020   18.3160   33.7290 N.am   89  THR89      -0.1950
     63  CA        78.6670   17.5100   34.8500 C.3    89  THR89       0.1897
     64  C         79.7930   16.5530   34.4180 C.2    89  THR89       0.2313
     65  O         80.0720   15.5600   35.0850 O.2    89  THR89      -0.2863
     66  CB        77.4800   16.7790   35.5550 C.3    89  THR89       0.1794
     67  OG1       76.5980   16.2250   34.5840 O.3    89  THR89      -0.2208
     68  CG2       76.6510   17.7460   36.3960 C.3    89  THR89       0.0378
     69  N         80.3410   14.2100   32.2190 N.3    91  ARG91      -0.1245
     70  CA        80.2080   12.7880   31.8440 C.3    91  ARG91       0.1563
     71  C         80.6600   12.5700   30.4040 C.2    91  ARG91       0.2260
     72  O         80.2910   13.3460   29.5110 O.2    91  ARG91      -0.2867
     73  CB        78.7620   12.3200   31.9910 C.3    91  ARG91       0.0307
     74  CG        78.2510   12.2940   33.4440 C.3    91  ARG91       0.0489
     75  CD        76.7370   12.0440   33.4460 C.3    91  ARG91       0.2205
     76  NE        75.9810   13.2150   33.0050 N.pl3  91  ARG91      -0.0865
     77  CZ        74.6640   13.2050   32.8120 C.cat  91  ARG91       0.5346
     78  NH1       73.9730   12.0690   32.9830 N.pl3  91  ARG91       0.1354
     79  NH2       74.0370   14.3080   32.4320 N.pl3  91  ARG91       0.1354
     80  N         77.0990   26.1050   33.9860 N.3   117  PHE117     -0.1241
     81  CA        75.7360   26.3770   33.5460 C.3   117  PHE117      0.1605
     82  C         75.0350   26.9150   34.7900 C.2   117  PHE117      0.2264
     83  O         74.2450   26.2100   35.4350 O.2   117  PHE117     -0.2867
     84  CB        75.0690   25.1050   33.0510 C.3   117  PHE117      0.0534
     85  CG        73.9200   25.3310   32.0790 C.ar  117  PHE117     -0.0203
     86  CD1       73.3530   26.5880   31.8950 C.ar  117  PHE117     -0.0042
     87  CD2       73.4260   24.2730   31.3390 C.ar  117  PHE117     -0.0042
     88  CE1       72.3180   26.7700   31.0130 C.ar  117  PHE117     -0.0003
     89  CE2       72.3860   24.4510   30.4350 C.ar  117  PHE117     -0.0003
     90  CZ        71.8320   25.6960   30.2710 C.ar  117  PHE117     -0.0000
     91  N         71.3310   26.2300   35.7610 N.3   120  THR120     -0.1218
     92  CA        70.9380   24.9110   36.2630 C.3   120  THR120      0.1862
     93  C         71.8420   24.4720   37.4030 C.2   120  THR120      0.2287
     94  O         71.9440   23.2800   37.7230 O.2   120  THR120     -0.2866
     95  CB        70.9650   23.8460   35.1550 C.3   120  THR120      0.1770
     96  OG1       72.2970   23.7050   34.6350 O.3   120  THR120     -0.2211
     97  CG2       70.0050   24.2420   34.0400 C.3   120  THR120      0.0375
     98  N         75.1510   24.6420   37.8560 N.3   122  ARG122     -0.1245
     99  CA        76.5230   24.1320   37.6660 C.3   122  ARG122      0.1563
    100  C         77.5420   25.2740   37.6560 C.2   122  ARG122      0.2260
    101  O         77.4320   26.1810   36.8430 O.2   122  ARG122     -0.2867
    102  CB        76.6560   23.3850   36.3420 C.3   122  ARG122      0.0307
    103  CG        75.3510   22.6760   35.8420 C.3   122  ARG122      0.0489
    104  CD        75.0920   21.4990   36.6760 C.3   122  ARG122      0.2205
    105  NE        74.2560   20.4210   36.1250 N.pl3 122  ARG122     -0.0865
    106  CZ        73.1810   19.9270   36.7310 C.cat 122  ARG122      0.5346
    107  NH1       72.6890   20.4860   37.8240 N.pl3 122  ARG122      0.1354
    108  NH2       72.5360   18.8980   36.2070 N.pl3 122  ARG122      0.1354
    109  N         79.0900   23.6710   28.3090 N.3   214  SER214     -0.1202
    110  CA        77.7700   23.0530   28.3000 C.3   214  SER214      0.2020
    111  C         76.8300   24.0490   27.6700 C.2   214  SER214      0.2619
    112  O         77.2950   24.9230   26.9980 O.2   214  SER214     -0.2717
    113  CB        77.3220   22.7420   29.7340 C.3   214  SER214      0.2103
    114  OG        77.2500   23.9060   30.5560 O.3   214  SER214     -0.2182
    115  N         75.5240   23.9640   27.9370 N.am  215  GLY215     -0.1956
    116  CA        74.6070   24.9950   27.4910 C.3   215  GLY215      0.1869
    117  C         74.8980   26.3880   28.1010 C.2   215  GLY215      0.2309
    118  O         74.4590   27.4080   27.6080 O.2   215  GLY215     -0.2863
@<TRIPOS>BOND
     1     4     3    2
     2     3     2    1
     3    20    21    1
     4     2     1    1
     5     2     5    1
     6    23    22    2
     7    19    18    2
     8    18    17    1
     9    22    21    1
    10     9    10    1
    11    39    40    1
    12    21    24    1
    13    43    40    1
    14    43    44    1
    15    12    11    2
    16    10    11    1
    17    10    13    1
    18    11    16   am
    19    40    41    1
    20    16    17    1
    21     5     6    1
    22    44    45    1
    23    42    41    2
    24    28    29    1
    25     7     6   ar
    26    24    25    1
    27     6     8   ar
    28    14    13    1
    29    13    15    1
    30    45    46    1
    31    29    32    1
    32    29    30    1
    33    25    26   ar
    34    25    27   ar
    35    46    47    1
    36    32    33    1
    37    30    31    2
    38   112   111    2
    39    38    36    1
    40    35    36    2
    41    35    34    1
    42    33    34    1
    43   116   115    1
    44   116   117    1
    45   118   117    2
    46    36    37    1
    47   111   115   am
    48   111   110    1
    49   110   109    1
    50   110   113    1
    51    48    49    1
    52    72    71    2
    53    49    52    1
    54    49    50    1
    55   113   114    1
    56    52    53    1
    57    90    89   ar
    58    90    88   ar
    59    71    70    1
    60    89    87   ar
    61    50    51    2
    62    50    56   am
    63    88    86   ar
    64    87    85   ar
    65    56    57    1
    66    54    53   ar
    67    53    55   ar
    68    70    73    1
    69    70    69    1
    70    86    85   ar
    71    73    74    1
    72    85    84    1
    73    57    60    1
    74    57    58    1
    75    79    77    1
    76    77    78    1
    77    77    76    2
    78    60    61    1
    79    76    75    1
    80    84    81    1
    81    74    75    1
    82    81    80    1
    83    81    82    1
    84    58    62   am
    85    58    59    2
    86    62    63    1
    87    97    95    1
    88    64    63    1
    89    64    65    2
    90    67    66    1
    91    96    95    1
    92    82    83    2
    93    63    66    1
    94    95    92    1
    95    66    68    1
    96    91    92    1
    97   103   102    1
    98   103   104    1
    99   105   104    1
   100   105   106    2
   101   108   106    1
   102    92    93    1
   103   102    99    1
   104   106   107    1
   105   101   100    2
   106    93    94    2
   107   100    99    1
   108    99    98    1
