@<TRIPOS>MOLECULE
tmp/4xfrB01.pdb
 66 63 0 0 0
SMALL
GASTEIGER

@<TRIPOS>ATOM
      1  N         64.1110   61.2800   23.6220 N.3   239  THR239     -0.1203
      2  CA        63.3650   62.5250   23.5210 C.3   239  THR239      0.1994
      3  C         62.3900   62.7080   24.6830 C.2   239  THR239      0.2619
      4  O         61.8940   63.8110   24.9200 O.2   239  THR239     -0.2717
      5  CB        62.5380   62.5220   22.2500 C.3   239  THR239      0.1784
      6  OG1       61.7820   61.3020   22.1940 O.3   239  THR239     -0.2211
      7  CG2       63.4140   62.6180   21.0360 C.3   239  THR239      0.0376
      8  N         62.1140   61.6300   25.4130 N.am  240  SER240     -0.1937
      9  CA        61.1340   61.6860   26.5000 C.3   240  SER240      0.2055
     10  C         61.6180   62.3600   27.7940 C.2   240  SER240      0.2643
     11  O         62.8010   62.3540   28.1120 O.2   240  SER240     -0.2714
     12  CB        60.6310   60.2740   26.8080 C.3   240  SER240      0.2130
     13  OG        59.9630   60.2620   28.0490 O.3   240  SER240     -0.2179
     14  N         60.6640   62.9100   28.5380 N.am  241  GLN241     -0.1963
     15  CA        60.9130   63.6480   29.7640 C.3   241  GLN241      0.1733
     16  C         60.5600   62.7940   30.9750 C.2   241  GLN241      0.2616
     17  O         60.9290   63.1220   32.1080 O.2   241  GLN241     -0.2715
     18  CB        60.0260   64.8910   29.8060 C.3   241  GLN241      0.0408
     19  CG        60.2140   65.8370   28.6480 C.3   241  GLN241      0.0908
     20  CD        61.1540   66.9640   28.9820 C.2   241  GLN241      0.2608
     21  OE1       61.1740   67.4500   30.1100 O.2   241  GLN241     -0.2717
     22  NE2       61.9510   67.3820   28.0070 N.am  241  GLN241     -0.0878
     23  N         59.8040   61.7240   30.7450 N.am  242  HIS242     -0.1973
     24  CA        59.4470   60.8340   31.8280 C.3   242  HIS242      0.1656
     25  C         60.6500   60.4250   32.6680 C.2   242  HIS242      0.2291
     26  O         61.7360   60.1360   32.1460 O.2   242  HIS242     -0.2864
     27  CB        58.7630   59.6020   31.2840 C.3   242  HIS242      0.0771
     28  CG        57.3830   59.8620   30.7650 C.ar  242  HIS242      0.0820
     29  ND1       57.0400   59.6940   29.4400 N.ar  242  HIS242     -0.2267
     30  CD2       56.2620   60.2770   31.3960 C.ar  242  HIS242      0.1154
     31  CE1       55.7610   59.9820   29.2750 C.ar  242  HIS242      0.1986
     32  NE2       55.2650   60.3350   30.4470 N.ar  242  HIS242     -0.2212
     33  N         62.0050   66.6710   18.7660 N.3   309  ALA309     -0.1245
     34  CA        62.1500   65.3000   18.2930 C.3   309  ALA309      0.1562
     35  C         62.6150   65.2870   16.8320 C.2   309  ALA309      0.2260
     36  O         63.4530   64.4930   16.4740 O.2   309  ALA309     -0.2867
     37  CB        60.8690   64.5300   18.4800 C.3   309  ALA309      0.0290
     38  N         60.4020   57.4210   23.6590 N.3   332  GLY332     -0.1210
     39  CA        59.3270   58.2540   23.2450 C.3   332  GLY332      0.1956
     40  C         58.8880   57.7130   21.8980 C.2   332  GLY332      0.2612
     41  O         59.7300   57.5440   21.0260 O.2   332  GLY332     -0.2717
     42  N         57.5940   57.4670   21.6980 N.am  333  GLY333     -0.1942
     43  CA        57.1120   57.1400   20.3690 C.3   333  GLY333      0.2014
     44  C         57.2950   58.3220   19.4230 C.2   333  GLY333      0.2639
     45  O         57.4410   58.1760   18.2140 O.2   333  GLY333     -0.2714
     46  N         57.2860   59.5230   19.9670 N.am  334  ASP334     -0.1957
     47  CA        57.4860   60.6920   19.1350 C.3   334  ASP334      0.1840
     48  C         58.9470   60.7710   18.6450 C.2   334  ASP334      0.2622
     49  O         59.2000   61.1490   17.5110 O.2   334  ASP334     -0.2715
     50  CB        57.0530   61.9500   19.8790 C.3   334  ASP334      0.1450
     51  CG        55.5250   62.0150   20.0850 C.2   334  ASP334      0.3671
     52  OD1       54.7780   61.1690   19.5220 O.co2 334  ASP334     -0.2456
     53  OD2       55.0730   62.9170   20.8110 O.co2 334  ASP334     -0.2456
     54  N         59.8960   60.3780   19.4820 N.am  335  GLY335     -0.1954
     55  CA        61.2620   60.1790   19.0020 C.3   335  GLY335      0.1869
     56  C         61.3570   59.0440   17.9830 C.2   335  GLY335      0.2309
     57  O         62.1030   59.1230   16.9920 O.2   335  GLY335     -0.2863
     58  N         58.1820   53.1240   24.3580 N.3   377  ALA377     -0.1231
     59  CA        57.4870   54.2890   24.9350 C.3   377  ALA377      0.1694
     60  C         58.3690   54.9370   25.9600 C.2   377  ALA377      0.2592
     61  O         59.1430   54.2680   26.6240 O.2   377  ALA377     -0.2718
     62  CB        56.1550   53.9010   25.6020 C.3   377  ALA377      0.0304
     63  N         58.2320   56.2450   26.1180 N.am  378  GLY378     -0.1957
     64  CA        59.1220   56.9710   26.9970 C.3   378  GLY378      0.1869
     65  C         59.0660   56.5350   28.4540 C.2   378  GLY378      0.2309
     66  O         60.1030   56.4080   29.1070 O.2   378  GLY378     -0.2863
@<TRIPOS>BOND
     1    36    35    2
     2    35    34    1
     3    57    56    2
     4    49    48    2
     5    56    55    1
     6    45    44    2
     7    34    37    1
     8    34    33    1
     9    48    47    1
    10    48    54   am
    11    55    54    1
    12    47    50    1
    13    47    46    1
    14    44    46   am
    15    44    43    1
    16    52    51   ar
    17    50    51    1
    18    51    53   ar
    19    43    42    1
    20    41    40    2
    21     7     5    1
    22    42    40   am
    23    40    39    1
    24     6     5    1
    25     5     2    1
    26    39    38    1
    27     2     1    1
    28     2     3    1
    29    58    59    1
    30     3     4    2
    31     3     8   am
    32    59    62    1
    33    59    60    1
    34     8     9    1
    35    60    63   am
    36    60    61    2
    37    63    64    1
    38     9    12    1
    39     9    10    1
    40    12    13    1
    41    64    65    1
    42    10    11    2
    43    10    14   am
    44    22    20   am
    45    65    66    2
    46    14    15    1
    47    19    20    1
    48    19    18    1
    49    20    21    2
    50    31    29   ar
    51    31    32   ar
    52    29    28   ar
    53    15    18    1
    54    15    16    1
    55    32    30   ar
    56    23    16   am
    57    23    24    1
    58    28    27    1
    59    28    30   ar
    60    16    17    2
    61    27    24    1
    62    24    25    1
    63    26    25    2
