@<TRIPOS>MOLECULE
tmp/4xfyA00.pdb
 107 99 0 0 0
SMALL
GASTEIGER

@<TRIPOS>ATOM
      1  N         -6.2880  -23.1780    7.6340 N.3    49  ASN49      -0.1240
      2  CA        -7.3690  -23.5240    6.7050 C.3    49  ASN49       0.1653
      3  C         -7.8560  -22.3120    5.9100 C.2    49  ASN49       0.2266
      4  O         -8.1430  -22.4200    4.7150 O.2    49  ASN49      -0.2867
      5  CB        -8.5430  -24.1800    7.4440 C.3    49  ASN49       0.1155
      6  CG        -8.2470  -25.6290    7.8430 C.2    49  ASN49       0.2627
      7  OD1       -7.4280  -26.3100    7.2240 O.2    49  ASN49      -0.2716
      8  ND2       -8.9230  -26.1010    8.8780 N.am   49  ASN49      -0.0877
      9  N         -5.3780  -21.7310    3.1520 N.3    52  LEU52      -0.1231
     10  CA        -5.5010  -22.7600    2.1230 C.3    52  LEU52       0.1693
     11  C         -6.8130  -22.6300    1.3400 C.2    52  LEU52       0.2592
     12  O         -6.8060  -22.7930    0.1040 O.2    52  LEU52      -0.2718
     13  CB        -5.4040  -24.1430    2.7400 C.3    52  LEU52       0.0284
     14  CG        -4.0730  -24.5040    3.4220 C.3    52  LEU52       0.0019
     15  CD1       -4.1220  -25.9420    3.9310 C.3    52  LEU52       0.0001
     16  CD2       -2.8800  -24.3080    2.4980 C.3    52  LEU52       0.0001
     17  N         -7.9140  -22.3290    2.0370 N.am   53  ASN53      -0.1974
     18  CA        -9.2120  -22.2410    1.3920 C.3    53  ASN53       0.1688
     19  C         -9.3780  -21.0180    0.4820 C.2    53  ASN53       0.2292
     20  O        -10.1560  -21.0620   -0.4780 O.2    53  ASN53      -0.2864
     21  CB       -10.3470  -22.2440    2.4340 C.3    53  ASN53       0.1181
     22  CG       -10.5410  -23.6010    3.0860 C.2    53  ASN53       0.2629
     23  OD1      -10.3130  -24.6620    2.4610 O.2    53  ASN53      -0.2716
     24  ND2      -10.9620  -23.5770    4.3610 N.am   53  ASN53      -0.0877
     25  N         -6.9890  -26.6950   -7.5400 N.3    59  GLN59      -0.1245
     26  CA        -7.8370  -27.5230   -6.6880 C.3    59  GLN59       0.1566
     27  C         -7.4490  -28.9960   -6.7250 C.2    59  GLN59       0.2260
     28  O         -7.8670  -29.7710   -5.8610 O.2    59  GLN59      -0.2867
     29  CB        -9.3140  -27.3250   -7.0400 C.3    59  GLN59       0.0367
     30  CG        -9.8470  -25.9530   -6.6620 C.3    59  GLN59       0.0905
     31  CD        -9.6600  -25.6430   -5.1810 C.2    59  GLN59       0.2608
     32  OE1      -10.2640  -26.2720   -4.3250 O.2    59  GLN59      -0.2717
     33  NE2       -8.8050  -24.6600   -4.8860 N.am   59  GLN59      -0.0878
     34  N         -4.9000  -28.9130   -3.9580 N.3    62  MET62      -0.1230
     35  CA        -5.6340  -28.7830   -2.6900 C.3    62  MET62       0.1702
     36  C         -6.2490  -30.1120   -2.2540 C.2    62  MET62       0.2592
     37  O         -6.3300  -30.3980   -1.0610 O.2    62  MET62      -0.2718
     38  CB        -6.7230  -27.7260   -2.7900 C.3    62  MET62       0.0401
     39  CG        -6.2010  -26.3010   -2.9750 C.3    62  MET62       0.0596
     40  SD        -5.2470  -25.6830   -1.5810 S.3    62  MET62      -0.1393
     41  CE        -3.6020  -25.9960   -2.1570 C.3    62  MET62       0.0692
     42  N         -6.6810  -30.9160   -3.2160 N.am   63  GLN63      -0.1979
     43  CA        -7.2310  -32.2310   -2.9100 C.3    63  GLN63       0.1601
     44  C         -6.1350  -33.1810   -2.4360 C.2    63  GLN63       0.2287
     45  O         -6.2990  -33.8660   -1.4290 O.2    63  GLN63      -0.2864
     46  CB        -7.9640  -32.7990   -4.1220 C.3    63  GLN63       0.0394
     47  CG        -8.6720  -34.1250   -3.8610 C.3    63  GLN63       0.0908
     48  CD        -9.7770  -34.0390   -2.8360 C.2    63  GLN63       0.2608
     49  OE1      -10.2020  -32.9530   -2.4530 O.2    63  GLN63      -0.2717
     50  NE2      -10.2730  -35.1930   -2.4140 N.am   63  GLN63      -0.0878
     51  N         -3.4790  -32.3320   -1.0310 N.3    65  LEU65      -0.1231
     52  CA        -3.0890  -31.8260    0.2680 C.3    65  LEU65       0.1693
     53  C         -3.9570  -32.4600    1.3550 C.2    65  LEU65       0.2591
     54  O         -3.4350  -32.9970    2.3340 O.2    65  LEU65      -0.2718
     55  CB        -3.1930  -30.3030    0.3010 C.3    65  LEU65       0.0284
     56  CG        -2.5920  -29.5440    1.4900 C.3    65  LEU65       0.0019
     57  CD1       -1.2440  -30.1090    1.9290 C.3    65  LEU65       0.0001
     58  CD2       -2.4890  -28.0540    1.1260 C.3    65  LEU65       0.0001
     59  N         -5.2770  -32.4280    1.1610 N.am   66  LYS66      -0.1980
     60  CA        -6.2130  -33.0370    2.1050 C.3    66  LYS66       0.1596
     61  C         -5.9420  -34.5290    2.3120 C.2    66  LYS66       0.2287
     62  O         -6.1340  -35.0480    3.4170 O.2    66  LYS66      -0.2864
     63  CB        -7.6590  -32.8450    1.6380 C.3    66  LYS66       0.0298
     64  CG        -8.1670  -31.4080    1.6920 C.3    66  LYS66       0.0038
     65  CD        -9.5970  -31.3450    1.1860 C.3    66  LYS66       0.0206
     66  CE       -10.0220  -29.9960    0.6320 C.3    66  LYS66       0.1093
     67  NZ       -10.3720  -29.1760    1.7970 N.3    66  LYS66      -0.1314
     68  N         -3.0150  -34.8090    4.7010 N.3    69  ILE69      -0.1231
     69  CA        -3.4970  -34.4930    6.0570 C.3    69  ILE69       0.1692
     70  C         -4.2410  -35.6710    6.6790 C.2    69  ILE69       0.2592
     71  O         -4.0880  -35.9290    7.8710 O.2    69  ILE69      -0.2718
     72  CB        -4.3690  -33.2120    6.0670 C.3    69  ILE69       0.0266
     73  CG1       -3.4960  -31.9890    5.6880 C.3    69  ILE69       0.0019
     74  CG2       -5.0170  -32.9860    7.4320 C.3    69  ILE69       0.0020
     75  CD1       -4.2680  -30.8540    5.0310 C.3    69  ILE69       0.0001
     76  N         -5.0400  -36.3780    5.8830 N.am   70  ASN70      -0.1974
     77  CA        -5.7360  -37.5810    6.3630 C.3    70  ASN70       0.1688
     78  C         -4.7640  -38.6460    6.8540 C.2    70  ASN70       0.2292
     79  O         -4.9890  -39.2590    7.9000 O.2    70  ASN70      -0.2864
     80  CB        -6.6370  -38.1760    5.2680 C.3    70  ASN70       0.1181
     81  CG        -7.8710  -37.3310    5.0020 C.2    70  ASN70       0.2629
     82  OD1       -8.4880  -36.8110    5.9290 O.2    70  ASN70      -0.2716
     83  ND2       -8.2350  -37.1880    3.7280 N.am   70  ASN70      -0.0877
     84  N         -6.4480  -30.6970   12.4720 N.3   101  ALA101     -0.1245
     85  CA        -6.7060  -30.2210   11.1140 C.3   101  ALA101      0.1562
     86  C         -7.7420  -29.1060   11.0650 C.2   101  ALA101      0.2260
     87  O         -7.9020  -28.4570   10.0370 O.2   101  ALA101     -0.2867
     88  CB        -7.1410  -31.3810   10.2300 C.3   101  ALA101      0.0290
     89  N        -11.0470  -29.3220   11.3680 N.3   103  THR103     -0.1218
     90  CA       -12.3360  -29.7130   10.7860 C.3   103  THR103      0.1862
     91  C        -13.3790  -30.0290   11.8580 C.2   103  THR103      0.2287
     92  O        -14.5650  -29.7830   11.6550 O.2   103  THR103     -0.2866
     93  CB       -12.1870  -30.9310    9.8500 C.3   103  THR103      0.1770
     94  OG1      -11.4000  -31.9330   10.4920 O.3   103  THR103     -0.2211
     95  CG2      -11.4850  -30.5420    8.5680 C.3   103  THR103      0.0375
     96  N         -0.0810  -29.1520   12.7820 N.3   126  TYR126     -0.1241
     97  CA        -0.8430  -29.0740   11.5430 C.3   126  TYR126      0.1605
     98  C         -0.0350  -28.4510   10.4130 C.2   126  TYR126      0.2264
     99  O         -0.1120  -28.8990    9.2670 O.2   126  TYR126     -0.2867
    100  CB        -2.1540  -28.3220   11.7730 C.3   126  TYR126      0.0534
    101  CG        -3.1300  -28.3410   10.6030 C.ar  126  TYR126     -0.0201
    102  CD1       -3.2070  -29.4270    9.7370 C.ar  126  TYR126     -0.0009
    103  CD2       -3.9990  -27.2700   10.3890 C.ar  126  TYR126     -0.0009
    104  CE1       -4.0930  -29.4350    8.6820 C.ar  126  TYR126      0.0417
    105  CE2       -4.8940  -27.2710    9.3390 C.ar  126  TYR126      0.0417
    106  CZ        -4.9360  -28.3630    8.4810 C.ar  126  TYR126      0.1957
    107  OH        -5.8100  -28.3790    7.4250 O.3   126  TYR126     -0.2866
@<TRIPOS>BOND
     1    25    26    1
     2    29    26    1
     3    29    30    1
     4    27    26    1
     5    27    28    2
     6    30    31    1
     7    31    33   am
     8    31    32    2
     9    46    47    1
    10    46    43    1
    11    34    35    1
    12    47    48    1
    13    42    43    1
    14    42    36   am
    15    39    38    1
    16    39    40    1
    17    43    44    1
    18    48    49    2
    19    48    50   am
    20    38    35    1
    21    35    36    1
    22    44    45    2
    23    36    37    2
    24    41    40    1
    25    51    52    1
    26    20    19    2
    27    12    11    2
    28    52    55    1
    29    52    53    1
    30    55    56    1
    31    19    18    1
    32    66    65    1
    33    66    67    1
    34    58    56    1
    35    59    53   am
    36    59    60    1
    37    65    64    1
    38    11    17   am
    39    11    10    1
    40    53    54    2
    41    18    17    1
    42    18    21    1
    43    56    57    1
    44    63    64    1
    45    63    60    1
    46    60    61    1
    47    10    13    1
    48    10     9    1
    49    61    62    2
    50    21    22    1
    51    23    22    2
    52    16    14    1
    53    13    14    1
    54    22    24   am
    55    14    15    1
    56    83    81   am
    57    68    69    1
    58     4     3    2
    59    81    80    1
    60    81    82    2
    61    75    73    1
    62    80    77    1
    63    73    72    1
    64    76    77    1
    65    76    70   am
    66     3     2    1
    67    69    72    1
    68    69    70    1
    69    72    74    1
    70    77    78    1
    71    70    71    2
    72     2     5    1
    73     2     1    1
    74    78    79    2
    75     7     6    2
    76   107   106    1
    77     5     6    1
    78     6     8   am
    79   106   104   ar
    80   106   105   ar
    81    95    93    1
    82   104   102   ar
    83    99    98    2
    84   105   103   ar
    85   102   101   ar
    86    93    94    1
    87    93    90    1
    88    87    86    2
    89    88    85    1
    90   103   101   ar
    91    98    97    1
    92   101   100    1
    93    90    89    1
    94    90    91    1
    95    86    85    1
    96    85    84    1
    97    97   100    1
    98    97    96    1
    99    92    91    2
