@<TRIPOS>MOLECULE
tmp/4xfzA00.pdb
 118 110 0 0 0
SMALL
GASTEIGER

@<TRIPOS>ATOM
      1  N         -5.7510  -23.0790    5.3620 N.3    45  ASN45      -0.1240
      2  CA        -6.7680  -23.5830    4.4150 C.3    45  ASN45       0.1653
      3  C         -7.3520  -22.4630    3.5720 C.2    45  ASN45       0.2266
      4  O         -7.5670  -22.6050    2.3440 O.2    45  ASN45      -0.2867
      5  CB        -7.8960  -24.2780    5.1510 C.3    45  ASN45       0.1155
      6  CG        -7.5150  -25.6500    5.6480 C.2    45  ASN45       0.2627
      7  OD1       -6.6760  -26.3290    5.0590 O.2    45  ASN45      -0.2716
      8  ND2       -8.1560  -26.0800    6.7270 N.am   45  ASN45      -0.0877
      9  N         -5.0020  -21.8130    0.9200 N.3    48  LEU48      -0.1231
     10  CA        -5.0400  -22.8290   -0.1350 C.3    48  LEU48       0.1693
     11  C         -6.3180  -22.7360   -0.9430 C.2    48  LEU48       0.2592
     12  O         -6.3080  -22.9950   -2.1300 O.2    48  LEU48      -0.2718
     13  CB        -4.8760  -24.2270    0.4460 C.3    48  LEU48       0.0284
     14  CG        -3.5290  -24.5150    1.1200 C.3    48  LEU48       0.0019
     15  CD1       -3.6610  -25.8420    1.8430 C.3    48  LEU48       0.0001
     16  CD2       -2.3750  -24.5740    0.1230 C.3    48  LEU48       0.0001
     17  N         -7.4220  -22.3450   -0.3220 N.am   49  ASN49      -0.1974
     18  CA        -8.6580  -22.1890   -1.1030 C.3    49  ASN49       0.1688
     19  C         -8.7160  -21.0050   -2.0030 C.2    49  ASN49       0.2292
     20  O         -9.4730  -21.0170   -2.9630 O.2    49  ASN49      -0.2864
     21  CB        -9.8820  -22.1280   -0.2290 C.3    49  ASN49       0.1181
     22  CG       -10.1530  -23.4260    0.4090 C.2    49  ASN49       0.2629
     23  OD1      -10.1810  -24.4450   -0.2760 O.2    49  ASN49      -0.2716
     24  ND2      -10.3220  -23.4260    1.7160 N.am   49  ASN49      -0.0877
     25  N         -6.6380  -20.1820   -4.1330 N.3    51  VAL51      -0.1245
     26  CA        -6.1280  -20.5940   -5.4420 C.3    51  VAL51       0.1561
     27  C         -7.2380  -21.1710   -6.2970 C.2    51  VAL51       0.2260
     28  O         -7.9090  -22.1270   -5.9110 O.2    51  VAL51      -0.2867
     29  CB        -5.0630  -21.7060   -5.3240 C.3    51  VAL51       0.0252
     30  CG1       -4.4800  -22.0800   -6.6950 C.3    51  VAL51       0.0019
     31  CG2       -3.9710  -21.2990   -4.3230 C.3    51  VAL51       0.0019
     32  N         -5.9470  -27.5700   -9.7150 N.3    55  GLN55      -0.1245
     33  CA        -6.7320  -28.3260   -8.7460 C.3    55  GLN55       0.1566
     34  C         -6.2010  -29.7770   -8.6060 C.2    55  GLN55       0.2260
     35  O         -6.2630  -30.4190   -7.5350 O.2    55  GLN55      -0.2867
     36  CB        -8.2170  -28.2400   -9.1290 C.3    55  GLN55       0.0367
     37  CG        -8.8860  -26.9110   -8.7250 C.3    55  GLN55       0.0905
     38  CD        -8.8010  -26.6910   -7.2150 C.2    55  GLN55       0.2608
     39  OE1       -9.1780  -27.5830   -6.4540 O.2    55  GLN55      -0.2717
     40  NE2       -8.2910  -25.5200   -6.7670 N.am   55  GLN55      -0.0878
     41  N         -3.7750  -29.3690   -5.9880 N.3    58  MET58      -0.1230
     42  CA        -4.4720  -29.2350   -4.7110 C.3    58  MET58       0.1702
     43  C         -5.0400  -30.5580   -4.2550 C.2    58  MET58       0.2592
     44  O         -4.9940  -30.8920   -3.0610 O.2    58  MET58      -0.2718
     45  CB        -5.5950  -28.1980   -4.8010 C.3    58  MET58       0.0401
     46  CG        -5.1560  -26.7900   -5.2420 C.3    58  MET58       0.0596
     47  SD        -3.9440  -26.0400   -4.1350 S.3    58  MET58      -0.1393
     48  CE        -2.4500  -26.1780   -5.0960 C.3    58  MET58       0.0692
     49  N         -5.5580  -31.3440   -5.1920 N.am   59  GLN59      -0.1979
     50  CA        -5.9640  -32.7140   -4.8300 C.3    59  GLN59       0.1601
     51  C         -4.7960  -33.5970   -4.3230 C.2    59  GLN59       0.2287
     52  O         -4.8810  -34.1640   -3.2380 O.2    59  GLN59      -0.2864
     53  CB        -6.7010  -33.4000   -5.9580 C.3    59  GLN59       0.0394
     54  CG        -7.2060  -34.7720   -5.5580 C.3    59  GLN59       0.0908
     55  CD        -8.2430  -34.7330   -4.4490 C.2    59  GLN59       0.2608
     56  OE1       -9.1660  -33.9220   -4.4440 O.2    59  GLN59      -0.2717
     57  NE2       -8.1130  -35.6470   -3.5180 N.am   59  GLN59      -0.0878
     58  N         -2.2500  -32.5790   -2.9240 N.3    61  LEU61      -0.1231
     59  CA        -1.9180  -31.9660   -1.6330 C.3    61  LEU61       0.1693
     60  C         -2.8740  -32.4300   -0.5240 C.2    61  LEU61       0.2591
     61  O         -2.5100  -32.6930    0.6300 O.2    61  LEU61      -0.2718
     62  CB        -1.9850  -30.4290   -1.7560 C.3    61  LEU61       0.0284
     63  CG        -1.5870  -29.5960   -0.5110 C.3    61  LEU61       0.0019
     64  CD1       -0.1270  -29.7880   -0.0870 C.3    61  LEU61       0.0001
     65  CD2       -1.8270  -28.0930   -0.7020 C.3    61  LEU61       0.0001
     66  N         -4.1420  -32.4610   -0.8630 N.am   62  LYS62      -0.1980
     67  CA        -5.0530  -33.1200    0.0280 C.3    62  LYS62       0.1596
     68  C         -4.5950  -34.5290    0.4810 C.2    62  LYS62       0.2287
     69  O         -4.5970  -34.8220    1.6700 O.2    62  LYS62      -0.2864
     70  CB        -6.3900  -33.2720   -0.6550 C.3    62  LYS62       0.0298
     71  CG        -7.3670  -32.1650   -0.3800 C.3    62  LYS62       0.0038
     72  CD        -8.6650  -32.4820   -1.0760 C.3    62  LYS62       0.0206
     73  CE        -9.6860  -31.4120   -0.7600 C.3    62  LYS62       0.1093
     74  NZ       -10.2010  -30.8820   -2.0230 N.3    62  LYS62      -0.1314
     75  N         -1.8280  -34.6380    2.8150 N.3    65  ILE65      -0.1231
     76  CA        -2.3000  -34.2380    4.1320 C.3    65  ILE65       0.1692
     77  C         -3.0510  -35.3610    4.8450 C.2    65  ILE65       0.2592
     78  O         -2.8950  -35.5500    6.0490 O.2    65  ILE65      -0.2718
     79  CB        -3.1780  -32.9840    4.0470 C.3    65  ILE65       0.0266
     80  CG1       -2.2900  -31.8010    3.6770 C.3    65  ILE65       0.0019
     81  CG2       -3.8690  -32.7230    5.3780 C.3    65  ILE65       0.0020
     82  CD1       -3.0450  -30.5980    3.1790 C.3    65  ILE65       0.0001
     83  N         -3.8820  -36.0880    4.1130 N.am   66  ASN66      -0.1974
     84  CA        -4.6210  -37.2150    4.7020 C.3    66  ASN66       0.1688
     85  C         -3.6590  -38.3120    5.1950 C.2    66  ASN66       0.2292
     86  O         -3.8270  -38.8920    6.2780 O.2    66  ASN66      -0.2864
     87  CB        -5.6430  -37.7660    3.6950 C.3    66  ASN66       0.1181
     88  CG        -6.7840  -36.7630    3.4010 C.2    66  ASN66       0.2629
     89  OD1       -7.0030  -35.8050    4.1590 O.2    66  ASN66      -0.2716
     90  ND2       -7.5220  -36.9840    2.3030 N.am   66  ASN66      -0.0877
     91  N         -5.6680  -30.5120   10.4140 N.3    97  ALA97      -0.1231
     92  CA        -5.9360  -30.0000    9.0770 C.3    97  ALA97       0.1694
     93  C         -7.0990  -29.0180    9.0360 C.2    97  ALA97       0.2593
     94  O         -7.4130  -28.4760    7.9640 O.2    97  ALA97      -0.2718
     95  CB        -6.1820  -31.1250    8.1090 C.3    97  ALA97       0.0304
     96  N         -7.7490  -28.7790   10.1740 N.am   98  GLY98      -0.1942
     97  CA        -8.7870  -27.7440   10.2560 C.3    98  GLY98       0.2014
     98  C        -10.2190  -28.1600    9.9380 C.2    98  GLY98       0.2639
     99  O        -11.1350  -27.3540   10.1000 O.2    98  GLY98      -0.2714
    100  N        -10.4270  -29.4170    9.5480 N.am   99  THR99      -0.1950
    101  CA       -11.7470  -29.9170    9.1690 C.3    99  THR99       0.1897
    102  C        -12.6840  -30.2640   10.3360 C.2    99  THR99       0.2313
    103  O        -13.8940  -30.1220   10.1800 O.2    99  THR99      -0.2863
    104  CB       -11.6540  -31.1880    8.3060 C.3    99  THR99       0.1794
    105  OG1      -11.3810  -32.3090    9.1540 O.3    99  THR99      -0.2208
    106  CG2      -10.5770  -31.0700    7.2660 C.3    99  THR99       0.0378
    107  N          0.5940  -28.6070   10.8980 N.3   122  TYR122     -0.1241
    108  CA        -0.1150  -28.7060    9.6570 C.3   122  TYR122      0.1605
    109  C          0.7200  -28.0680    8.5560 C.2   122  TYR122      0.2264
    110  O          0.7930  -28.5760    7.4260 O.2   122  TYR122     -0.2867
    111  CB        -1.4920  -28.0450    9.8100 C.3   122  TYR122      0.0534
    112  CG        -2.4130  -28.1270    8.5890 C.ar  122  TYR122     -0.0201
    113  CD1       -2.3630  -29.1970    7.7030 C.ar  122  TYR122     -0.0009
    114  CD2       -3.3680  -27.1320    8.3630 C.ar  122  TYR122     -0.0009
    115  CE1       -3.2010  -29.2630    6.6230 C.ar  122  TYR122      0.0417
    116  CE2       -4.2200  -27.1910    7.2800 C.ar  122  TYR122      0.0417
    117  CZ        -4.1300  -28.2590    6.4080 C.ar  122  TYR122      0.1957
    118  OH        -4.9670  -28.3250    5.3180 O.3   122  TYR122     -0.2866
@<TRIPOS>BOND
     1    32    33    1
     2    36    33    1
     3    36    37    1
     4    33    34    1
     5    37    38    1
     6    34    35    2
     7    38    40   am
     8    38    39    2
     9    30    29    1
    10    27    28    2
    11    27    26    1
    12    41    42    1
    13    53    54    1
    14    53    50    1
    15    54    55    1
    16    26    29    1
    17    26    25    1
    18    29    31    1
    19    46    45    1
    20    46    47    1
    21    49    50    1
    22    49    43   am
    23    48    47    1
    24    50    51    1
    25    45    42    1
    26    42    43    1
    27    55    56    2
    28    55    57   am
    29    51    52    2
    30    43    44    2
    31    20    19    2
    32    58    59    1
    33    12    11    2
    34    74    73    1
    35    19    18    1
    36    62    59    1
    37    62    63    1
    38    59    60    1
    39    18    17    1
    40    18    21    1
    41    72    73    1
    42    72    71    1
    43    11    17   am
    44    11    10    1
    45    66    60   am
    46    66    67    1
    47    65    63    1
    48    70    71    1
    49    70    67    1
    50    60    61    2
    51    63    64    1
    52    23    22    2
    53    21    22    1
    54    10    13    1
    55    10     9    1
    56    67    68    1
    57    16    14    1
    58    22    24   am
    59    13    14    1
    60    68    69    2
    61    14    15    1
    62    90    88   am
    63     4     3    2
    64    75    76    1
    65    82    80    1
    66    88    87    1
    67    88    89    2
    68     3     2    1
    69    80    79    1
    70    87    84    1
    71    79    76    1
    72    79    81    1
    73    83    84    1
    74    83    77   am
    75    76    77    1
    76     2     5    1
    77     2     1    1
    78    84    85    1
    79    77    78    2
    80     7     6    2
    81     5     6    1
    82    85    86    2
    83   118   117    1
    84     6     8   am
    85   117   115   ar
    86   117   116   ar
    87   115   113   ar
    88   106   104    1
    89   116   114   ar
    90   110   109    2
    91   113   112   ar
    92    94    93    2
    93    95    92    1
    94   104   105    1
    95   104   101    1
    96   114   112   ar
    97   109   108    1
    98   112   111    1
    99    93    92    1
   100    93    96   am
   101    92    91    1
   102   101   100    1
   103   101   102    1
   104   100    98   am
   105   108   111    1
   106   108   107    1
   107    98    99    2
   108    98    97    1
   109    96    97    1
   110   103   102    2
