@<TRIPOS>MOLECULE
tmp/4xg1B00.pdb
 176 165 0 0 0
SMALL
GASTEIGER

@<TRIPOS>ATOM
      1  N         13.9010   11.4580   38.2890 N.3    58  ALA58      -0.1245
      2  CA        13.3430   10.2150   37.7520 C.3    58  ALA58       0.1562
      3  C         14.1710    9.7460   36.5300 C.2    58  ALA58       0.2260
      4  O         14.0330   10.2410   35.4220 O.2    58  ALA58      -0.2867
      5  CB        11.8990   10.4300   37.3650 C.3    58  ALA58       0.0290
      6  N         14.2940    7.2560   34.5300 N.3    60  LYS60      -0.1245
      7  CA        13.5400    6.8060   33.3710 C.3    60  LYS60       0.1561
      8  C         13.2870    7.8330   32.2860 C.2    60  LYS60       0.2260
      9  O         13.1380    7.4690   31.1400 O.2    60  LYS60      -0.2867
     10  CB        12.1790    6.3150   33.8300 C.3    60  LYS60       0.0271
     11  CG        11.3460    7.4950   34.2580 C.3    60  LYS60       0.0035
     12  CD        10.2840    7.2060   35.2950 C.3    60  LYS60       0.0206
     13  CE         9.3550    6.1040   34.8280 C.3    60  LYS60       0.1093
     14  NZ         9.7650    4.8340   35.5140 N.3    60  LYS60      -0.1314
     15  N         15.3550    8.6560   41.5570 N.3    79  ASP79      -0.1239
     16  CA        14.2790    7.6730   41.6250 C.3    79  ASP79       0.1674
     17  C         14.5290    6.6750   40.4870 C.2    79  ASP79       0.2266
     18  O         14.6720    7.0810   39.3400 O.2    79  ASP79      -0.2867
     19  CB        12.9450    8.4020   41.4630 C.3    79  ASP79       0.1410
     20  CG        11.7670    7.4660   41.3950 C.2    79  ASP79       0.3668
     21  OD1       11.7790    6.4210   42.0970 O.co2  79  ASP79      -0.2456
     22  OD2       10.8130    7.7980   40.6290 O.co2  79  ASP79      -0.2456
     23  N         13.8370    2.5790   38.7440 N.3    81  VAL81      -0.1245
     24  CA        12.8710    1.5000   38.5840 C.3    81  VAL81       0.1561
     25  C         13.4580    0.1630   38.2250 C.2    81  VAL81       0.2260
     26  O         12.7040   -0.7820   37.9770 O.2    81  VAL81      -0.2867
     27  CB        11.7940    1.8460   37.5280 C.3    81  VAL81       0.0252
     28  CG1       11.0210    3.0800   37.9860 C.3    81  VAL81       0.0019
     29  CG2       12.4300    2.0990   36.1690 C.3    81  VAL81       0.0019
     30  N         11.2730    2.7720   42.8960 N.3   102  SER102     -0.1217
     31  CA         9.8650    2.5240   42.5120 C.3   102  SER102      0.1889
     32  C          9.7400    1.3080   41.5850 C.2   102  SER102      0.2288
     33  O         10.7380    0.7690   41.1230 O.2   102  SER102     -0.2866
     34  CB         9.2840    3.7520   41.8120 C.3   102  SER102      0.2089
     35  OG         9.7420    4.9840   42.3810 O.3   102  SER102     -0.2183
     36  N          3.4440    2.8470   48.2070 N.3   149  ARG149     -0.1245
     37  CA         2.8270    3.7050   47.1990 C.3   149  ARG149      0.1563
     38  C          1.2920    3.6300   47.3700 C.2   149  ARG149      0.2260
     39  O          0.6730    2.5580   47.2010 O.2   149  ARG149     -0.2867
     40  CB         3.2100    3.2870   45.7860 C.3   149  ARG149      0.0307
     41  CG         2.7340    4.2770   44.7310 C.3   149  ARG149      0.0489
     42  CD         3.0680    3.7950   43.3250 C.3   149  ARG149      0.2205
     43  NE         2.5530    4.7030   42.3320 N.pl3 149  ARG149     -0.0865
     44  CZ         2.8130    4.6340   41.0430 C.cat 149  ARG149      0.5346
     45  NH1        3.6270    3.7240   40.5690 N.pl3 149  ARG149      0.1354
     46  NH2        2.2530    5.5070   40.2310 N.pl3 149  ARG149      0.1354
     47  N         -0.7600    0.2520   39.4410 N.3   171  PHE171     -0.1241
     48  CA         0.0550    0.8810   40.4830 C.3   171  PHE171      0.1605
     49  C         -0.6240    1.0630   41.8460 C.2   171  PHE171      0.2264
     50  O         -1.7930    1.4030   41.9500 O.2   171  PHE171     -0.2867
     51  CB         0.5690    2.2490   40.0080 C.3   171  PHE171      0.0534
     52  CG         1.2880    2.1810   38.7150 C.ar  171  PHE171     -0.0203
     53  CD1        2.4540    1.4430   38.6000 C.ar  171  PHE171     -0.0042
     54  CD2        0.7720    2.7810   37.5800 C.ar  171  PHE171     -0.0042
     55  CE1        3.1140    1.3400   37.3900 C.ar  171  PHE171     -0.0003
     56  CE2        1.4150    2.6660   36.3620 C.ar  171  PHE171     -0.0003
     57  CZ         2.5880    1.9230   36.2590 C.ar  171  PHE171     -0.0000
     58  N          4.4530    7.1280   50.0640 N.3   197  ASP197     -0.1239
     59  CA         4.7410    7.4760   48.6700 C.3   197  ASP197      0.1674
     60  C          3.4890    7.5130   47.7930 C.2   197  ASP197      0.2266
     61  O          2.5160    6.7940   48.0310 O.2   197  ASP197     -0.2867
     62  CB         5.7300    6.4340   48.1200 C.3   197  ASP197      0.1410
     63  CG         5.9060    6.5170   46.6220 C.2   197  ASP197      0.3668
     64  OD1        6.4530    7.5440   46.1260 O.co2 197  ASP197     -0.2456
     65  OD2        5.4760    5.5440   45.9620 O.co2 197  ASP197     -0.2456
     66  N          2.3730    8.4620   43.3370 N.3   199  HIS199     -0.1241
     67  CA         2.5960    9.0770   42.0570 C.3   199  HIS199      0.1621
     68  C          1.2560    9.0640   41.2980 C.2   199  HIS199      0.2264
     69  O          0.7320    8.0100   41.0600 O.2   199  HIS199     -0.2867
     70  CB         3.7220    8.3470   41.2980 C.3   199  HIS199      0.0745
     71  CG         3.9380    8.8590   39.9140 C.ar  199  HIS199      0.0817
     72  ND1        4.7230    9.9550   39.6480 N.ar  199  HIS199     -0.2268
     73  CD2        3.4440    8.4560   38.7230 C.ar  199  HIS199      0.1154
     74  CE1        4.6940   10.2260   38.3570 C.ar  199  HIS199      0.1986
     75  NE2        3.9440    9.3130   37.7650 N.ar  199  HIS199     -0.2212
     76  N          1.1830   11.6150   34.9660 N.3   202  SER202     -0.1217
     77  CA         2.2430   12.3520   34.2790 C.3   202  SER202      0.1889
     78  C          1.6550   13.3620   33.3370 C.2   202  SER202      0.2288
     79  O          0.4920   13.2660   32.9590 O.2   202  SER202     -0.2866
     80  CB         3.1620   11.3840   33.5360 C.3   202  SER202      0.2089
     81  OG         4.3700   12.0150   33.1710 O.3   202  SER202     -0.2183
     82  N          6.3580   12.3030   40.7620 N.3   238  GLY238     -0.1210
     83  CA         6.5730   13.3220   39.7430 C.3   238  GLY238      0.1956
     84  C          5.2190   13.6790   39.1740 C.2   238  GLY238      0.2612
     85  O          4.2240   13.6410   39.9090 O.2   238  GLY238     -0.2717
     86  N          5.1780   13.9860   37.8880 N.am  239  GLY239     -0.1942
     87  CA         3.9260   14.1860   37.1940 C.3   239  GLY239      0.2014
     88  C          3.6730   15.6040   36.7340 C.2   239  GLY239      0.2638
     89  O          2.7300   15.8680   35.9940 O.2   239  GLY239     -0.2714
     90  N          4.4930   16.5340   37.1700 N.am  240  LEU240     -0.1977
     91  CA         4.2910   17.8980   36.7780 C.3   240  LEU240      0.1596
     92  C          4.5700   18.0200   35.2680 C.2   240  LEU240      0.2287
     93  O          5.6480   17.5910   34.7750 O.2   240  LEU240     -0.2864
     94  CB         5.2060   18.8440   37.5760 C.3   240  LEU240      0.0297
     95  CG         5.1020   20.3320   37.2020 C.3   240  LEU240      0.0022
     96  CD1        3.7040   20.8760   37.4770 C.3   240  LEU240      0.0001
     97  CD2        6.1310   21.1500   37.9680 C.3   240  LEU240      0.0001
     98  N          9.9550   13.4270   42.8060 N.3   273  GLU273     -0.1231
     99  CA        10.5030   12.5480   41.7750 C.3   273  GLU273      0.1684
    100  C         10.2700   13.0760   40.3800 C.2   273  GLU273      0.2434
    101  O          9.7850   12.3700   39.5360 O.2   273  GLU273     -0.2733
    102  CB         9.8630   11.1800   41.9040 C.3   273  GLU273      0.0402
    103  CG        10.1120   10.4450   43.2040 C.3   273  GLU273      0.1161
    104  CD         9.3590    9.1350   43.2760 C.2   273  GLU273      0.3649
    105  OE1        8.4030    8.9300   42.4950 O.co2 273  GLU273     -0.2457
    106  OE2        9.7070    8.2720   44.0930 O.co2 273  GLU273     -0.2457
    107  N         10.5810   14.3530   40.1300 N.am  274  PRO274     -0.2718
    108  CA        10.2830   14.8310   38.8010 C.3   274  PRO274      0.1535
    109  C         11.1900   14.2160   37.6960 C.2   274  PRO274      0.2599
    110  O         12.3760   14.0180   37.9080 O.2   274  PRO274     -0.2715
    111  CB        10.5500   16.3360   38.9210 C.3   274  PRO274      0.0310
    112  CG        11.6280   16.4170   39.9350 C.3   274  PRO274      0.0237
    113  CD        11.2730   15.3720   40.9310 C.3   274  PRO274      0.0939
    114  N         10.6330   14.0290   36.5040 N.am  275  GLY275     -0.1941
    115  CA        11.4100   13.6230   35.3260 C.3   275  GLY275      0.2014
    116  C         11.2390   14.5730   34.1660 C.2   275  GLY275      0.2639
    117  O         12.1250   15.3920   33.8660 O.2   275  GLY275     -0.2714
    118  N         10.0620   14.5040   33.5580 N.am  276  ARG276     -0.1963
    119  CA         9.7160   15.3690   32.4340 C.3   276  ARG276      0.1729
    120  C         10.0010   16.8570   32.6740 C.2   276  ARG276      0.2616
    121  O         10.5630   17.5250   31.8270 O.2   276  ARG276     -0.2715
    122  CB         8.2510   15.1770   32.0870 C.3   276  ARG276      0.0348
    123  CG         7.8060   15.8570   30.8160 C.3   276  ARG276      0.0492
    124  CD         6.2950   15.8210   30.5970 C.3   276  ARG276      0.2205
    125  NE         5.6490   14.5870   30.9660 N.pl3 276  ARG276     -0.0865
    126  CZ         5.4460   13.5290   30.1870 C.cat 276  ARG276      0.5346
    127  NH1        5.8520   13.4630   28.9370 N.pl3 276  ARG276      0.1354
    128  NH2        4.8390   12.4700   30.7160 N.pl3 276  ARG276      0.1354
    129  N          9.6000   17.3710   33.8340 N.am  277  ALA277     -0.1977
    130  CA         9.6940   18.8010   34.1180 C.3   277  ALA277      0.1597
    131  C         11.1410   19.2550   34.1230 C.2   277  ALA277      0.2287
    132  O         11.4550   20.3850   33.7380 O.2   277  ALA277     -0.2864
    133  CB         9.0570   19.1120   35.4380 C.3   277  ALA277      0.0319
    134  N          7.2410    8.9720   20.8150 N.3   310  ARG310     -0.1245
    135  CA         6.1310    9.6260   21.5300 C.3   310  ARG310      0.1563
    136  C          4.9770    9.9560   20.5860 C.2   310  ARG310      0.2260
    137  O          3.8230    9.6900   20.9070 O.2   310  ARG310     -0.2867
    138  CB         6.5830   10.8560   22.3130 C.3   310  ARG310      0.0307
    139  CG         7.8140   10.6330   23.1770 C.3   310  ARG310      0.0489
    140  CD         7.9620   11.6250   24.3350 C.3   310  ARG310      0.2205
    141  NE         6.7370   11.6520   25.1450 N.pl3 310  ARG310     -0.0865
    142  CZ         5.7850   12.5860   25.1060 C.cat 310  ARG310      0.5346
    143  NH1        5.8800   13.6290   24.2910 N.pl3 310  ARG310      0.1354
    144  NH2        4.7350   12.4770   25.9100 N.pl3 310  ARG310      0.1354
    145  N          1.7280    7.8730   21.5440 N.3   314  TYR314     -0.1241
    146  CA         0.7740    8.6530   22.3110 C.3   314  TYR314      0.1605
    147  C          0.0410    9.7130   21.4880 C.2   314  TYR314      0.2264
    148  O         -0.7140   10.4680   22.0500 O.2   314  TYR314     -0.2867
    149  CB         1.4990    9.3740   23.4210 C.3   314  TYR314      0.0534
    150  CG         2.4140    8.5220   24.2710 C.ar  314  TYR314     -0.0201
    151  CD1        1.9100    7.6290   25.1930 C.ar  314  TYR314     -0.0009
    152  CD2        3.7730    8.6880   24.2330 C.ar  314  TYR314     -0.0009
    153  CE1        2.7540    6.9100   25.9970 C.ar  314  TYR314      0.0417
    154  CE2        4.6200    7.9590   25.0400 C.ar  314  TYR314      0.0417
    155  CZ         4.1090    7.0920   25.9170 C.ar  314  TYR314      0.1957
    156  OH         4.9710    6.3490   26.6780 O.3   314  TYR314     -0.2866
    157  N         11.7900   10.9290   27.8170 N.3   373  TYR373     -0.1241
    158  CA        11.0920    9.8490   27.1420 C.3   373  TYR373      0.1605
    159  C         11.3670    9.8720   25.6460 C.2   373  TYR373      0.2264
    160  O         10.4980    9.5170   24.8290 O.2   373  TYR373     -0.2867
    161  CB         9.6100    9.9010   27.4890 C.3   373  TYR373      0.0534
    162  CG         9.4360    9.9590   28.9850 C.ar  373  TYR373     -0.0201
    163  CD1        9.6930    8.8380   29.7690 C.ar  373  TYR373     -0.0009
    164  CD2        9.0750   11.1160   29.6240 C.ar  373  TYR373     -0.0009
    165  CE1        9.5510    8.8770   31.1440 C.ar  373  TYR373      0.0417
    166  CE2        8.9530   11.1730   31.0210 C.ar  373  TYR373      0.0417
    167  CZ         9.2000   10.0640   31.7540 C.ar  373  TYR373      0.1957
    168  OH         9.0950   10.0830   33.1000 O.3   373  TYR373     -0.2866
    169  N         13.2060    5.6240   25.2340 N.3   377  MET377     -0.1245
    170  CA        12.2600    4.7260   24.6160 C.3   377  MET377      0.1570
    171  C         12.7270    4.3080   23.2300 C.2   377  MET377      0.2261
    172  O         11.9390    3.6840   22.5110 O.2   377  MET377     -0.2867
    173  CB        10.8630    5.3430   24.5310 C.3   377  MET377      0.0387
    174  CG        10.3800    5.8700   25.8580 C.3   377  MET377      0.0595
    175  SD         8.6380    6.2880   25.8350 S.3   377  MET377     -0.1393
    176  CE         7.8590    4.6940   25.7950 C.3   377  MET377      0.0692
@<TRIPOS>BOND
     1   136   137    2
     2   136   135    1
     3   134   135    1
     4   147   148    2
     5   147   146    1
     6   135   138    1
     7   145   146    1
     8   146   149    1
     9   138   139    1
    10   172   171    2
    11   139   140    1
    12   171   170    1
    13   149   150    1
    14   152   150   ar
    15   152   154   ar
    16   150   151   ar
    17   143   142    1
    18   140   141    1
    19   173   170    1
    20   173   174    1
    21   170   169    1
    22   160   159    2
    23   154   155   ar
    24   142   141    2
    25   142   144    1
    26   151   153   ar
    27   159   158    1
    28   176   175    1
    29   175   174    1
    30   155   153   ar
    31   155   156    1
    32   158   161    1
    33   158   157    1
    34   161   162    1
    35   127   126    1
    36   162   164   ar
    37   162   163   ar
    38   164   166   ar
    39   163   165   ar
    40   126   128    1
    41   126   125    2
    42   124   123    1
    43   124   125    1
    44   123   122    1
    45   166   167   ar
    46     9     8    2
    47   165   167   ar
    48   167   168    1
    49   121   120    2
    50   122   119    1
    51     8     7    1
    52   119   120    1
    53   119   118    1
    54   120   129   am
    55    79    78    2
    56    81    80    1
    57    78    77    1
    58     7    10    1
    59     7     6    1
    60    80    77    1
    61   118   116   am
    62   132   131    2
    63    10    11    1
    64   129   130    1
    65   117   116    2
    66   130   131    1
    67   130   133    1
    68   116   115    1
    69    11    12    1
    70    77    76    1
    71    93    92    2
    72    13    12    1
    73    13    14    1
    74    92    91    1
    75   115   114    1
    76     4     3    2
    77    89    88    2
    78    29    27    1
    79    57    56   ar
    80    57    55   ar
    81    56    54   ar
    82   114   109   am
    83     3     2    1
    84    88    90   am
    85    88    87    1
    86    91    90    1
    87    91    94    1
    88    87    86    1
    89    95    96    1
    90    95    94    1
    91    95    97    1
    92     5     2    1
    93    55    53   ar
    94    27    28    1
    95    27    24    1
    96    54    52   ar
    97   109   110    2
    98   109   108    1
    99     2     1    1
   100    75    74   ar
   101    75    73   ar
   102    86    84   am
   103    26    25    2
   104    25    24    1
   105    74    72   ar
   106    24    23    1
   107    53    52   ar
   108    52    51    1
   109    73    71   ar
   110   108   111    1
   111   108   107    1
   112   111   112    1
   113    84    83    1
   114    84    85    2
   115    18    17    2
   116    47    48    1
   117   101   100    2
   118    72    71   ar
   119    83    82    1
   120    71    70    1
   121   112   113    1
   122    51    48    1
   123   107   100   am
   124   107   113    1
   125    46    44    1
   126   100    99    1
   127    48    49    1
   128    17    16    1
   129    45    44    1
   130    22    20   ar
   131    44    43    2
   132    69    68    2
   133    33    32    2
   134    70    67    1
   135    68    67    1
   136    20    19    1
   137    20    21   ar
   138    19    16    1
   139    15    16    1
   140    32    31    1
   141    99   102    1
   142    99    98    1
   143    34    35    1
   144    34    31    1
   145    49    50    2
   146   102   103    1
   147    67    66    1
   148    43    42    1
   149   105   104   ar
   150    31    30    1
   151   103   104    1
   152   104   106   ar
   153    42    41    1
   154    41    40    1
   155    40    37    1
   156    65    63   ar
   157    64    63   ar
   158    63    62    1
   159    37    38    1
   160    37    36    1
   161    39    38    2
   162    60    61    2
   163    60    59    1
   164    62    59    1
   165    59    58    1
