@<TRIPOS>MOLECULE
tmp/4xg1A00.pdb
 193 181 0 0 0
SMALL
GASTEIGER

@<TRIPOS>ATOM
      1  N         10.6350  -10.7860    4.5060 N.3    53  ALA53      -0.1245
      2  CA        10.6690   -9.4160    4.9850 C.3    53  ALA53       0.1562
      3  C         11.4160   -9.3820    6.3250 C.2    53  ALA53       0.2260
      4  O         10.8790   -9.7180    7.3740 O.2    53  ALA53      -0.2867
      5  CB         9.2650   -8.8810    5.1370 C.3    53  ALA53       0.0290
      6  N         12.4530   -7.2730    8.4470 N.3    55  LYS55      -0.1245
      7  CA        11.9120   -6.4450    9.5100 C.3    55  LYS55       0.1561
      8  C         11.0580   -7.2030   10.5210 C.2    55  LYS55       0.2260
      9  O         10.8710   -6.7250   11.6290 O.2    55  LYS55      -0.2867
     10  CB        11.0450   -5.3440    8.8810 C.3    55  LYS55       0.0271
     11  CG         9.7930   -5.9540    8.2870 C.3    55  LYS55       0.0035
     12  CD         9.1630   -5.2210    7.1430 C.3    55  LYS55       0.0206
     13  CE         8.8660   -3.7980    7.5360 C.3    55  LYS55       0.1093
     14  NZ         9.9380   -2.9180    6.9520 N.3    55  LYS55      -0.1314
     15  N         13.6750   -9.2560    1.5750 N.3    74  ASP74      -0.1239
     16  CA        13.2650   -7.8700    1.4130 C.3    74  ASP74       0.1674
     17  C         13.8140   -7.0780    2.6200 C.2    74  ASP74       0.2266
     18  O         13.5680   -7.4530    3.7640 O.2    74  ASP74      -0.2867
     19  CB        11.7610   -7.8040    1.3690 C.3    74  ASP74       0.1410
     20  CG        11.2330   -6.4010    1.3110 C.2    74  ASP74       0.3668
     21  OD1       11.8390   -5.5440    0.6160 O.co2  74  ASP74      -0.2456
     22  OD2       10.1280   -6.1640    1.8830 O.co2  74  ASP74      -0.2456
     23  N         14.9710   -3.1130    4.4040 N.3    76  VAL76      -0.1245
     24  CA        14.6560   -1.6870    4.4390 C.3    76  VAL76       0.1561
     25  C         15.7640   -0.7750    4.9510 C.2    76  VAL76       0.2260
     26  O         15.5500    0.4190    5.1010 O.2    76  VAL76      -0.2867
     27  CB        13.4330   -1.4220    5.2930 C.3    76  VAL76       0.0252
     28  CG1       12.2220   -2.1230    4.6980 C.3    76  VAL76       0.0019
     29  CG2       13.6550   -1.9060    6.7330 C.3    76  VAL76       0.0019
     30  N         13.3340   -2.1360   -0.1090 N.3    97  SER97      -0.1217
     31  CA        12.2170   -1.2280    0.0340 C.3    97  SER97       0.1889
     32  C         12.5720   -0.0790    0.9550 C.2    97  SER97       0.2288
     33  O         13.6060   -0.1130    1.6300 O.2    97  SER97      -0.2866
     34  CB        11.0240   -1.9860    0.6060 C.3    97  SER97       0.2089
     35  OG        10.8910   -3.3170    0.0650 O.3    97  SER97      -0.2183
     36  N         13.1370   -1.0310   -4.7050 N.3   118  ASN118     -0.1240
     37  CA        11.7420   -0.6400   -4.8220 C.3   118  ASN118      0.1653
     38  C         11.5840    0.8190   -4.4580 C.2   118  ASN118      0.2266
     39  O         11.5740    1.1520   -3.2840 O.2   118  ASN118     -0.2867
     40  CB        10.8890   -1.5210   -3.9240 C.3   118  ASN118      0.1155
     41  CG        10.8920   -2.9660   -4.3770 C.2   118  ASN118      0.2627
     42  OD1       11.0430   -3.2510   -5.5650 O.2   118  ASN118     -0.2716
     43  ND2       10.7110   -3.8900   -3.4410 N.am  118  ASN118     -0.0877
     44  N          7.3850    1.5050   -6.5210 N.3   144  ARG144     -0.1245
     45  CA         6.2810    1.1320   -5.6610 C.3   144  ARG144      0.1563
     46  C          5.0550    1.9670   -6.0180 C.2   144  ARG144      0.2260
     47  O          5.0440    3.2120   -5.9320 O.2   144  ARG144     -0.2867
     48  CB         6.6180    1.3270   -4.1970 C.3   144  ARG144      0.0307
     49  CG         5.5580    0.7600   -3.2630 C.3   144  ARG144      0.0489
     50  CD         5.8630    1.0640   -1.8100 C.3   144  ARG144      0.2205
     51  NE         4.8080    0.5890   -0.9260 N.pl3 144  ARG144     -0.0865
     52  CZ         4.8940    0.5470    0.4020 C.cat 144  ARG144      0.5346
     53  NH1        5.9920    0.9550    1.0160 N.pl3 144  ARG144      0.1354
     54  NH2        3.8770    0.0950    1.1210 N.pl3 144  ARG144      0.1354
     55  N          3.7960    6.2030    1.5710 N.3   150  PHE150     -0.1241
     56  CA         4.3340    5.2290    0.6430 C.3   150  PHE150      0.1605
     57  C          3.8720    5.3380   -0.8040 C.2   150  PHE150      0.2264
     58  O          2.7200    5.6220   -1.1010 O.2   150  PHE150     -0.2867
     59  CB         4.0110    3.8290    1.1230 C.3   150  PHE150      0.0534
     60  CG         4.4600    3.5790    2.5230 C.ar  150  PHE150     -0.0203
     61  CD1        5.8200    3.5760    2.8360 C.ar  150  PHE150     -0.0042
     62  CD2        3.5330    3.3650    3.5360 C.ar  150  PHE150     -0.0042
     63  CE1        6.2370    3.3520    4.1320 C.ar  150  PHE150     -0.0003
     64  CE2        3.9470    3.1520    4.8430 C.ar  150  PHE150     -0.0003
     65  CZ         5.3000    3.1410    5.1370 C.ar  150  PHE150     -0.0000
     66  N          6.3270   -2.7550   -8.3860 N.3   176  ASP176     -0.1239
     67  CA         6.2260   -3.1590   -6.9820 C.3   176  ASP176      0.1674
     68  C          5.0060   -2.5430   -6.3130 C.2   176  ASP176      0.2266
     69  O          4.5790   -1.4120   -6.6490 O.2   176  ASP176     -0.2867
     70  CB         7.5240   -2.7430   -6.2580 C.3   176  ASP176      0.1410
     71  CG         7.4210   -2.8360   -4.7590 C.2   176  ASP176      0.3668
     72  OD1        7.3210   -3.9590   -4.2110 O.co2 176  ASP176     -0.2456
     73  OD2        7.4370   -1.7530   -4.1320 O.co2 176  ASP176     -0.2456
     74  N          2.9650   -2.6060   -2.0840 N.3   178  HIS178     -0.1241
     75  CA         2.6640   -3.2210   -0.7770 C.3   178  HIS178      0.1621
     76  C          1.4460   -2.4980   -0.2150 C.2   178  HIS178      0.2264
     77  O          1.4820   -1.3140   -0.0240 O.2   178  HIS178     -0.2867
     78  CB         3.8780   -3.1310    0.1700 C.3   178  HIS178      0.0745
     79  CG         3.6040   -3.6380    1.5450 C.ar  178  HIS178      0.0817
     80  ND1        3.6980   -4.9640    1.8660 N.ar  178  HIS178     -0.2268
     81  CD2        3.2240   -2.9980    2.6780 C.ar  178  HIS178      0.1154
     82  CE1        3.3680   -5.1320    3.1310 C.ar  178  HIS178      0.1986
     83  NE2        3.0670   -3.9510    3.6440 N.ar  178  HIS178     -0.2212
     84  N         -0.8460   -4.4590    5.9390 N.3   181  SER181     -0.1202
     85  CA        -0.3810   -5.5950    6.7300 C.3   181  SER181      0.2020
     86  C         -1.5290   -6.1570    7.5330 C.2   181  SER181      0.2618
     87  O         -2.5090   -5.4450    7.7810 O.2   181  SER181     -0.2717
     88  CB         0.7890   -5.1840    7.6390 C.3   181  SER181      0.2103
     89  OG         1.4280   -6.3420    8.1560 O.3   181  SER181     -0.2182
     90  N         -1.3780   -7.4100    7.9530 N.am  182  GLN182     -0.1979
     91  CA        -2.4360   -8.1270    8.6390 C.3   182  GLN182      0.1601
     92  C         -3.7710   -7.9840    7.8630 C.2   182  GLN182      0.2287
     93  O         -4.8330   -7.6520    8.4390 O.2   182  GLN182     -0.2864
     94  CB        -2.5710   -7.6400   10.1120 C.3   182  GLN182      0.0394
     95  CG        -3.5190   -8.4090   11.0490 C.3   182  GLN182      0.0908
     96  CD        -3.2850   -9.8910   11.0460 C.2   182  GLN182      0.2608
     97  OE1       -2.2530  -10.3560   10.6170 O.2   182  GLN182     -0.2717
     98  NE2       -4.2710  -10.6570   11.5200 N.am  182  GLN182     -0.0878
     99  N          4.0700   -7.8590    0.8880 N.3   215  GLY215     -0.1210
    100  CA         3.5900   -8.8040    1.8840 C.3   215  GLY215      0.1956
    101  C          2.1730   -8.4110    2.2350 C.2   215  GLY215      0.2612
    102  O          1.4570   -7.8880    1.3790 O.2   215  GLY215     -0.2717
    103  N          1.7950   -8.6310    3.4960 N.am  216  GLY216     -0.1942
    104  CA         0.5400   -8.1210    4.0350 C.3   216  GLY216      0.2014
    105  C         -0.4320   -9.2030    4.4230 C.2   216  GLY216      0.2638
    106  O         -1.4950   -8.9290    4.9620 O.2   216  GLY216     -0.2714
    107  N         -0.1050  -10.4290    4.0980 N.am  217  LEU217     -0.1977
    108  CA        -1.0260  -11.4860    4.3580 C.3   217  LEU217      0.1596
    109  C         -1.0790  -11.7160    5.8480 C.2   217  LEU217      0.2287
    110  O         -0.0240  -11.8540    6.5050 O.2   217  LEU217     -0.2864
    111  CB        -0.6180  -12.7560    3.6320 C.3   217  LEU217      0.0297
    112  CG        -1.5350  -13.9650    3.8600 C.3   217  LEU217      0.0022
    113  CD1       -2.9470  -13.6910    3.3600 C.3   217  LEU217      0.0001
    114  CD2       -0.9730  -15.1940    3.1980 C.3   217  LEU217      0.0001
    115  N          6.9130  -10.6530   -0.6810 N.3   246  GLU246     -0.1231
    116  CA         7.6630  -10.1620    0.4510 C.3   246  GLU246      0.1684
    117  C          6.9840  -10.4660    1.8020 C.2   246  GLU246      0.2434
    118  O          6.7790   -9.5680    2.6040 O.2   246  GLU246     -0.2733
    119  CB         7.8150   -8.6500    0.3110 C.3   246  GLU246      0.0402
    120  CG         8.6060   -8.1900   -0.8830 C.3   246  GLU246      0.1161
    121  CD         8.6160   -6.6850   -1.0020 C.2   246  GLU246      0.3649
    122  OE1        7.7700   -6.0050   -0.3860 O.co2 246  GLU246     -0.2457
    123  OE2        9.4500   -6.1640   -1.7390 O.co2 246  GLU246     -0.2457
    124  N          6.6260  -11.7230    2.0590 N.am  247  PRO247     -0.2718
    125  CA         5.8800  -11.9330    3.2860 C.3   247  PRO247      0.1535
    126  C          6.7870  -11.8320    4.5350 C.2   247  PRO247      0.2599
    127  O          7.9460  -12.2510    4.5000 O.2   247  PRO247     -0.2715
    128  CB         5.3660  -13.3600    3.1200 C.3   247  PRO247      0.0310
    129  CG         6.4160  -14.0290    2.2810 C.3   247  PRO247      0.0237
    130  CD         6.8040  -12.9690    1.2940 C.3   247  PRO247      0.0939
    131  N          6.2390  -11.3210    5.6370 N.am  248  GLY248     -0.1941
    132  CA         6.9500  -11.3510    6.9080 C.3   248  GLY248      0.2014
    133  C          6.1560  -12.0720    7.9620 C.2   248  GLY248      0.2639
    134  O          6.4830  -13.1830    8.3870 O.2   248  GLY248     -0.2714
    135  N          5.0940  -11.4130    8.3820 N.am  249  ARG249     -0.1963
    136  CA         4.2130  -11.9190    9.4400 C.3   249  ARG249      0.1729
    137  C          3.7270  -13.3510    9.1830 C.2   249  ARG249      0.2616
    138  O          3.7800  -14.1920   10.0850 O.2   249  ARG249     -0.2715
    139  CB         3.0360  -10.9760    9.5790 C.3   249  ARG249      0.0348
    140  CG         2.1100  -11.3160   10.7070 C.3   249  ARG249      0.0492
    141  CD         0.9070  -10.4050   10.6040 C.3   249  ARG249      0.2205
    142  NE         1.0610   -9.4050   11.6270 N.pl3 249  ARG249     -0.0865
    143  CZ         1.2880   -8.1270   11.4850 C.cat 249  ARG249      0.5346
    144  NH1        1.4240   -7.4380   12.5960 N.pl3 249  ARG249      0.1354
    145  NH2        1.3690   -7.5290   10.3300 N.pl3 249  ARG249      0.1354
    146  N          3.3200  -13.6460    7.9400 N.am  250  ALA250     -0.1977
    147  CA         2.7180  -14.9490    7.6080 C.3   250  ALA250      0.1597
    148  C          3.7270  -16.0410    7.7800 C.2   250  ALA250      0.2287
    149  O          3.3880  -17.1680    8.1390 O.2   250  ALA250     -0.2864
    150  CB         2.1820  -14.9430    6.2220 C.3   250  ALA250      0.0319
    151  N          3.5630   -4.6570   20.7700 N.3   285  ARG285     -0.1245
    152  CA         2.3850   -4.7130   19.8840 C.3   285  ARG285      0.1563
    153  C          1.0970   -4.4120   20.6270 C.2   285  ARG285      0.2260
    154  O          0.3120   -3.5860   20.1820 O.2   285  ARG285     -0.2867
    155  CB         2.2750   -6.0350   19.1370 C.3   285  ARG285      0.0307
    156  CG         3.5570   -6.5090   18.4740 C.3   285  ARG285      0.0489
    157  CD         3.3490   -7.4950   17.3140 C.3   285  ARG285      0.2205
    158  NE         2.4470   -6.9530   16.3070 N.pl3 285  ARG285     -0.0865
    159  CZ         1.1640   -7.2670   16.1790 C.cat 285  ARG285      0.5346
    160  NH1        0.6120   -8.1860   16.9520 N.pl3 285  ARG285      0.1354
    161  NH2        0.4300   -6.6350   15.2520 N.pl3 285  ARG285      0.1354
    162  N         -0.4750   -0.9500   19.3060 N.3   289  TYR289     -0.1241
    163  CA        -1.5500   -1.1800   18.3800 C.3   289  TYR289      0.1605
    164  C         -2.8120   -1.7110   19.0290 C.2   289  TYR289      0.2264
    165  O         -3.7430   -2.0360   18.3060 O.2   289  TYR289     -0.2867
    166  CB        -1.1380   -2.2350   17.3380 C.3   289  TYR289      0.0534
    167  CG         0.1890   -2.0020   16.6490 C.ar  289  TYR289     -0.0201
    168  CD1        0.3580   -0.9710   15.7170 C.ar  289  TYR289     -0.0009
    169  CD2        1.2580   -2.8090   16.8990 C.ar  289  TYR289     -0.0009
    170  CE1        1.5790   -0.7480   15.1060 C.ar  289  TYR289      0.0417
    171  CE2        2.4710   -2.6130   16.2620 C.ar  289  TYR289      0.0417
    172  CZ         2.6230   -1.5680   15.3970 C.ar  289  TYR289      0.1957
    173  OH         3.8340   -1.4000   14.7960 O.3   289  TYR289     -0.2866
    174  N          7.5240   -8.9590   14.5470 N.3   348  TYR348     -0.1241
    175  CA         7.3710   -7.6360   15.1430 C.3   348  TYR348      0.1605
    176  C          7.3380   -7.7070   16.6720 C.2   348  TYR348      0.2264
    177  O          6.6480   -6.9370   17.3500 O.2   348  TYR348     -0.2867
    178  CB         6.1330   -6.9350   14.5600 C.3   348  TYR348      0.0534
    179  CG         6.1720   -6.9530   13.0770 C.ar  348  TYR348     -0.0201
    180  CD1        7.0730   -6.1670   12.3970 C.ar  348  TYR348     -0.0009
    181  CD2        5.3550   -7.8050   12.3490 C.ar  348  TYR348     -0.0009
    182  CE1        7.1400   -6.1920   11.0480 C.ar  348  TYR348      0.0417
    183  CE2        5.4090   -7.8270   10.9860 C.ar  348  TYR348      0.0417
    184  CZ         6.3190   -7.0180   10.3440 C.ar  348  TYR348      0.1957
    185  OH         6.4040   -7.0500    8.9560 O.3   348  TYR348     -0.2866
    186  N         10.9680   -4.9250   17.4800 N.3   352  MET352     -0.1245
    187  CA        10.5280   -3.6520   17.9930 C.3   352  MET352      0.1570
    188  C         10.9140   -3.4490   19.4600 C.2   352  MET352      0.2261
    189  O         10.4560   -2.4830   20.0870 O.2   352  MET352     -0.2867
    190  CB         9.0080   -3.5040   17.8580 C.3   352  MET352      0.0387
    191  CG         8.5090   -3.7860   16.4500 C.3   352  MET352      0.0595
    192  SD         6.7950   -3.3070   16.2140 S.3   352  MET352     -0.1393
    193  CE         6.9500   -1.5170   16.1740 C.3   352  MET352      0.0692
@<TRIPOS>BOND
     1    66    67    1
     2    67    68    1
     3    67    70    1
     4    69    68    2
     5    44    45    1
     6    70    71    1
     7    46    47    2
     8    46    45    1
     9    45    48    1
    10    42    41    2
    11    37    36    1
    12    37    38    1
    13    37    40    1
    14    71    72   ar
    15    71    73   ar
    16    38    39    2
    17    41    40    1
    18    41    43   am
    19    48    49    1
    20    49    50    1
    21    74    75    1
    22    50    51    1
    23   123   121   ar
    24    58    57    2
    25   121   120    1
    26   121   122   ar
    27    51    52    2
    28   120   119    1
    29    57    56    1
    30    75    76    1
    31    75    78    1
    32   115   116    1
    33    76    77    2
    34    30    31    1
    35    31    34    1
    36    31    32    1
    37    35    34    1
    38    78    79    1
    39   119   116    1
    40    52    53    1
    41    52    54    1
    42   116   117    1
    43    21    20   ar
    44    56    59    1
    45    56    55    1
    46    99   100    1
    47    32    33    2
    48    59    60    1
    49   130   124    1
    50   130   129    1
    51    20    19    1
    52    20    22   ar
    53    19    16    1
    54   102   101    2
    55    16    15    1
    56    16    17    1
    57    79    80   ar
    58    79    81   ar
    59   117   124   am
    60   117   118    2
    61    80    82   ar
    62   100   101    1
    63   124   125    1
    64   101   103   am
    65   129   128    1
    66    60    61   ar
    67    60    62   ar
    68    17    18    2
    69    81    83   ar
    70    61    63   ar
    71   128   125    1
    72    82    83   ar
    73   114   112    1
    74   125   126    1
    75   113   112    1
    76   103   104    1
    77    62    64   ar
    78   111   112    1
    79   111   108    1
    80   104   105    1
    81   107   108    1
    82   107   105   am
    83    63    65   ar
    84   108   109    1
    85    23    24    1
    86   105   106    2
    87    24    25    1
    88    24    27    1
    89   127   126    2
    90     1     2    1
    91   126   131   am
    92    28    27    1
    93    64    65   ar
    94    25    26    2
    95     2     5    1
    96     2     3    1
    97    27    29    1
    98   131   132    1
    99   109   110    2
   100    84    85    1
   101   150   147    1
   102     3     4    2
   103    85    86    1
   104    85    88    1
   105   132   133    1
   106    14    13    1
   107    12    13    1
   108    12    11    1
   109    86    87    2
   110    86    90   am
   111   147   148    1
   112   147   146    1
   113    88    89    1
   114   148   149    2
   115    92    93    2
   116    92    91    1
   117   146   137   am
   118    90    91    1
   119   133   135   am
   120   133   134    2
   121    11    10    1
   122   135   136    1
   123     6     7    1
   124    91    94    1
   125    10     7    1
   126   185   184    1
   127   137   136    1
   128   137   138    2
   129   136   139    1
   130     7     8    1
   131   139   140    1
   132    94    95    1
   133   145   143    1
   134   184   183   ar
   135   184   182   ar
   136     8     9    2
   137   141   140    1
   138   141   142    1
   139    97    96    2
   140   183   181   ar
   141    96    95    1
   142    96    98   am
   143   182   180   ar
   144   143   142    2
   145   143   144    1
   146   181   179   ar
   147   180   179   ar
   148   179   178    1
   149   174   175    1
   150   178   175    1
   151   173   172    1
   152   170   172   ar
   153   170   168   ar
   154   175   176    1
   155   161   159    1
   156   172   171   ar
   157   168   167   ar
   158   193   192    1
   159   159   158    2
   160   159   160    1
   161   192   191    1
   162   171   169   ar
   163   158   157    1
   164   191   190    1
   165   167   169   ar
   166   167   166    1
   167   176   177    2
   168   157   156    1
   169   166   163    1
   170   186   187    1
   171   190   187    1
   172   187   188    1
   173   165   164    2
   174   163   164    1
   175   163   162    1
   176   156   155    1
   177   155   152    1
   178   188   189    2
   179   152   153    1
   180   152   151    1
   181   154   153    2
