@<TRIPOS>MOLECULE
tmp/4xg3B00.pdb
 174 164 0 0 0
SMALL
GASTEIGER

@<TRIPOS>ATOM
      1  N         15.6060   22.5750   47.5590 N.3    15  LEU15      -0.1231
      2  CA        15.1380   21.3030   48.1030 C.3    15  LEU15       0.1693
      3  C         14.5430   21.5600   49.4800 C.2    15  LEU15       0.2593
      4  O         13.3460   21.3590   49.6850 O.2    15  LEU15      -0.2718
      5  CB        16.2850   20.2850   48.2030 C.3    15  LEU15       0.0284
      6  CG        16.9460   19.8100   46.9080 C.3    15  LEU15       0.0019
      7  CD1       18.0610   18.8260   47.2310 C.3    15  LEU15       0.0001
      8  CD2       15.9250   19.1950   45.9650 C.3    15  LEU15       0.0001
      9  N         15.3890   22.0080   50.4100 N.am   16  GLY16      -0.1942
     10  CA        14.9960   22.3410   51.7780 C.3    16  GLY16       0.2014
     11  C         15.3840   23.7720   52.1110 C.2    16  GLY16       0.2639
     12  O         15.7620   24.5510   51.2230 O.2    16  GLY16      -0.2714
     13  N         15.2820   24.1170   53.3950 N.am   17  SER17      -0.1949
     14  CA        15.5450   25.4800   53.8720 C.3    17  SER17       0.1924
     15  C         15.5900   25.5270   55.4000 C.2    17  SER17       0.2314
     16  O         14.9260   24.7340   56.0690 O.2    17  SER17      -0.2863
     17  CB        14.4700   26.4510   53.3590 C.3    17  SER17       0.2116
     18  OG        14.9900   27.7570   53.2600 O.3    17  SER17      -0.2180
     19  N         20.2580   28.3570   58.6110 N.3    20  PHE20      -0.1241
     20  CA        21.5290   28.5070   57.8670 C.3    20  PHE20       0.1605
     21  C         21.3570   29.1860   56.5010 C.2    20  PHE20       0.2264
     22  O         22.2010   29.9880   56.0910 O.2    20  PHE20      -0.2867
     23  CB        22.2310   27.1420   57.6810 C.3    20  PHE20       0.0534
     24  CG        21.3470   26.0700   57.0840 C.ar   20  PHE20      -0.0203
     25  CD1       20.6750   25.1640   57.9110 C.ar   20  PHE20      -0.0042
     26  CD2       21.1830   25.9600   55.7010 C.ar   20  PHE20      -0.0042
     27  CE1       19.8570   24.1830   57.3760 C.ar   20  PHE20      -0.0003
     28  CE2       20.3600   24.9780   55.1630 C.ar   20  PHE20      -0.0003
     29  CZ        19.7000   24.0880   56.0010 C.ar   20  PHE20      -0.0000
     30  N         19.1990   24.4800   51.0010 N.3    23  VAL23      -0.1245
     31  CA        19.8100   23.3390   50.3390 C.3    23  VAL23       0.1561
     32  C         19.2640   23.2910   48.9270 C.2    23  VAL23       0.2260
     33  O         18.0440   23.2820   48.7400 O.2    23  VAL23      -0.2867
     34  CB        19.5250   22.0120   51.0690 C.3    23  VAL23       0.0252
     35  CG1       20.1660   20.8390   50.3300 C.3    23  VAL23       0.0019
     36  CG2       20.0430   22.0920   52.4970 C.3    23  VAL23       0.0019
     37  N         23.8190   17.8580   46.1070 N.3    38  ALA38      -0.1245
     38  CA        23.0360   18.6820   47.0070 C.3    38  ALA38       0.1562
     39  C         24.0090   19.6700   47.6250 C.2    38  ALA38       0.2260
     40  O         25.0520   19.2690   48.1500 O.2    38  ALA38      -0.2867
     41  CB        22.3880   17.8270   48.0740 C.3    38  ALA38       0.0290
     42  N         24.5320   22.7610   50.3670 N.3    40  LYS40      -0.1245
     43  CA        24.0870   23.5470   51.5170 C.3    40  LYS40       0.1561
     44  C         24.6560   24.9610   51.3870 C.2    40  LYS40       0.2260
     45  O         25.8640   25.1460   51.4280 O.2    40  LYS40      -0.2867
     46  CB        24.5380   22.8990   52.8240 C.3    40  LYS40       0.0271
     47  CG        23.9660   23.5520   54.0720 C.3    40  LYS40       0.0035
     48  CD        24.1300   22.6590   55.2890 C.3    40  LYS40       0.0206
     49  CE        23.7470   23.4040   56.5570 C.3    40  LYS40       0.1093
     50  NZ        23.8380   22.5370   57.7600 N.3    40  LYS40      -0.1314
     51  N         31.0310   21.4450   60.0700 N.3    58  GLU58      -0.1245
     52  CA        30.2260   20.3930   59.4250 C.3    58  GLU58       0.1567
     53  C         30.9850   19.7420   58.2540 C.2    58  GLU58       0.2260
     54  O         30.9890   18.5190   58.1210 O.2    58  GLU58      -0.2867
     55  CB        28.8720   20.9750   58.9630 C.3    58  GLU58       0.0388
     56  CG        27.9470   20.0260   58.2080 C.3    58  GLU58       0.1160
     57  CD        26.6070   20.6560   57.8710 C.2    58  GLU58       0.3649
     58  OE1       26.4570   21.8830   58.0290 O.co2  58  GLU58      -0.2457
     59  OE2       25.6930   19.9250   57.4400 O.co2  58  GLU58      -0.2457
     60  N         26.3440   10.1730   54.1300 N.3    71  VAL71      -0.1245
     61  CA        26.3710   11.0750   52.9780 C.3    71  VAL71       0.1561
     62  C         27.7860   11.6140   52.7930 C.2    71  VAL71       0.2260
     63  O         28.4090   12.0760   53.7470 O.2    71  VAL71      -0.2867
     64  CB        25.3790   12.2500   53.1260 C.3    71  VAL71       0.0252
     65  CG1       25.6140   13.3180   52.0680 C.3    71  VAL71       0.0019
     66  CG2       23.9480   11.7570   53.0210 C.3    71  VAL71       0.0019
     67  N         27.5850   18.2310   48.5240 N.3    86  MET86      -0.1230
     68  CA        27.5170   16.8050   48.8500 C.3    86  MET86       0.1702
     69  C         26.8800   16.0420   47.7130 C.2    86  MET86       0.2592
     70  O         26.2020   16.6320   46.8760 O.2    86  MET86      -0.2718
     71  CB        26.6980   16.5960   50.1210 C.3    86  MET86       0.0401
     72  CG        27.3040   17.2630   51.3500 C.3    86  MET86       0.0596
     73  SD        26.0710   17.6560   52.5920 S.3    86  MET86      -0.1393
     74  CE        25.2230   19.0160   51.8010 C.3    86  MET86       0.0692
     75  N         27.0950   14.7280   47.6890 N.am   87  GLU87      -0.1966
     76  CA        26.4940   13.8730   46.6610 C.3    87  GLU87       0.1733
     77  C         24.9800   13.7680   46.8970 C.2    87  GLU87       0.2616
     78  O         24.5260   13.7040   48.0370 O.2    87  GLU87      -0.2715
     79  CB        27.1490   12.4920   46.6390 C.3    87  GLU87       0.0429
     80  CG        26.6930   11.5890   47.7670 C.3    87  GLU87       0.1163
     81  CD        27.4550   10.2930   47.8730 C.2    87  GLU87       0.3649
     82  OE1       27.9940    9.8220   46.8340 O.co2  87  GLU87      -0.2457
     83  OE2       27.4790    9.7640   49.0160 O.co2  87  GLU87      -0.2457
     84  N         24.2230   13.7530   45.8060 N.am   88  MET88      -0.1963
     85  CA        22.7660   13.7710   45.8430 C.3    88  MET88       0.1736
     86  C         22.2180   12.3790   46.1470 C.2    88  MET88       0.2616
     87  O         22.6370   11.3930   45.5380 O.2    88  MET88      -0.2715
     88  CB        22.2310   14.2560   44.4890 C.3    88  MET88       0.0427
     89  CG        20.7150   14.2120   44.3090 C.3    88  MET88       0.0599
     90  SD        19.7720   15.3050   45.3910 S.3    88  MET88      -0.1393
     91  CE        20.2550   16.8960   44.7400 C.3    88  MET88       0.0692
     92  N         21.2790   12.3150   47.0850 N.am   89  ALA89      -0.1963
     93  CA        20.4700   11.1230   47.3290 C.3    89  ALA89       0.1728
     94  C         19.0710   11.4900   46.8350 C.2    89  ALA89       0.2616
     95  O         18.3770   12.2740   47.4750 O.2    89  ALA89      -0.2715
     96  CB        20.4580   10.7790   48.8080 C.3    89  ALA89       0.0334
     97  N         18.6740   10.9280   45.6930 N.am   90  GLU90      -0.1963
     98  CA        17.5440   11.4490   44.9120 C.3    90  GLU90       0.1733
     99  C         16.1710   11.2770   45.5890 C.2    90  GLU90       0.2616
    100  O         15.3140   12.1530   45.4710 O.2    90  GLU90      -0.2715
    101  CB        17.5110   10.8080   43.5170 C.3    90  GLU90       0.0429
    102  CG        18.7740   10.9900   42.6620 C.3    90  GLU90       0.1163
    103  CD        18.8290   12.2740   41.8400 C.2    90  GLU90       0.3649
    104  OE1       19.8930   12.5200   41.2240 O.co2  90  GLU90      -0.2457
    105  OE2       17.8400   13.0300   41.7860 O.co2  90  GLU90      -0.2457
    106  N         15.9680   10.1660   46.2940 N.am   91  LEU91      -0.1963
    107  CA        14.6690    9.8690   46.9420 C.3    91  LEU91       0.1728
    108  C         14.3390   10.7490   48.1610 C.2    91  LEU91       0.2617
    109  O         13.1740   10.8580   48.5340 O.2    91  LEU91      -0.2715
    110  CB        14.5670    8.3820   47.3310 C.3    91  LEU91       0.0311
    111  CG        14.2310    7.3750   46.2200 C.3    91  LEU91       0.0022
    112  CD1       14.9430    7.6550   44.9020 C.3    91  LEU91       0.0001
    113  CD2       14.5490    5.9640   46.6960 C.3    91  LEU91       0.0001
    114  N         15.3540   11.3540   48.7790 N.am   92  GLY92      -0.1941
    115  CA        15.1390   12.3020   49.8710 C.3    92  GLY92       0.1998
    116  C         14.9200   11.6340   51.2210 C.2    92  GLY92       0.2480
    117  O         15.2170   10.4440   51.3640 O.2    92  GLY92      -0.2729
    118  N         14.3970   12.3950   52.2100 N.am   93  PRO93      -0.2726
    119  CA        14.2250   11.9330   53.5910 C.3    93  PRO93       0.1402
    120  C         13.3890   10.6650   53.7840 C.2    93  PRO93       0.2269
    121  O         12.4050   10.4500   53.0720 O.2    93  PRO93      -0.2865
    122  CB        13.5580   13.1250   54.2740 C.3    93  PRO93       0.0296
    123  CG        14.0590   14.3050   53.5330 C.3    93  PRO93       0.0237
    124  CD        14.1480   13.8430   52.1060 C.3    93  PRO93       0.0939
    125  N          9.6200   11.2710   54.9060 N.3    96  LYS96      -0.1245
    126  CA         8.8390   11.7590   53.7530 C.3    96  LYS96       0.1561
    127  C          8.5580   10.6470   52.7490 C.2    96  LYS96       0.2260
    128  O          7.4360   10.5100   52.2450 O.2    96  LYS96      -0.2867
    129  CB         9.5790   12.8840   53.0370 C.3    96  LYS96       0.0271
    130  CG         9.7870   14.1390   53.8720 C.3    96  LYS96       0.0035
    131  CD         8.5430   15.0190   53.9250 C.3    96  LYS96       0.0206
    132  CE         8.8900   16.4500   54.3200 C.3    96  LYS96       0.1093
    133  NZ         9.8420   17.0930   53.3620 N.3    96  LYS96      -0.1314
    134  N         14.1870   12.2660   59.3600 N.3   136  ARG136     -0.1231
    135  CA        14.4310   13.3330   58.3790 C.3   136  ARG136      0.1694
    136  C         15.8960   13.4420   57.9020 C.2   136  ARG136      0.2592
    137  O         16.1530   13.8560   56.7800 O.2   136  ARG136     -0.2718
    138  CB        13.9660   14.6920   58.9350 C.3   136  ARG136      0.0321
    139  CG        14.7080   15.1280   60.1850 C.3   136  ARG136      0.0489
    140  CD        14.3120   16.5040   60.6660 C.3   136  ARG136      0.2205
    141  NE        15.0140   16.8220   61.9130 N.pl3 136  ARG136     -0.0865
    142  CZ        14.7010   16.3520   63.1230 C.cat 136  ARG136      0.5346
    143  NH1       13.6780   15.5210   63.2950 N.pl3 136  ARG136      0.1354
    144  NH2       15.4200   16.7170   64.1820 N.pl3 136  ARG136      0.1354
    145  N         16.8390   13.0720   58.7660 N.am  137  ASN137     -0.1974
    146  CA        18.2670   13.0750   58.4480 C.3   137  ASN137      0.1688
    147  C         18.7950   11.7020   58.0280 C.2   137  ASN137      0.2292
    148  O         19.9890   11.4080   58.1860 O.2   137  ASN137     -0.2864
    149  CB        19.0430   13.6180   59.6470 C.3   137  ASN137      0.1181
    150  CG        18.6290   15.0380   60.0080 C.2   137  ASN137      0.2629
    151  OD1       18.0560   15.7550   59.1850 O.2   137  ASN137     -0.2716
    152  ND2       18.9380   15.4580   61.2270 N.am  137  ASN137     -0.0877
    153  N         18.6570    9.8440   54.3920 N.3   139  LEU139     -0.1245
    154  CA        18.2980   10.1370   53.0090 C.3   139  LEU139      0.1561
    155  C         18.4360    8.8770   52.1840 C.2   139  LEU139      0.2260
    156  O         19.4100    8.1340   52.3460 O.2   139  LEU139     -0.2867
    157  CB        19.1850   11.2570   52.4570 C.3   139  LEU139      0.0270
    158  CG        19.1590   12.5760   53.2340 C.3   139  LEU139      0.0019
    159  CD1       20.0670   13.5830   52.5530 C.3   139  LEU139      0.0001
    160  CD2       17.7510   13.1360   53.3490 C.3   139  LEU139      0.0001
    161  N         22.6150   11.8330   57.0950 N.3   149  SER149     -0.1202
    162  CA        22.9640   13.1790   56.6680 C.3   149  SER149      0.2020
    163  C         22.9940   14.1200   57.8640 C.2   149  SER149      0.2618
    164  O         22.8280   13.6940   59.0130 O.2   149  SER149     -0.2717
    165  CB        21.9500   13.6640   55.6260 C.3   149  SER149      0.2103
    166  OG        20.6850   13.9180   56.2130 O.3   149  SER149     -0.2182
    167  N         23.2280   15.3980   57.5670 N.am  150  ASP150     -0.1973
    168  CA        23.1100   16.5000   58.5100 C.3   150  ASP150      0.1709
    169  C         24.0260   16.3790   59.7200 C.2   150  ASP150      0.2293
    170  O         23.5920   16.0180   60.8210 O.2   150  ASP150     -0.2864
    171  CB        21.6610   16.6840   58.9380 C.3   150  ASP150      0.1436
    172  CG        20.8010   17.2030   57.8180 C.2   150  ASP150      0.3671
    173  OD1       20.4360   16.4220   56.9080 O.co2 150  ASP150     -0.2456
    174  OD2       20.4910   18.4080   57.8450 O.co2 150  ASP150     -0.2456
@<TRIPOS>BOND
     1   104   103   ar
     2   105   103   ar
     3   103   102    1
     4   102   101    1
     5   101    98    1
     6    89    88    1
     7    89    90    1
     8    88    85    1
     9    91    90    1
    10   112   111    1
    11    98    99    1
    12    98    97    1
    13   100    99    2
    14    87    86    2
    15    99   106   am
    16    97    94   am
    17    84    85    1
    18    84    77   am
    19    85    86    1
    20     8     6    1
    21    37    38    1
    22    86    92   am
    23   111   113    1
    24   111   110    1
    25   106   107    1
    26    79    76    1
    27    79    80    1
    28    76    77    1
    29    76    75    1
    30    82    81   ar
    31    94    93    1
    32    94    95    2
    33    70    69    2
    34    77    78    2
    35     6     7    1
    36     6     5    1
    37   107   110    1
    38   107   108    1
    39    38    39    1
    40    38    41    1
    41    92    93    1
    42    93    96    1
    43     1     2    1
    44    39    40    2
    45    75    69   am
    46    69    68    1
    47    80    81    1
    48    81    83   ar
    49     2     5    1
    50     2     3    1
    51   108   109    2
    52   108   114   am
    53    67    68    1
    54    33    32    2
    55   114   115    1
    56    68    71    1
    57    32    31    1
    58     3     4    2
    59     3     9   am
    60   115   116    1
    61    71    72    1
    62    35    34    1
    63    31    30    1
    64    31    34    1
    65    42    43    1
    66     9    10    1
    67    34    36    1
    68   116   117    2
    69   116   118   am
    70    12    11    2
    71    72    73    1
    72    44    45    2
    73    44    43    1
    74    43    46    1
    75    10    11    1
    76    74    73    1
    77    65    64    1
    78   124   118    1
    79   124   123    1
    80    11    13   am
    81   155   156    2
    82   155   154    1
    83   118   119    1
    84   128   127    2
    85   157   154    1
    86   157   158    1
    87   159   158    1
    88   127   126    1
    89    62    61    1
    90    62    63    2
    91    46    47    1
    92    61    64    1
    93    61    60    1
    94   154   153    1
    95    66    64    1
    96   129   126    1
    97   129   130    1
    98   121   120    2
    99   158   160    1
   100    18    17    1
   101    17    14    1
   102   133   132    1
   103    13    14    1
   104   123   122    1
   105   119   120    1
   106   119   122    1
   107   126   125    1
   108   130   131    1
   109    14    15    1
   110   131   132    1
   111    47    48    1
   112    28    26   ar
   113    28    29   ar
   114    48    49    1
   115    15    16    2
   116   165   166    1
   117   165   162    1
   118    26    24   ar
   119    29    27   ar
   120    22    21    2
   121    21    20    1
   122    49    50    1
   123   162   161    1
   124   162   163    1
   125   137   136    2
   126   173   172   ar
   127    24    23    1
   128    24    25   ar
   129    27    25   ar
   130    59    57   ar
   131   167   163   am
   132   167   168    1
   133    23    20    1
   134   172   174   ar
   135   172   171    1
   136   163   164    2
   137    20    19    1
   138    57    58   ar
   139    57    56    1
   140   136   135    1
   141   136   145   am
   142   147   148    2
   143   147   146    1
   144    54    53    2
   145    56    55    1
   146    53    52    1
   147   135   138    1
   148   135   134    1
   149   146   145    1
   150   146   149    1
   151   168   171    1
   152   168   169    1
   153   138   139    1
   154    55    52    1
   155   151   150    2
   156    52    51    1
   157   149   150    1
   158   169   170    2
   159   150   152   am
   160   139   140    1
   161   140   141    1
   162   141   142    2
   163   142   143    1
   164   142   144    1
