@<TRIPOS>MOLECULE
tmp/4xg4A00.pdb
 165 156 0 0 0
SMALL
GASTEIGER

@<TRIPOS>ATOM
      1  N         17.8560    2.6420    6.1060 N.3    15  LEU15      -0.1231
      2  CA        18.1610    2.0490    7.4040 C.3    15  LEU15       0.1693
      3  C         18.6220    0.5870    7.2460 C.2    15  LEU15       0.2593
      4  O         19.6010    0.1790    7.8770 O.2    15  LEU15      -0.2718
      5  CB        16.9310    2.2090    8.3110 C.3    15  LEU15       0.0284
      6  CG        16.7610    1.5080    9.6590 C.3    15  LEU15       0.0019
      7  CD1       15.6670    2.2280   10.4390 C.3    15  LEU15       0.0001
      8  CD2       16.4370    0.0210    9.4870 C.3    15  LEU15       0.0001
      9  N         17.9290   -0.1890    6.4060 N.am   16  GLY16      -0.1942
     10  CA        18.3080   -1.5850    6.1180 C.3    16  GLY16       0.2014
     11  C         17.7260   -2.1280    4.8190 C.2    16  GLY16       0.2639
     12  O         16.7430   -1.5950    4.3030 O.2    16  GLY16      -0.2714
     13  N         18.3380   -3.2030    4.3120 N.am   17  SER17      -0.1949
     14  CA        17.9810   -3.8260    3.0240 C.3    17  SER17       0.1924
     15  C         17.6920   -5.3220    3.1440 C.2    17  SER17       0.2314
     16  O         17.8740   -5.9220    4.2000 O.2    17  SER17      -0.2863
     17  CB        19.1040   -3.5920    2.0090 C.3    17  SER17       0.2116
     18  OG        18.8740   -2.3940    1.2940 O.3    17  SER17      -0.2180
     19  N         13.0900   -8.2730   -0.0350 N.3    20  PHE20      -0.1241
     20  CA        11.7560   -7.6390   -0.0870 C.3    20  PHE20       0.1605
     21  C         11.8200   -6.2040   -0.6410 C.2    20  PHE20       0.2264
     22  O         10.8780   -5.7320   -1.2810 O.2    20  PHE20      -0.2867
     23  CB        11.1200   -7.6210    1.3310 C.3    20  PHE20       0.0534
     24  CG        12.0600   -7.1450    2.4270 C.ar   20  PHE20      -0.0203
     25  CD1       12.7830   -8.0660    3.1940 C.ar   20  PHE20      -0.0042
     26  CD2       12.2490   -5.7820    2.6710 C.ar   20  PHE20      -0.0042
     27  CE1       13.6680   -7.6380    4.1740 C.ar   20  PHE20      -0.0003
     28  CE2       13.1280   -5.3510    3.6580 C.ar   20  PHE20      -0.0003
     29  CZ        13.8360   -6.2810    4.4100 C.ar   20  PHE20      -0.0000
     30  N         14.1360   -0.8880    4.3430 N.3    23  VAL23      -0.1245
     31  CA        13.4850   -0.2860    5.4990 C.3    23  VAL23       0.1561
     32  C         14.0610    1.1110    5.6500 C.2    23  VAL23       0.2260
     33  O         15.2690    1.2810    5.5340 O.2    23  VAL23      -0.2867
     34  CB        13.7270   -1.0970    6.7870 C.3    23  VAL23       0.0252
     35  CG1       13.0780   -0.4110    7.9950 C.3    23  VAL23       0.0019
     36  CG2       13.2010   -2.5210    6.6110 C.3    23  VAL23       0.0019
     37  N          9.5900    3.5030   11.5450 N.3    38  ALA38      -0.1245
     38  CA        10.3430    2.6390   10.6490 C.3    38  ALA38       0.1562
     39  C          9.3780    2.1250    9.5900 C.2    38  ALA38       0.2260
     40  O          8.3110    1.6010    9.9250 O.2    38  ALA38      -0.2867
     41  CB        10.9500    1.4860   11.4150 C.3    38  ALA38       0.0290
     42  N          8.9540   -0.3570    6.2950 N.3    40  LYS40      -0.1245
     43  CA         9.4080   -1.4250    5.4190 C.3    40  LYS40       0.1561
     44  C          8.7560   -1.2270    4.0560 C.2    40  LYS40       0.2260
     45  O          7.5370   -1.3570    3.9310 O.2    40  LYS40      -0.2867
     46  CB         9.0390   -2.7910    5.9980 C.3    40  LYS40       0.0271
     47  CG         9.5500   -3.9680    5.1800 C.3    40  LYS40       0.0035
     48  CD         9.2790   -5.2780    5.8870 C.3    40  LYS40       0.0206
     49  CE         9.7140   -6.4520    5.0360 C.3    40  LYS40       0.1093
     50  NZ         9.3710   -7.7370    5.6950 N.3    40  LYS40      -0.1314
     51  N          2.4620  -10.2770    7.2380 N.3    53  GLU53      -0.1245
     52  CA         3.2710   -9.6990    8.3140 C.3    53  GLU53       0.1567
     53  C          2.4630   -8.6370    9.0580 C.2    53  GLU53       0.2260
     54  O          2.2780   -8.7340   10.2660 O.2    53  GLU53      -0.2867
     55  CB         4.5680   -9.1140    7.7350 C.3    53  GLU53       0.0388
     56  CG         5.5640   -8.5640    8.7460 C.3    53  GLU53       0.1160
     57  CD         6.8980   -8.1880    8.1140 C.2    53  GLU53       0.3649
     58  OE1        7.0720   -8.3820    6.8930 O.co2  53  GLU53      -0.2457
     59  OE2        7.7880   -7.6940    8.8360 O.co2  53  GLU53      -0.2457
     60  N          7.3530   -4.8470   18.7060 N.3    66  VAL66      -0.1245
     61  CA         7.2720   -3.6650   17.8360 C.3    66  VAL66       0.1561
     62  C          5.8440   -3.4740   17.3120 C.2    66  VAL66       0.2260
     63  O          5.2580   -4.3980   16.7500 O.2    66  VAL66      -0.2867
     64  CB         8.2470   -3.7750   16.6500 C.3    66  VAL66       0.0252
     65  CG1        8.0020   -2.6760   15.6190 C.3    66  VAL66       0.0019
     66  CG2        9.6780   -3.7190   17.1580 C.3    66  VAL66       0.0019
     67  N          5.7950    1.0970   11.0630 N.3    81  MET81      -0.1230
     68  CA         5.9730    0.6370   12.4350 C.3    81  MET81       0.1702
     69  C          6.5830    1.7460   13.3050 C.2    81  MET81       0.2592
     70  O          7.2040    2.6770   12.7870 O.2    81  MET81      -0.2718
     71  CB         6.8840   -0.5830   12.4350 C.3    81  MET81       0.0401
     72  CG         6.3090   -1.7780   11.6750 C.3    81  MET81       0.0596
     73  SD         7.5750   -2.9560   11.1840 S.3    81  MET81      -0.1393
     74  CE         8.3640   -2.0770    9.8210 C.3    81  MET81       0.0692
     75  N          6.4080    1.6320   14.6230 N.am   82  GLU82      -0.1966
     76  CA         7.0380    2.5500   15.5620 C.3    82  GLU82       0.1733
     77  C          8.5560    2.3720   15.5150 C.2    82  GLU82       0.2616
     78  O          9.0420    1.2810   15.2150 O.2    82  GLU82      -0.2715
     79  CB         6.5270    2.3240   16.9870 C.3    82  GLU82       0.0429
     80  CG         7.1460    1.1160   17.6870 C.3    82  GLU82       0.1163
     81  CD         6.5110    0.7960   19.0250 C.2    82  GLU82       0.3649
     82  OE1        5.9680    1.7210   19.6820 O.co2  82  GLU82      -0.2457
     83  OE2        6.5610   -0.3970   19.4060 O.co2  82  GLU82      -0.2457
     84  N          9.2830    3.4390   15.8460 N.am   83  MET83      -0.1963
     85  CA        10.7380    3.4660   15.7490 C.3    83  MET83       0.1736
     86  C         11.4250    3.0590   17.0640 C.2    83  MET83       0.2616
     87  O         11.1330    3.5980   18.1300 O.2    83  MET83      -0.2715
     88  CB        11.2020    4.8560   15.2950 C.3    83  MET83       0.0427
     89  CG        12.7120    5.0410   15.1840 C.3    83  MET83       0.0599
     90  SD        13.5470    3.8960   14.0580 S.3    83  MET83      -0.1393
     91  CE        13.1140    4.5680   12.4630 C.3    83  MET83       0.0692
     92  N         12.3450    2.1000   16.9540 N.am   84  ALA84      -0.1963
     93  CA        13.2590    1.7080   18.0170 C.3    84  ALA84       0.1728
     94  C         14.6370    2.2680   17.6420 C.2    84  ALA84       0.2616
     95  O         15.3490    1.6740   16.8300 O.2    84  ALA84      -0.2715
     96  CB        13.3020    0.1880   18.1380 C.3    84  ALA84       0.0334
     97  N         15.0110    3.4000   18.2390 N.am   85  GLU85      -0.1963
     98  CA        16.1440    4.2020   17.7520 C.3    85  GLU85       0.1733
     99  C         17.5290    3.5340   17.8350 C.2    85  GLU85       0.2616
    100  O         18.3450    3.7160   16.9300 O.2    85  GLU85      -0.2715
    101  CB        16.1860    5.5650   18.4480 C.3    85  GLU85       0.0429
    102  CG        14.9880    6.4550   18.1580 C.3    85  GLU85       0.1163
    103  CD        14.9750    7.0820   16.7650 C.2    85  GLU85       0.3649
    104  OE1       13.9680    7.7610   16.4530 O.co2  85  GLU85      -0.2457
    105  OE2       15.9330    6.9130   15.9750 O.co2  85  GLU85      -0.2457
    106  N         17.7900    2.7800   18.9010 N.am   86  LEU86      -0.1963
    107  CA        19.0960    2.1100   19.0960 C.3    86  LEU86       0.1728
    108  C         19.3600    0.8780   18.2060 C.2    86  LEU86       0.2617
    109  O         20.5050    0.4390   18.1090 O.2    86  LEU86      -0.2715
    110  CB        19.3190    1.7380   20.5750 C.3    86  LEU86       0.0311
    111  CG        20.0460    2.7650   21.4470 C.3    86  LEU86       0.0022
    112  CD1       19.4270    4.1370   21.3040 C.3    86  LEU86       0.0001
    113  CD2       20.0160    2.3270   22.9040 C.3    86  LEU86       0.0001
    114  N         18.3350    0.3120   17.5720 N.am   87  GLY87      -0.1941
    115  CA        18.5540   -0.7320   16.5650 C.3    87  GLY87       0.1998
    116  C         18.8040   -2.1130   17.1490 C.2    87  GLY87       0.2480
    117  O         18.5660   -2.3370   18.3450 O.2    87  GLY87      -0.2729
    118  N         19.2770   -3.0620   16.3070 N.am   88  PRO88      -0.2726
    119  CA        19.4070   -4.4730   16.7100 C.3    88  PRO88       0.1402
    120  C         20.2440   -4.7200   17.9650 C.2    88  PRO88       0.2269
    121  O         21.2360   -4.0260   18.2040 O.2    88  PRO88      -0.2865
    122  CB        20.0660   -5.1260   15.4890 C.3    88  PRO88       0.0296
    123  CG        19.6370   -4.2920   14.3540 C.3    88  PRO88       0.0237
    124  CD        19.6260   -2.8870   14.8850 C.3    88  PRO88       0.0939
    125  N         19.4420  -10.2460   16.2800 N.3   131  ARG131     -0.1231
    126  CA        19.2230   -9.2460   15.2160 C.3   131  ARG131      0.1694
    127  C         17.7840   -8.7410   15.1200 C.2   131  ARG131      0.2592
    128  O         17.5400   -7.6330   14.6340 O.2   131  ARG131     -0.2718
    129  CB        19.6520   -9.7970   13.8520 C.3   131  ARG131      0.0321
    130  CG        18.7700  -10.9100   13.3140 C.3   131  ARG131      0.0489
    131  CD        19.3380  -11.4870   12.0400 C.3   131  ARG131      0.2205
    132  NE        18.5510  -12.6410   11.6190 N.pl3 131  ARG131     -0.0865
    133  CZ        18.7070  -13.8920   12.0580 C.cat 131  ARG131      0.5346
    134  NH1       19.6480  -14.2110   12.9410 N.pl3 131  ARG131      0.1354
    135  NH2       17.9100  -14.8500   11.5930 N.pl3 131  ARG131      0.1354
    136  N         16.8370   -9.5770   15.5400 N.am  132  ASN132     -0.1974
    137  CA        15.4130   -9.2500   15.5070 C.3   132  ASN132      0.1688
    138  C         14.8700   -8.8300   16.8690 C.2   132  ASN132      0.2292
    139  O         13.6710   -8.9490   17.1250 O.2   132  ASN132     -0.2864
    140  CB        14.6230  -10.4410   14.9380 C.3   132  ASN132      0.1181
    141  CG        14.9450  -10.7120   13.4840 C.2   132  ASN132      0.2629
    142  OD1       15.2570   -9.7990   12.7370 O.2   132  ASN132     -0.2716
    143  ND2       14.8490  -11.9640   13.0730 N.am  132  ASN132     -0.0877
    144  N         15.0640   -5.2350   18.8570 N.3   134  LEU134     -0.1245
    145  CA        15.4170   -3.8490   18.6060 C.3   134  LEU134      0.1561
    146  C         15.2800   -3.0570   19.8970 C.2   134  LEU134      0.2260
    147  O         14.3290   -3.2540   20.6590 O.2   134  LEU134     -0.2867
    148  CB        14.5190   -3.2690   17.5070 C.3   134  LEU134      0.0270
    149  CG        14.4410   -4.0700   16.1920 C.3   134  LEU134      0.0019
    150  CD1       13.5560   -3.3330   15.2040 C.3   134  LEU134      0.0001
    151  CD2       15.8170   -4.3210   15.5840 C.3   134  LEU134      0.0001
    152  N         11.0100   -7.7470   16.8380 N.3   144  SER144     -0.1202
    153  CA        10.6720   -7.2850   15.5050 C.3   144  SER144      0.2020
    154  C         10.6060   -8.4700   14.5500 C.2   144  SER144      0.2618
    155  O         10.8340   -9.6280   14.9420 O.2   144  SER144     -0.2717
    156  CB        11.7200   -6.2790   15.0190 C.3   144  SER144      0.2103
    157  OG        13.0100   -6.8740   14.9340 O.3   144  SER144     -0.2182
    158  N         10.2960   -8.1550   13.2950 N.am  145  ASP145     -0.1973
    159  CA        10.4730   -9.0470   12.1650 C.3   145  ASP145      0.1709
    160  C          9.5790  -10.2760   12.2620 C.2   145  ASP145      0.2293
    161  O         10.0480  -11.3770   12.5390 O.2   145  ASP145     -0.2864
    162  CB        11.9470   -9.4260   11.9740 C.3   145  ASP145      0.1436
    163  CG        12.7630   -8.2870   11.3980 C.2   145  ASP145      0.3671
    164  OD1       13.2030   -7.3930   12.1530 O.co2 145  ASP145     -0.2456
    165  OD2       12.9690   -8.2790   10.1690 O.co2 145  ASP145     -0.2456
@<TRIPOS>BOND
     1    22    21    2
     2    21    20    1
     3    20    19    1
     4    20    23    1
     5    18    17    1
     6    23    24    1
     7    17    14    1
     8    24    26   ar
     9    24    25   ar
    10    26    28   ar
    11    14    15    1
    12    14    13    1
    13    15    16    2
    14    25    27   ar
    15    28    29   ar
    16    45    44    2
    17    44    43    1
    18    27    29   ar
    19    12    11    2
    20    13    11   am
    21    30    31    1
    22    11    10    1
    23    49    50    1
    24    49    48    1
    25    47    48    1
    26    47    46    1
    27    43    46    1
    28    43    42    1
    29    31    32    1
    30    31    34    1
    31    33    32    2
    32     1     2    1
    33    10     9    1
    34     9     3   am
    35    36    34    1
    36    34    35    1
    37    58    57   ar
    38    51    52    1
    39     3     2    1
    40     3     4    2
    41     2     5    1
    42    55    52    1
    43    55    56    1
    44    57    56    1
    45    57    59   ar
    46     5     6    1
    47    52    53    1
    48    53    54    2
    49     8     6    1
    50    39    40    2
    51    39    38    1
    52     6     7    1
    53    74    73    1
    54   165   163   ar
    55    38    41    1
    56    38    37    1
    57    67    68    1
    58    73    72    1
    59   163   162    1
    60   163   164   ar
    61   135   133    1
    62   132   131    1
    63   132   133    2
    64    72    71    1
    65   162   159    1
    66   131   130    1
    67   133   134    1
    68   159   160    1
    69   159   158    1
    70   160   161    2
    71    68    71    1
    72    68    69    1
    73    91    90    1
    74   142   141    2
    75    70    69    2
    76   143   141   am
    77   158   154   am
    78    69    75   am
    79   130   129    1
    80   141   140    1
    81   129   126    1
    82    90    89    1
    83   123   124    1
    84   123   122    1
    85   154   155    2
    86   154   153    1
    87    75    76    1
    88   128   127    2
    89   124   118    1
    90   157   156    1
    91   140   137    1
    92   156   153    1
    93   127   126    1
    94   127   136   am
    95    89    88    1
    96   150   149    1
    97    78    77    2
    98   126   125    1
    99    88    85    1
   100   122   119    1
   101   153   152    1
   102   137   136    1
   103   137   138    1
   104    77    76    1
   105    77    84   am
   106    76    79    1
   107   151   149    1
   108    65    64    1
   109    85    84    1
   110    85    86    1
   111   105   103   ar
   112   149   148    1
   113   118   119    1
   114   118   116   am
   115   104   103   ar
   116   115   116    1
   117   115   114    1
   118    64    66    1
   119    64    61    1
   120   119   120    1
   121    63    62    2
   122   103   102    1
   123    95    94    2
   124   138   139    2
   125   100    99    2
   126    92    86   am
   127    92    93    1
   128    79    80    1
   129    86    87    2
   130   116   117    2
   131    62    61    1
   132   148   145    1
   133   114   108   am
   134    94    93    1
   135    94    97   am
   136    80    81    1
   137    98    99    1
   138    98    97    1
   139    98   101    1
   140    99   106   am
   141    61    60    1
   142   120   121    2
   143    93    96    1
   144   109   108    2
   145   102   101    1
   146   108   107    1
   147   145   144    1
   148   145   146    1
   149   106   107    1
   150    81    83   ar
   151    81    82   ar
   152   107   110    1
   153   146   147    2
   154   110   111    1
   155   112   111    1
   156   111   113    1
