@<TRIPOS>MOLECULE
tmp/4xg6A00.pdb
 159 150 0 0 0
SMALL
GASTEIGER

@<TRIPOS>ATOM
      1  N         -1.4030    1.9250   11.6800 N.3    15  LEU15      -0.1231
      2  CA        -1.7470    1.1520   10.4880 C.3    15  LEU15       0.1693
      3  C         -2.3350   -0.2000   10.8860 C.2    15  LEU15       0.2592
      4  O         -3.3180   -0.6500   10.2940 O.2    15  LEU15      -0.2718
      5  CB        -0.5180    0.9350    9.6100 C.3    15  LEU15       0.0284
      6  CG         0.1510    2.1910    9.0590 C.3    15  LEU15       0.0019
      7  CD1        1.4490    1.8260    8.3600 C.3    15  LEU15       0.0001
      8  CD2       -0.7810    2.9280    8.1110 C.3    15  LEU15       0.0001
      9  N         -1.7190   -0.8430   11.8790 N.am   16  GLY16      -0.1957
     10  CA        -2.2100   -2.1160   12.4200 C.3    16  GLY16       0.1869
     11  C         -1.5540   -2.5170   13.7360 C.2    16  GLY16       0.2309
     12  O         -0.4130   -2.1320   14.0210 O.2    16  GLY16      -0.2863
     13  N          3.0770   -7.8610   19.4990 N.3    20  PHE20      -0.1241
     14  CA         4.2760   -7.0390   19.7450 C.3    20  PHE20       0.1605
     15  C          3.9480   -5.6140   20.2120 C.2    20  PHE20       0.2264
     16  O          4.5580   -5.1080   21.1580 O.2    20  PHE20      -0.2867
     17  CB         5.1710   -6.9830   18.4780 C.3    20  PHE20       0.0534
     18  CG         4.4220   -6.6630   17.2070 C.ar   20  PHE20      -0.0203
     19  CD1        3.9440   -7.6870   16.3870 C.ar   20  PHE20      -0.0042
     20  CD2        4.1820   -5.3450   16.8340 C.ar   20  PHE20      -0.0042
     21  CE1        3.2310   -7.4020   15.2340 C.ar   20  PHE20      -0.0003
     22  CE2        3.4710   -5.0530   15.6780 C.ar   20  PHE20      -0.0003
     23  CZ         3.0000   -6.0830   14.8740 C.ar   20  PHE20      -0.0000
     24  N          2.0470   -0.8060   14.4860 N.3    23  VAL23      -0.1245
     25  CA         2.6890   -0.4950   13.2230 C.3    23  VAL23       0.1561
     26  C          2.1600    0.8620   12.7710 C.2    23  VAL23       0.2260
     27  O          0.9450    1.0540   12.6590 O.2    23  VAL23      -0.2867
     28  CB         2.3970   -1.5720   12.1660 C.3    23  VAL23       0.0252
     29  CG1        3.2560   -1.3530   10.9260 C.3    23  VAL23       0.0019
     30  CG2        2.6540   -2.9560   12.7450 C.3    23  VAL23       0.0019
     31  N          6.9000    2.6090    6.9700 N.3    38  ALA38      -0.1245
     32  CA         6.1040    1.8990    7.9610 C.3    38  ALA38       0.1562
     33  C          7.0560    1.4590    9.0770 C.2    38  ALA38       0.2260
     34  O          8.1630    0.9710    8.8070 O.2    38  ALA38      -0.2867
     35  CB         5.4290    0.6960    7.3280 C.3    38  ALA38       0.0290
     36  N          7.4810   -0.6890   12.7270 N.3    40  LYS40      -0.1245
     37  CA         7.0460   -1.6630   13.7250 C.3    40  LYS40       0.1561
     38  C          7.6120   -1.2170   15.0720 C.2    40  LYS40       0.2260
     39  O          8.8370   -1.2230   15.2570 O.2    40  LYS40      -0.2867
     40  CB         7.5520   -3.0610   13.3620 C.3    40  LYS40       0.0271
     41  CG         6.9940   -4.1630   14.2420 C.3    40  LYS40       0.0035
     42  CD         7.4290   -5.5380   13.7690 C.3    40  LYS40       0.0206
     43  CE         6.7990   -6.6170   14.6310 C.3    40  LYS40       0.1093
     44  NZ         7.1520   -8.0000   14.2170 N.3    40  LYS40      -0.1314
     45  N         14.3400  -10.3090   13.5130 N.3    58  GLU58      -0.1245
     46  CA        13.5080   -9.9710   12.3520 C.3    58  GLU58       0.1567
     47  C         14.2580   -8.9970   11.4410 C.2    58  GLU58       0.2260
     48  O         14.3880   -9.2410   10.2470 O.2    58  GLU58      -0.2867
     49  CB        12.1620   -9.3900   12.8230 C.3    58  GLU58       0.0388
     50  CG        11.1770   -8.9780   11.7310 C.3    58  GLU58       0.1160
     51  CD         9.8530   -8.4880   12.2900 C.2    58  GLU58       0.3649
     52  OE1        9.7090   -8.3820   13.5290 O.co2  58  GLU58      -0.2457
     53  OE2        8.9400   -8.1960   11.4930 O.co2  58  GLU58      -0.2457
     54  N          9.6770   -6.7650    1.1030 N.3    71  VAL71      -0.1245
     55  CA         9.7040   -5.4590    1.7860 C.3    71  VAL71       0.1561
     56  C         11.1200   -5.1210    2.2800 C.2    71  VAL71       0.2260
     57  O         11.8040   -5.9570    2.8800 O.2    71  VAL71      -0.2867
     58  CB         8.7120   -5.3960    2.9710 C.3    71  VAL71       0.0252
     59  CG1        8.8900   -4.1120    3.7750 C.3    71  VAL71       0.0019
     60  CG2        7.2750   -5.4940    2.4800 C.3    71  VAL71       0.0019
     61  N         10.6870    0.3510    7.8590 N.3    86  MET86      -0.1230
     62  CA        10.6180   -0.2420    6.5230 C.3    86  MET86       0.1702
     63  C         10.0590    0.7260    5.4830 C.2    86  MET86       0.2592
     64  O          9.3110    1.6350    5.8060 O.2    86  MET86      -0.2718
     65  CB         9.7340   -1.4800    6.5680 C.3    86  MET86       0.0401
     66  CG        10.2650   -2.5910    7.4580 C.3    86  MET86       0.0596
     67  SD         8.9550   -3.6880    8.0330 S.3    86  MET86      -0.1393
     68  CE         8.1170   -2.6360    9.2140 C.3    86  MET86       0.0692
     69  N         10.4520    0.5070    4.2380 N.am   87  GLU87      -0.1966
     70  CA         9.8600    1.1500    3.0660 C.3    87  GLU87       0.1733
     71  C          8.3470    0.9020    3.0700 C.2    87  GLU87       0.2616
     72  O          7.9040   -0.2330    3.2130 O.2    87  GLU87      -0.2715
     73  CB        10.5260    0.5470    1.8310 C.3    87  GLU87       0.0429
     74  CG        10.1070    1.0290    0.4620 C.3    87  GLU87       0.1163
     75  CD        10.7830    0.1960   -0.6220 C.2    87  GLU87       0.3649
     76  OE1       11.6400    0.7330   -1.3460 O.co2  87  GLU87      -0.2457
     77  OE2       10.4850   -1.0250   -0.7170 O.co2  87  GLU87      -0.2457
     78  N          7.5690    1.9780    2.9470 N.am   88  MET88      -0.1963
     79  CA         6.1010    1.9340    3.0560 C.3    88  MET88       0.1736
     80  C          5.4650    1.3700    1.7730 C.2    88  MET88       0.2616
     81  O          5.7620    1.8430    0.6840 O.2    88  MET88      -0.2715
     82  CB         5.5780    3.3610    3.3410 C.3    88  MET88       0.0427
     83  CG         4.0710    3.5690    3.3680 C.3    88  MET88       0.0599
     84  SD         3.2290    2.6350    4.6510 S.3    88  MET88      -0.1393
     85  CE         1.8140    3.6800    4.9830 C.3    88  MET88       0.0692
     86  N          4.6130    0.3540    1.9150 N.am   89  ALA89      -0.1963
     87  CA         3.7650   -0.1440    0.8430 C.3    89  ALA89       0.1728
     88  C          2.3770    0.3770    1.1890 C.2    89  ALA89       0.2616
     89  O          1.7550   -0.0890    2.1470 O.2    89  ALA89      -0.2715
     90  CB         3.7860   -1.6570    0.7930 C.3    89  ALA89       0.0334
     91  N          1.9080    1.3520    0.4110 N.am   90  GLU90      -0.1963
     92  CA         0.8350    2.2540    0.8440 C.3    90  GLU90       0.1733
     93  C         -0.5180    1.5480    0.9300 C.2    90  GLU90       0.2616
     94  O         -1.3080    1.8380    1.8280 O.2    90  GLU90      -0.2715
     95  CB         0.7100    3.4730   -0.0960 C.3    90  GLU90       0.0429
     96  CG         1.9950    4.2930   -0.3480 C.3    90  GLU90       0.1163
     97  CD         2.1830    5.5390    0.5310 C.2    90  GLU90       0.3649
     98  OE1        3.3110    6.1130    0.4990 O.co2  90  GLU90      -0.2457
     99  OE2        1.2270    5.9630    1.2270 O.co2  90  GLU90      -0.2457
    100  N         -0.7840    0.6320   -0.0060 N.am   91  LEU91      -0.1963
    101  CA        -2.0970   -0.0110   -0.1000 C.3    91  LEU91       0.1728
    102  C         -2.3460   -1.0700    0.9640 C.2    91  LEU91       0.2617
    103  O         -3.4960   -1.3930    1.2250 O.2    91  LEU91      -0.2715
    104  CB        -2.3360   -0.5960   -1.4950 C.3    91  LEU91       0.0311
    105  CG        -2.4490    0.3850   -2.6720 C.3    91  LEU91       0.0022
    106  CD1       -2.8200   -0.3800   -3.9360 C.3    91  LEU91       0.0001
    107  CD2       -3.4560    1.4920   -2.4020 C.3    91  LEU91       0.0001
    108  N         -1.2900   -1.6070    1.5710 N.am   92  GLY92      -0.1941
    109  CA        -1.4330   -2.4800    2.7410 C.3    92  GLY92       0.1998
    110  C         -1.7310   -3.9300    2.3990 C.2    92  GLY92       0.2480
    111  O         -1.5790   -4.3200    1.2390 O.2    92  GLY92      -0.2729
    112  N         -2.1500   -4.7360    3.4040 N.am   93  PRO93      -0.2726
    113  CA        -2.3180   -6.1920    3.2470 C.3    93  PRO93       0.1402
    114  C         -3.2590   -6.6360    2.1190 C.2    93  PRO93       0.2269
    115  O         -4.3640   -6.1080    1.9960 O.2    93  PRO93      -0.2865
    116  CB        -2.8820   -6.6320    4.6100 C.3    93  PRO93       0.0296
    117  CG        -2.4480   -5.5840    5.5660 C.3    93  PRO93       0.0237
    118  CD        -2.4730   -4.3070    4.7800 C.3    93  PRO93       0.0939
    119  N         -2.2520  -12.1230    4.5700 N.3   136  ARG136     -0.1231
    120  CA        -2.0730  -10.9980    5.4810 C.3   136  ARG136      0.1694
    121  C         -0.6400  -10.4350    5.5030 C.2   136  ARG136      0.2592
    122  O         -0.4310   -9.2910    5.8880 O.2   136  ARG136     -0.2718
    123  CB        -2.5310  -11.3690    6.9010 C.3   136  ARG136      0.0321
    124  CG        -1.6820  -12.4120    7.5890 C.3   136  ARG136      0.0489
    125  CD        -2.1960  -12.7750    8.9680 C.3   136  ARG136      0.2205
    126  NE        -1.3640  -13.8480    9.5150 N.pl3 136  ARG136     -0.0865
    127  CZ        -1.5290  -15.1500    9.2710 C.cat 136  ARG136      0.5346
    128  NH1       -2.5150  -15.5990    8.4980 N.pl3 136  ARG136      0.1354
    129  NH2       -0.6900  -16.0240    9.8070 N.pl3 136  ARG136      0.1354
    130  N          0.3320  -11.2450    5.1060 N.am  137  ASN137     -0.1974
    131  CA         1.7260  -10.8330    5.0170 C.3   137  ASN137      0.1688
    132  C          2.2010  -10.5940    3.5840 C.2   137  ASN137      0.2292
    133  O          3.3950  -10.6570    3.2970 O.2   137  ASN137     -0.2864
    134  CB         2.5930  -11.8800    5.7050 C.3   137  ASN137      0.1181
    135  CG         2.2640  -12.0190    7.1700 C.2   137  ASN137      0.2629
    136  OD1        1.6640  -11.1250    7.7670 O.2   137  ASN137     -0.2716
    137  ND2        2.6760  -13.1280    7.7670 N.am  137  ASN137     -0.0877
    138  N          1.8580   -7.4070    1.0570 N.3   139  LEU139     -0.1245
    139  CA         1.4880   -6.0010    1.0640 C.3   139  LEU139      0.1561
    140  C          1.5710   -5.4390   -0.3570 C.2   139  LEU139      0.2260
    141  O          2.4290   -5.8370   -1.1510 O.2   139  LEU139     -0.2867
    142  CB         2.4050   -5.2260    2.0080 C.3   139  LEU139      0.0270
    143  CG         2.4980   -5.7710    3.4380 C.3   139  LEU139      0.0019
    144  CD1        3.5100   -4.9490    4.2240 C.3   139  LEU139      0.0001
    145  CD2        1.1380   -5.8220    4.1350 C.3   139  LEU139      0.0001
    146  N          5.8850   -9.5710    3.2580 N.3   149  SER149     -0.1202
    147  CA         6.2320   -8.9200    4.5190 C.3   149  SER149      0.2020
    148  C          6.4230   -9.9500    5.6150 C.2   149  SER149      0.2618
    149  O          6.2780  -11.1440    5.3810 O.2   149  SER149     -0.2717
    150  CB         5.1150   -7.9600    4.9390 C.3   149  SER149      0.2103
    151  OG         4.0150   -8.6430    5.5530 O.3   149  SER149     -0.2182
    152  N          6.7400   -9.4380    6.8090 N.am  150  ASP150     -0.1973
    153  CA         6.7080  -10.1660    8.0890 C.3   150  ASP150      0.1709
    154  C          7.6580  -11.3580    8.1640 C.2   150  ASP150      0.2293
    155  O          7.2650  -12.4990    7.9040 O.2   150  ASP150     -0.2864
    156  CB         5.2720  -10.5780    8.4670 C.3   150  ASP150      0.1436
    157  CG         4.4830   -9.4360    9.1050 C.2   150  ASP150      0.3671
    158  OD1        4.1220   -8.4810    8.3750 O.co2 150  ASP150     -0.2456
    159  OD2        4.2300   -9.4960   10.3340 O.co2 150  ASP150     -0.2456
@<TRIPOS>BOND
     1   106   105    1
     2   105   107    1
     3   105   104    1
     4   104   101    1
     5    76    75   ar
     6   141   140    2
     7    77    75   ar
     8    75    74    1
     9   140   139    1
    10    96    95    1
    11    96    97    1
    12   101   100    1
    13   101   102    1
    14    95    92    1
    15   100    93   am
    16    91    92    1
    17    91    88   am
    18    74    73    1
    19    98    97   ar
    20    97    99   ar
    21    81    80    2
    22    90    87    1
    23    87    88    1
    24    87    86    1
    25    92    93    1
    26    93    94    2
    27   102   103    2
    28   102   108   am
    29   138   139    1
    30   139   142    1
    31    54    55    1
    32    88    89    2
    33   111   110    2
    34   108   109    1
    35    80    86   am
    36    80    79    1
    37    55    56    1
    38    55    58    1
    39    73    70    1
    40   115   114    2
    41   142   143    1
    42   114   113    1
    43    56    57    2
    44   110   109    1
    45   110   112   am
    46    60    58    1
    47    78    79    1
    48    78    71   am
    49    58    59    1
    50    79    82    1
    51    70    71    1
    52    70    69    1
    53    71    72    2
    54   113   112    1
    55   113   116    1
    56   146   147    1
    57   133   132    2
    58    82    83    1
    59    83    84    1
    60   112   118    1
    61   143   145    1
    62   143   144    1
    63   132   131    1
    64    69    63   am
    65   147   150    1
    66   147   148    1
    67   119   120    1
    68   116   117    1
    69    84    85    1
    70   118   117    1
    71   150   151    1
    72   131   130    1
    73   131   134    1
    74   130   121   am
    75   149   148    2
    76   120   121    1
    77   120   123    1
    78    63    64    2
    79    63    62    1
    80   121   122    2
    81   148   152   am
    82   134   135    1
    83    62    65    1
    84    62    61    1
    85    65    66    1
    86   152   153    1
    87   123   124    1
    88    31    32    1
    89   135   136    2
    90   135   137   am
    91    35    32    1
    92    66    67    1
    93   124   125    1
    94   155   154    2
    95    32    33    1
    96    67    68    1
    97   153   154    1
    98   153   156    1
    99     8     6    1
   100     7     6    1
   101   158   157   ar
   102   156   157    1
   103   128   127    1
   104    34    33    2
   105   125   126    1
   106     6     5    1
   107   157   159   ar
   108   127   126    2
   109   127   129    1
   110     5     2    1
   111    48    47    2
   112     4     3    2
   113     2     3    1
   114     2     1    1
   115     3     9   am
   116    29    28    1
   117    47    46    1
   118    53    51   ar
   119    50    51    1
   120    50    49    1
   121     9    10    1
   122    28    30    1
   123    28    25    1
   124    51    52   ar
   125    46    49    1
   126    46    45    1
   127    10    11    1
   128    27    26    2
   129    36    37    1
   130    26    25    1
   131    25    24    1
   132    40    37    1
   133    40    41    1
   134    37    38    1
   135    11    12    2
   136    42    41    1
   137    42    43    1
   138    44    43    1
   139    23    21   ar
   140    23    22   ar
   141    38    39    2
   142    21    19   ar
   143    22    20   ar
   144    19    18   ar
   145    20    18   ar
   146    18    17    1
   147    17    14    1
   148    13    14    1
   149    14    15    1
   150    15    16    2
