@<TRIPOS>MOLECULE
tmp/4xg7A00.pdb
 144 135 0 0 0
SMALL
GASTEIGER

@<TRIPOS>ATOM
      1  N         20.9560   67.0580    8.6960 N.3    14  LEU14      -0.1245
      2  CA        21.3170   66.4060    9.9570 C.3    14  LEU14       0.1561
      3  C         21.8770   65.0070    9.7020 C.2    14  LEU14       0.2260
      4  O         21.1580   64.1080    9.2630 O.2    14  LEU14      -0.2867
      5  CB        20.1020   66.3210   10.8850 C.3    14  LEU14       0.0270
      6  CG        19.5040   67.6590   11.3330 C.3    14  LEU14       0.0019
      7  CD1       18.1800   67.4600   12.0480 C.3    14  LEU14       0.0001
      8  CD2       20.4720   68.4190   12.2250 C.3    14  LEU14       0.0001
      9  N         17.3110   64.6300    6.0520 N.3    17  VAL17      -0.1245
     10  CA        16.6810   65.0890    7.2930 C.3    17  VAL17       0.1561
     11  C         17.2520   66.4660    7.6170 C.2    17  VAL17       0.2260
     12  O         18.4700   66.6300    7.6690 O.2    17  VAL17      -0.2867
     13  CB        16.9080   64.0980    8.4560 C.3    17  VAL17       0.0252
     14  CG1       16.3330   64.6420    9.7620 C.3    17  VAL17       0.0019
     15  CG2       16.2790   62.7500    8.1260 C.3    17  VAL17       0.0019
     16  N         12.5780   68.2050   13.5160 N.3    32  ALA32      -0.1245
     17  CA        13.4170   67.5310   12.5300 C.3    32  ALA32       0.1562
     18  C         12.4750   67.0630   11.4250 C.2    32  ALA32       0.2260
     19  O         11.3970   66.5320   11.7090 O.2    32  ALA32      -0.2867
     20  CB        14.1320   66.3500   13.1570 C.3    32  ALA32       0.0290
     21  N         12.0100   64.9180    7.8820 N.3    34  LYS34      -0.1245
     22  CA        12.4570   63.9380    6.8920 C.3    34  LYS34       0.1561
     23  C         11.8690   64.3810    5.5600 C.2    34  LYS34       0.2260
     24  O         10.6480   64.4020    5.4040 O.2    34  LYS34      -0.2867
     25  CB        11.9870   62.5270    7.2560 C.3    34  LYS34       0.0271
     26  CG        12.5010   61.4360    6.3220 C.3    34  LYS34       0.0035
     27  CD        12.1810   60.0460    6.8420 C.3    34  LYS34       0.0206
     28  CE        12.6060   58.9920    5.8340 C.3    34  LYS34       0.1093
     29  NZ        12.4700   57.6100    6.3510 N.3    34  LYS34      -0.1314
     30  N          5.2870   55.2610    6.9750 N.3    50  GLU50      -0.1245
     31  CA         6.0920   55.5960    8.1520 C.3    50  GLU50       0.1567
     32  C          5.3040   56.5310    9.0720 C.2    50  GLU50       0.2260
     33  O          5.2080   56.2950   10.2770 O.2    50  GLU50      -0.2867
     34  CB         7.4010   56.2520    7.7120 C.3    50  GLU50       0.0388
     35  CG         8.4070   56.5070    8.8200 C.3    50  GLU50       0.1160
     36  CD         9.7350   57.0230    8.2930 C.2    50  GLU50       0.3649
     37  OE1        9.9280   57.0870    7.0550 O.co2  50  GLU50      -0.2457
     38  OE2       10.5990   57.3740    9.1160 O.co2  50  GLU50      -0.2457
     39  N          9.9540   58.8530   19.3670 N.3    63  VAL63      -0.1245
     40  CA         9.8870   60.1490   18.6750 C.3    63  VAL63       0.1561
     41  C          8.4440   60.4470   18.2700 C.2    63  VAL63       0.2260
     42  O          7.7810   59.6050   17.6610 O.2    63  VAL63      -0.2867
     43  CB        10.7900   60.1980   17.4160 C.3    63  VAL63       0.0252
     44  CG1       10.5760   61.4910   16.6290 C.3    63  VAL63       0.0019
     45  CG2       12.2550   60.0810   17.8020 C.3    63  VAL63       0.0019
     46  N          8.7970   65.9730   12.7340 N.3    78  MET78      -0.1230
     47  CA         8.8760   65.3240   14.0480 C.3    78  MET78       0.1702
     48  C          9.4200   66.3030   15.0870 C.2    78  MET78       0.2592
     49  O         10.1450   67.2230   14.7410 O.2    78  MET78      -0.2718
     50  CB         9.7990   64.1060   13.9700 C.3    78  MET78       0.0401
     51  CG         9.3200   63.0010   13.0370 C.3    78  MET78       0.0596
     52  SD        10.6510   61.9130   12.4640 S.3    78  MET78      -0.1393
     53  CE        11.4990   62.9860   11.3100 C.3    78  MET78       0.0692
     54  N          9.0760   66.0840   16.3550 N.am   79  GLU79      -0.1966
     55  CA         9.7030   66.7990   17.4840 C.3    79  GLU79       0.1733
     56  C         11.2100   66.5460   17.4870 C.2    79  GLU79       0.2616
     57  O         11.6440   65.3940   17.4170 O.2    79  GLU79      -0.2715
     58  CB         9.0930   66.3280   18.8070 C.3    79  GLU79       0.0429
     59  CG         9.6710   66.9520   20.0720 C.3    79  GLU79       0.1163
     60  CD         8.8610   66.6090   21.3170 C.2    79  GLU79       0.3649
     61  OE1        8.7250   67.4880   22.1940 O.co2  79  GLU79      -0.2457
     62  OE2        8.3560   65.4690   21.4260 O.co2  79  GLU79      -0.2457
     63  N         11.9910   67.6230   17.5690 N.am   80  MET80      -0.1963
     64  CA        13.4560   67.5460   17.5140 C.3    80  MET80       0.1736
     65  C         14.0430   66.9180   18.7770 C.2    80  MET80       0.2616
     66  O         13.7810   67.3940   19.8790 O.2    80  MET80      -0.2715
     67  CB        14.0510   68.9510   17.3120 C.3    80  MET80       0.0427
     68  CG        15.5570   69.0700   17.4870 C.3    80  MET80       0.0599
     69  SD        16.4900   68.1020   16.2900 S.3    80  MET80      -0.1393
     70  CE        16.4770   69.2380   14.9270 C.3    80  MET80       0.0692
     71  N         14.8360   65.8620   18.6030 N.am   81  ALA81      -0.1963
     72  CA        15.6940   65.3300   19.6600 C.3    81  ALA81       0.1728
     73  C         17.0750   65.9020   19.3710 C.2    81  ALA81       0.2616
     74  O         17.7570   65.4460   18.4630 O.2    81  ALA81      -0.2715
     75  CB        15.7040   63.8080   19.6470 C.3    81  ALA81       0.0334
     76  N         17.4570   66.9300   20.1300 N.am   82  GLU82      -0.1963
     77  CA        18.5950   67.8060   19.7880 C.3    82  GLU82       0.1733
     78  C         19.9500   67.1310   19.6140 C.2    82  GLU82       0.2616
     79  O         20.7210   67.5020   18.7300 O.2    82  GLU82      -0.2715
     80  CB        18.7460   68.9100   20.8460 C.3    82  GLU82       0.0429
     81  CG        17.7500   70.0380   20.6820 C.3    82  GLU82       0.1163
     82  CD        18.1460   71.0490   19.6180 C.2    82  GLU82       0.3649
     83  OE1       17.3150   71.9070   19.3130 O.co2  82  GLU82      -0.2457
     84  OE2       19.2710   70.9960   19.0840 O.co2  82  GLU82      -0.2457
     85  N         20.2450   66.1650   20.4750 N.am   83  LEU83      -0.1963
     86  CA        21.5760   65.5710   20.5090 C.3    83  LEU83       0.1728
     87  C         21.8290   64.5050   19.4450 C.2    83  LEU83       0.2617
     88  O         22.9760   64.1820   19.1960 O.2    83  LEU83      -0.2715
     89  CB        21.8890   65.0390   21.9080 C.3    83  LEU83       0.0311
     90  CG        22.0380   66.1020   23.0020 C.3    83  LEU83       0.0022
     91  CD1       22.2920   65.4200   24.3340 C.3    83  LEU83       0.0001
     92  CD2       23.1510   67.0950   22.7020 C.3    83  LEU83       0.0001
     93  N         20.7770   63.9760   18.8170 N.am   84  GLY84      -0.1941
     94  CA        20.9380   63.0910   17.6620 C.3    84  GLY84       0.1998
     95  C         21.2350   61.6410   18.0110 C.2    84  GLY84       0.2480
     96  O         21.0350   61.2300   19.1610 O.2    84  GLY84      -0.2729
     97  N         21.7070   60.8510   17.0200 N.am   85  PRO85      -0.2726
     98  CA        21.8550   59.4030   17.2030 C.3    85  PRO85       0.1402
     99  C         22.7850   58.9870   18.3330 C.2    85  PRO85       0.2269
    100  O         23.8470   59.5930   18.5230 O.2    85  PRO85      -0.2865
    101  CB        22.4210   58.9370   15.8590 C.3    85  PRO85       0.0296
    102  CG        21.9200   59.9320   14.8850 C.3    85  PRO85       0.0237
    103  CD        21.9860   61.2350   15.6230 C.3    85  PRO85       0.0939
    104  N         21.9650   53.5860   15.9610 N.3   128  ARG128     -0.1231
    105  CA        21.7120   54.7180   15.0450 C.3   128  ARG128      0.1694
    106  C         20.2530   55.2240   15.0580 C.2   128  ARG128      0.2592
    107  O         20.0000   56.3650   14.6890 O.2   128  ARG128     -0.2718
    108  CB        22.1240   54.3670   13.6000 C.3   128  ARG128      0.0321
    109  CG        21.2630   53.2920   12.9590 C.3   128  ARG128      0.0489
    110  CD        21.7210   52.8500   11.5830 C.3   128  ARG128      0.2205
    111  NE        20.9520   51.6690   11.1880 N.pl3 128  ARG128     -0.0865
    112  CZ        21.2460   50.4150   11.5310 C.cat 128  ARG128      0.5346
    113  NH1       22.3100   50.1410   12.2660 N.pl3 128  ARG128      0.1354
    114  NH2       20.4700   49.4180   11.1340 N.pl3 128  ARG128      0.1354
    115  N         19.3130   54.3680   15.4610 N.am  129  ASN129     -0.1974
    116  CA        17.8950   54.7040   15.5170 C.3   129  ASN129      0.1688
    117  C         17.3860   54.9570   16.9440 C.2   129  ASN129      0.2292
    118  O         16.1940   54.8450   17.2290 O.2   129  ASN129     -0.2864
    119  CB        17.0940   53.5940   14.8260 C.3   129  ASN129      0.1181
    120  CG        17.3580   53.5380   13.3350 C.2   129  ASN129      0.2629
    121  OD1       17.7180   54.5450   12.7280 O.2   129  ASN129     -0.2716
    122  ND2       17.1810   52.3690   12.7360 N.am  129  ASN129     -0.0877
    123  N         17.6050   58.2470   19.3900 N.3   131  LEU131     -0.1245
    124  CA        17.9690   59.6690   19.3990 C.3   131  LEU131      0.1561
    125  C         17.9300   60.2240   20.8180 C.2   131  LEU131      0.2260
    126  O         17.0540   59.8740   21.6130 O.2   131  LEU131     -0.2867
    127  CB        17.0300   60.4750   18.5090 C.3   131  LEU131      0.0270
    128  CG        16.9310   60.0080   17.0570 C.3   131  LEU131      0.0019
    129  CD1       15.8670   60.8130   16.3460 C.3   131  LEU131      0.0001
    130  CD2       18.2640   60.1150   16.3430 C.3   131  LEU131      0.0001
    131  N         13.6430   56.0500   17.2140 N.3   141  SER141     -0.1202
    132  CA        13.2800   56.6900   15.9570 C.3   141  SER141      0.2020
    133  C         13.1630   55.6590   14.8260 C.2   141  SER141      0.2618
    134  O         13.3470   54.4590   15.0450 O.2   141  SER141     -0.2717
    135  CB        14.3310   57.7430   15.5970 C.3   141  SER141      0.2103
    136  OG        15.5470   57.1500   15.1800 O.3   141  SER141     -0.2182
    137  N         12.8350   56.1570   13.6350 N.am  142  ASP142     -0.1973
    138  CA        12.9370   55.4060   12.3680 C.3   142  ASP142      0.1709
    139  C         11.9990   54.2210   12.2610 C.2   142  ASP142      0.2293
    140  O         12.4060   53.0590   12.3450 O.2   142  ASP142     -0.2864
    141  CB        14.3840   54.9850   12.0760 C.3   142  ASP142      0.1436
    142  CG        15.2180   56.1280   11.5810 C.2   142  ASP142      0.3671
    143  OD1       15.5640   57.0130   12.3870 O.co2 142  ASP142     -0.2456
    144  OD2       15.5400   56.1520   10.3790 O.co2 142  ASP142     -0.2456
@<TRIPOS>BOND
     1    24    23    2
     2    23    22    1
     3    28    29    1
     4    28    27    1
     5     9    10    1
     6    26    27    1
     7    26    25    1
     8    22    25    1
     9    22    21    1
    10    30    31    1
    11    37    36   ar
    12    10    11    1
    13    10    13    1
    14    11    12    2
    15    34    31    1
    16    34    35    1
    17    15    13    1
    18    31    32    1
    19    36    35    1
    20    36    38   ar
    21    13    14    1
    22     1     2    1
    23    32    33    2
    24     4     3    2
    25     3     2    1
    26     2     5    1
    27   144   142   ar
    28     5     6    1
    29   114   112    1
    30   111   112    2
    31   111   110    1
    32    53    52    1
    33     6     7    1
    34     6     8    1
    35    18    19    2
    36    18    17    1
    37   112   113    1
    38   142   141    1
    39   142   143   ar
    40   110   109    1
    41   141   138    1
    42   139   140    2
    43   139   138    1
    44   138   137    1
    45    52    51    1
    46    17    20    1
    47    17    16    1
    48   121   120    2
    49    46    47    1
    50   122   120   am
    51   109   108    1
    52    51    50    1
    53   120   119    1
    54   108   105    1
    55   137   133   am
    56    50    47    1
    57    47    48    1
    58   107   106    2
    59    49    48    2
    60   133   134    2
    61   133   132    1
    62   119   116    1
    63   102   103    1
    64   102   101    1
    65    70    69    1
    66   105   106    1
    67   105   104    1
    68   106   115   am
    69    48    54   am
    70   136   135    1
    71   115   116    1
    72   116   117    1
    73   135   132    1
    74   103    97    1
    75   101    98    1
    76   132   131    1
    77    69    68    1
    78   130   128    1
    79   129   128    1
    80    54    55    1
    81    44    43    1
    82   117   118    2
    83    97    98    1
    84    97    95   am
    85   128   127    1
    86    98    99    1
    87    67    68    1
    88    67    64    1
    89    43    45    1
    90    43    40    1
    91    57    56    2
    92    55    56    1
    93    55    58    1
    94    56    63   am
    95    64    63    1
    96    64    65    1
    97    42    41    2
    98    94    95    1
    99    94    93    1
   100    95    96    2
   101    41    40    1
   102    99   100    2
   103    74    73    2
   104   127   124    1
   105    71    65   am
   106    71    72    1
   107    40    39    1
   108    79    78    2
   109    65    66    2
   110    58    59    1
   111    93    87   am
   112    84    82   ar
   113    88    87    2
   114    83    82   ar
   115    73    72    1
   116    73    76   am
   117   123   124    1
   118   124   125    1
   119    87    86    1
   120    78    77    1
   121    78    85   am
   122    82    81    1
   123    75    72    1
   124    77    76    1
   125    77    80    1
   126    59    60    1
   127    85    86    1
   128    86    89    1
   129    81    80    1
   130   125   126    2
   131    60    62   ar
   132    60    61   ar
   133    89    90    1
   134    92    90    1
   135    90    91    1
