@<TRIPOS>MOLECULE
tmp/4xg9B00.pdb
 120 113 0 0 0
SMALL
GASTEIGER

@<TRIPOS>ATOM
      1  N          1.6020   -3.3650  -47.1330 N.3    15  LEU15      -0.1231
      2  CA         2.2430   -2.3310  -46.3210 C.3    15  LEU15       0.1693
      3  C          2.9940   -2.9620  -45.1490 C.2    15  LEU15       0.2592
      4  O          4.1050   -2.5420  -44.8270 O.2    15  LEU15      -0.2718
      5  CB         1.2140   -1.3160  -45.8230 C.3    15  LEU15       0.0284
      6  CG         0.6180   -0.4390  -46.9290 C.3    15  LEU15       0.0019
      7  CD1       -0.5960    0.3180  -46.4140 C.3    15  LEU15       0.0001
      8  CD2        1.6560    0.5300  -47.4860 C.3    15  LEU15       0.0001
      9  N          2.3840   -3.9630  -44.5180 N.am   16  GLY16      -0.1957
     10  CA         3.0430   -4.7550  -43.4690 C.3    16  GLY16       0.1869
     11  C          2.3420   -6.0830  -43.2250 C.2    16  GLY16       0.2309
     12  O          1.4490   -6.4620  -43.9910 O.2    16  GLY16      -0.2863
     13  N         -1.9870   -6.2270  -44.6000 N.3    23  VAL23      -0.1245
     14  CA        -2.7040   -4.9660  -44.7620 C.3    23  VAL23       0.1561
     15  C         -2.2400   -4.3810  -46.0860 C.2    23  VAL23       0.2260
     16  O         -1.0360   -4.3790  -46.3620 O.2    23  VAL23      -0.2867
     17  CB        -2.3840   -3.9510  -43.6460 C.3    23  VAL23       0.0252
     18  CG1       -3.5190   -2.9450  -43.5110 C.3    23  VAL23       0.0019
     19  CG2       -2.1390   -4.6510  -42.3170 C.3    23  VAL23       0.0019
     20  N         -6.9630    1.6380  -46.9240 N.3    38  ALA38      -0.1245
     21  CA        -6.2130    0.4880  -46.4220 C.3    38  ALA38       0.1562
     22  C         -7.1940   -0.6690  -46.2500 C.2    38  ALA38       0.2260
     23  O         -8.3540   -0.4570  -45.8850 O.2    38  ALA38      -0.2867
     24  CB        -5.5330    0.8100  -45.1030 C.3    38  ALA38       0.0290
     25  N         -9.9980    5.7100  -36.7280 N.3    67  VAL67      -0.1245
     26  CA        -9.9990    5.3210  -38.1470 C.3    67  VAL67       0.1561
     27  C        -11.4230    4.9980  -38.6070 C.2    67  VAL67       0.2260
     28  O        -12.1420    4.2660  -37.9250 O.2    67  VAL67      -0.2867
     29  CB        -9.0670    4.1170  -38.4090 C.3    67  VAL67       0.0252
     30  CG1       -9.3160    3.5030  -39.7840 C.3    67  VAL67       0.0019
     31  CG2       -7.6160    4.5430  -38.2840 C.3    67  VAL67       0.0019
     32  N        -10.8420    0.0260  -44.7790 N.3    82  MET82      -0.1230
     33  CA       -10.8310    1.2670  -43.9930 C.3    82  MET82       0.1702
     34  C        -10.3050    2.4450  -44.8010 C.2    82  MET82       0.2592
     35  O         -9.5280    2.2670  -45.7310 O.2    82  MET82      -0.2718
     36  CB        -9.9490    1.0970  -42.7540 C.3    82  MET82       0.0401
     37  CG       -10.4180    0.0160  -41.7880 C.3    82  MET82       0.0596
     38  SD        -9.0850   -0.6460  -40.7750 S.3    82  MET82      -0.1393
     39  CE        -8.1280   -1.4970  -42.0280 C.3    82  MET82       0.0692
     40  N        -10.7290    3.6470  -44.4250 N.am   83  GLU83      -0.1966
     41  CA       -10.1410    4.8940  -44.9340 C.3    83  GLU83       0.1733
     42  C         -8.6270    4.9100  -44.6820 C.2    83  GLU83       0.2616
     43  O         -8.1880    4.6060  -43.5850 O.2    83  GLU83      -0.2715
     44  CB       -10.8160    6.0920  -44.2480 C.3    83  GLU83       0.0429
     45  CG       -10.2080    7.4630  -44.5100 C.3    83  GLU83       0.1163
     46  CD       -10.9860    8.5690  -43.8180 C.2    83  GLU83       0.3649
     47  OE1      -11.5640    9.4200  -44.5210 O.co2  83  GLU83      -0.2457
     48  OE2      -11.0310    8.5830  -42.5660 O.co2  83  GLU83      -0.2457
     49  N         -7.8450    5.2570  -45.7030 N.am   84  MET84      -0.1963
     50  CA        -6.3790    5.2190  -45.6320 C.3    84  MET84       0.1736
     51  C         -5.8400    6.4110  -44.8440 C.2    84  MET84       0.2616
     52  O         -6.1060    7.5590  -45.1940 O.2    84  MET84      -0.2715
     53  CB        -5.7610    5.2120  -47.0440 C.3    84  MET84       0.0427
     54  CG        -4.2380    5.3060  -47.0930 C.3    84  MET84       0.0599
     55  SD        -3.3720    3.8200  -46.5470 S.3    84  MET84      -0.1393
     56  CE        -2.7920    3.2130  -48.1220 C.3    84  MET84       0.0692
     57  N         -5.0920    6.1080  -43.7820 N.am   85  ALA85      -0.1963
     58  CA        -4.2340    7.0630  -43.0900 C.3    85  ALA85       0.1728
     59  C         -2.8420    6.8470  -43.6760 C.2    85  ALA85       0.2616
     60  O         -2.2200    5.8010  -43.4520 O.2    85  ALA85      -0.2715
     61  CB        -4.2440    6.8100  -41.5900 C.3    85  ALA85       0.0334
     62  N         -2.3640    7.8350  -44.4290 N.am   86  GLU86      -0.1963
     63  CA        -1.2460    7.6390  -45.3650 C.3    86  GLU86       0.1733
     64  C          0.1170    7.3620  -44.7160 C.2    86  GLU86       0.2616
     65  O          0.8070    6.4170  -45.1020 O.2    86  GLU86      -0.2715
     66  CB        -1.1310    8.8490  -46.2990 C.3    86  GLU86       0.0429
     67  CG        -2.3160    9.0120  -47.2490 C.3    86  GLU86       0.1163
     68  CD        -2.1410    8.3180  -48.5920 C.2    86  GLU86       0.3649
     69  OE1       -3.0200    8.5250  -49.4610 O.co2  86  GLU86      -0.2457
     70  OE2       -1.1440    7.5840  -48.7830 O.co2  86  GLU86      -0.2457
     71  N          0.4940    8.1810  -43.7340 N.am   87  LEU87      -0.1963
     72  CA         1.8290    8.0920  -43.1150 C.3    87  LEU87       0.1728
     73  C          2.0010    6.8500  -42.2310 C.2    87  LEU87       0.2617
     74  O          3.1250    6.5290  -41.8400 O.2    87  LEU87      -0.2715
     75  CB         2.1550    9.3570  -42.3080 C.3    87  LEU87       0.0311
     76  CG         2.5410   10.6480  -43.0480 C.3    87  LEU87       0.0022
     77  CD1        1.6850   10.9380  -44.2770 C.3    87  LEU87       0.0001
     78  CD2        2.4600   11.8120  -42.0750 C.3    87  LEU87       0.0001
     79  N          0.9000    6.1710  -41.9000 N.am   88  GLY88      -0.1941
     80  CA         0.9730    4.8620  -41.2740 C.3    88  GLY88       0.1998
     81  C          1.2600    4.9450  -39.7890 C.2    88  GLY88       0.2480
     82  O          0.9660    5.9720  -39.1680 O.2    88  GLY88      -0.2729
     83  N          1.8440    3.8670  -39.2120 N.am   89  PRO89      -0.2726
     84  CA         2.0240    3.8000  -37.7610 C.3    89  PRO89       0.1402
     85  C          2.8830    4.9220  -37.1610 C.2    89  PRO89       0.2269
     86  O          3.8360    5.4030  -37.7860 O.2    89  PRO89      -0.2865
     87  CB         2.6620    2.4180  -37.5430 C.3    89  PRO89       0.0296
     88  CG         2.2330    1.6240  -38.7200 C.3    89  PRO89       0.0237
     89  CD         2.2670    2.6080  -39.8510 C.3    89  PRO89       0.0939
     90  N          6.7540    3.8560  -36.2650 N.3    92  LYS92      -0.1245
     91  CA         7.6620    3.7750  -37.4090 C.3    92  LYS92       0.1561
     92  C          7.9670    5.1700  -37.9410 C.2    92  LYS92       0.2260
     93  O          9.1120    5.4750  -38.2640 O.2    92  LYS92      -0.2867
     94  CB         7.0950    2.8830  -38.5260 C.3    92  LYS92       0.0271
     95  CG         6.7590    1.4370  -38.1450 C.3    92  LYS92       0.0035
     96  CD         7.7880    0.7130  -37.2660 C.3    92  LYS92       0.0206
     97  CE         9.0580    0.2870  -38.0040 C.3    92  LYS92       0.1093
     98  NZ         9.9920    1.3880  -38.3900 N.3    92  LYS92      -0.1314
     99  N         -2.3030    5.6180  -36.1360 N.3   135  LEU135     -0.1245
    100  CA        -1.8720    5.9250  -37.5000 C.3   135  LEU135      0.1561
    101  C         -1.8790    7.4300  -37.7390 C.2   135  LEU135      0.2260
    102  O         -2.6260    8.1590  -37.0900 O.2   135  LEU135     -0.2867
    103  CB        -2.7910    5.2390  -38.5050 C.3   135  LEU135      0.0270
    104  CG        -2.8990    3.7190  -38.3510 C.3   135  LEU135      0.0019
    105  CD1       -4.0150    3.1970  -39.2300 C.3   135  LEU135      0.0001
    106  CD2       -1.5940    3.0150  -38.6820 C.3   135  LEU135      0.0001
    107  N         -6.2780    3.0960  -34.2230 N.3   145  SER145     -0.1202
    108  CA        -6.5380    1.9890  -35.1410 C.3   145  SER145      0.2020
    109  C         -6.7200    0.6660  -34.3870 C.2   145  SER145      0.2618
    110  O         -6.6980    0.6460  -33.1650 O.2   145  SER145     -0.2717
    111  CB        -5.3680    1.8710  -36.1250 C.3   145  SER145      0.2103
    112  OG        -4.2000    1.3530  -35.4970 O.3   145  SER145     -0.2182
    113  N         -6.9070   -0.4250  -35.1340 N.am  146  ASP146     -0.1973
    114  CA        -6.9180   -1.8000  -34.6020 C.3   146  ASP146      0.1709
    115  C         -7.8620   -2.0870  -33.4420 C.2   146  ASP146      0.2293
    116  O         -7.4240   -2.1780  -32.2900 O.2   146  ASP146     -0.2864
    117  CB        -5.5110   -2.2380  -34.1840 C.3   146  ASP146      0.1436
    118  CG        -4.5640   -2.3550  -35.3580 C.2   146  ASP146      0.3671
    119  OD1       -4.1470   -1.3080  -35.8970 O.co2 146  ASP146     -0.2456
    120  OD2       -4.2190   -3.4890  -35.7460 O.co2 146  ASP146     -0.2456
@<TRIPOS>BOND
     1    69    68   ar
     2    70    68   ar
     3    68    67    1
     4    56    55    1
     5     8     6    1
     6    67    66    1
     7     1     2    1
     8    54    53    1
     9    54    55    1
    10    53    50    1
    11     6     7    1
    12     6     5    1
    13    20    21    1
    14    21    22    1
    15    21    24    1
    16    16    15    2
    17     2     5    1
    18     2     3    1
    19    66    63    1
    20    22    23    2
    21    15    14    1
    22    35    34    2
    23    49    50    1
    24    49    42   am
    25    50    51    1
    26    63    64    1
    27    63    62    1
    28    52    51    2
    29     3     4    2
    30     3     9   am
    31    65    64    2
    32    41    42    1
    33    41    40    1
    34    41    44    1
    35    51    57   am
    36    34    40   am
    37    34    33    1
    38    32    33    1
    39    14    13    1
    40    14    17    1
    41    64    71   am
    42    42    43    2
    43    47    46   ar
    44     9    10    1
    45    45    44    1
    46    45    46    1
    47    62    59   am
    48    77    76    1
    49    33    36    1
    50    12    11    2
    51    46    48   ar
    52    57    58    1
    53    71    72    1
    54    59    60    2
    55    59    58    1
    56    17    18    1
    57    17    19    1
    58    10    11    1
    59    72    75    1
    60    72    73    1
    61    58    61    1
    62    76    75    1
    63    76    78    1
    64    36    37    1
    65    73    79   am
    66    73    74    2
    67    39    38    1
    68    79    80    1
    69    37    38    1
    70    80    81    1
    71    89    83    1
    72    89    88    1
    73    81    83   am
    74    81    82    2
    75    30    29    1
    76   105   104    1
    77    83    84    1
    78    88    87    1
    79   106   104    1
    80    27    26    1
    81    27    28    2
    82    94    95    1
    83    94    91    1
    84   103   104    1
    85   103   100    1
    86    29    31    1
    87    29    26    1
    88    98    97    1
    89    93    92    2
    90    26    25    1
    91    95    96    1
    92    97    96    1
    93    92    91    1
    94    86    85    2
    95    84    87    1
    96    84    85    1
    97   101   100    1
    98   101   102    2
    99   100    99    1
   100    91    90    1
   101   111   112    1
   102   111   108    1
   103   119   118   ar
   104   120   118   ar
   105   118   117    1
   106   108   109    1
   107   108   107    1
   108   113   114    1
   109   113   109   am
   110   114   117    1
   111   114   115    1
   112   109   110    2
   113   115   116    2
