@<TRIPOS>MOLECULE
tmp/4xgiA01.pdb
 114 104 0 0 0
SMALL
GASTEIGER

@<TRIPOS>ATOM
      1  N         50.5780   21.1080  114.6700 N.3    76  LYS76      -0.1231
      2  CA        51.5330   21.2810  115.7560 C.3    76  LYS76       0.1696
      3  C         51.4290   22.7030  116.2930 C.2    76  LYS76       0.2632
      4  O         51.4450   23.6620  115.5170 O.2    76  LYS76      -0.2714
      5  CB        52.9630   21.0060  115.2810 C.3    76  LYS76       0.0285
      6  CG        53.9690   20.8730  116.4050 C.3    76  LYS76       0.0035
      7  CD        54.0270   19.4210  116.8980 C.3    76  LYS76       0.0206
      8  CE        54.7890   19.2890  118.2190 C.3    76  LYS76       0.1093
      9  NZ        54.0840   19.9930  119.3520 N.3    76  LYS76      -0.1314
     10  N         51.3310   22.8460  117.6110 N.am   77  GLY77      -0.1718
     11  CA        51.3100   24.1690  118.2100 C.2    77  GLY77       0.1480
     12  C         50.8280   24.2150  119.6460 C.2    77  GLY77       0.2821
     13  O         50.0790   23.3430  120.0900 O.2    77  GLY77      -0.2669
     14  N         51.2240   25.2750  120.3520 N.am   78  GLY78      -0.1920
     15  CA        51.0310   25.3810  121.7850 C.3    78  GLY78       0.1872
     16  C         49.6070   25.6470  122.2350 C.2    78  GLY78       0.2310
     17  O         48.7020   25.8090  121.4170 O.2    78  GLY78      -0.2863
     18  N         51.9970   29.5700  113.4010 N.3    97  MET97      -0.1245
     19  CA        52.5570   28.2300  113.5170 C.3    97  MET97       0.1570
     20  C         52.7310   27.6010  112.1370 C.2    97  MET97       0.2261
     21  O         53.7660   27.0020  111.8570 O.2    97  MET97      -0.2867
     22  CB        51.6800   27.3360  114.3920 C.3    97  MET97       0.0387
     23  CG        51.8060   27.5900  115.8850 C.3    97  MET97       0.0595
     24  SD        53.4880   27.4290  116.5290 S.3    97  MET97      -0.1393
     25  CE        54.0110   25.8700  115.8590 C.3    97  MET97       0.0692
     26  N         55.7760   29.4750  110.5160 N.3   100  LYS100     -0.1245
     27  CA        57.1000   29.1620  111.0830 C.3   100  LYS100      0.1561
     28  C         57.5090   27.7070  110.8000 C.2   100  LYS100      0.2260
     29  O         58.6890   27.4280  110.5430 O.2   100  LYS100     -0.2867
     30  CB        57.1480   29.4520  112.6080 C.3   100  LYS100      0.0271
     31  CG        56.6620   28.3180  113.5330 C.3   100  LYS100      0.0035
     32  CD        56.7570   28.6820  115.0270 C.3   100  LYS100      0.0206
     33  CE        55.8970   29.9080  115.3690 C.3   100  LYS100      0.1093
     34  NZ        55.9640   30.3060  116.8210 N.3   100  LYS100     -0.1314
     35  N         46.8150   25.7850  117.0100 N.3   112  LYS112     -0.1245
     36  CA        46.9940   26.4500  118.2940 C.3   112  LYS112      0.1561
     37  C         45.7980   26.2070  119.1790 C.2   112  LYS112      0.2260
     38  O         44.6810   26.0390  118.6940 O.2   112  LYS112     -0.2867
     39  CB        47.2070   27.9670  118.1100 C.3   112  LYS112      0.0271
     40  CG        47.9840   28.6160  119.2500 C.3   112  LYS112      0.0035
     41  CD        49.4870   28.2690  119.2090 C.3   112  LYS112      0.0206
     42  CE        50.2870   29.2240  120.1020 C.3   112  LYS112      0.1093
     43  NZ        51.7710   29.0620  119.9390 N.3   112  LYS112     -0.1314
     44  N         51.4000   21.6930  122.8190 N.3   150  ALA150     -0.1231
     45  CA        52.6680   22.0400  123.4480 C.3   150  ALA150      0.1679
     46  C         52.4650   23.2240  124.4130 C.2   150  ALA150      0.2434
     47  O         51.3430   23.7540  124.5320 O.2   150  ALA150     -0.2733
     48  CB        53.7110   22.3790  122.3820 C.3   150  ALA150      0.0304
     49  N         53.5370   23.6560  125.1050 N.am  151  PRO151     -0.2718
     50  CA        53.3460   24.8640  125.9290 C.3   151  PRO151      0.1535
     51  C         53.2120   26.1740  125.1410 C.2   151  PRO151      0.2598
     52  O         53.5980   26.2640  123.9730 O.2   151  PRO151     -0.2715
     53  CB        54.6180   24.9130  126.7890 C.3   151  PRO151      0.0310
     54  CG        55.1680   23.5400  126.7740 C.3   151  PRO151      0.0237
     55  CD        54.7890   22.9460  125.4440 C.3   151  PRO151      0.0939
     56  N         52.6760   27.1850  125.8220 N.am  152  ASP152     -0.1972
     57  CA        52.6710   28.5790  125.3800 C.3   152  ASP152      0.1709
     58  C         52.5170   29.3870  126.6660 C.2   152  ASP152      0.2293
     59  O         52.9190   28.9050  127.7380 O.2   152  ASP152     -0.2864
     60  CB        51.5420   28.8550  124.3680 C.3   152  ASP152      0.1436
     61  CG        51.7630   30.1370  123.5740 C.2   152  ASP152      0.3671
     62  OD1       52.7050   30.1650  122.7470 O.co2 152  ASP152     -0.2456
     63  OD2       50.9980   31.1090  123.7790 O.co2 152  ASP152     -0.2456
     64  N         64.4090   20.6940  125.2640 N.3   192  ARG192     -0.1245
     65  CA        63.1210   21.2240  124.8210 C.3   192  ARG192      0.1563
     66  C         62.6970   22.4470  125.6160 C.2   192  ARG192      0.2260
     67  O         62.1830   23.4100  125.0550 O.2   192  ARG192     -0.2867
     68  CB        62.0170   20.1640  124.9170 C.3   192  ARG192      0.0307
     69  CG        60.5900   20.7190  124.6590 C.3   192  ARG192      0.0489
     70  CD        60.5090   21.4430  123.3110 C.3   192  ARG192      0.2205
     71  NE        59.2110   22.0780  123.0750 N.pl3 192  ARG192     -0.0865
     72  CZ        58.9600   23.3740  123.2350 C.cat 192  ARG192      0.5346
     73  NH1       59.9170   24.1980  123.6400 N.pl3 192  ARG192      0.1354
     74  NH2       57.7440   23.8490  122.9860 N.pl3 192  ARG192      0.1354
     75  N         63.3040   27.3160  122.8080 N.3   196  THR196     -0.1218
     76  CA        62.8360   28.5360  122.1500 C.3   196  THR196      0.1862
     77  C         63.7560   29.7030  122.4740 C.2   196  THR196      0.2287
     78  O         64.1930   30.4310  121.5720 O.2   196  THR196     -0.2866
     79  CB        61.4160   28.8900  122.5580 C.3   196  THR196      0.1770
     80  OG1       60.5460   27.7910  122.2440 O.3   196  THR196     -0.2211
     81  CG2       60.9510   30.1440  121.8050 C.3   196  THR196      0.0375
     82  N         55.1160   35.6100  119.7160 N.3   323  ASN323     -0.1240
     83  CA        54.3060   35.5920  118.5080 C.3   323  ASN323      0.1653
     84  C         53.6310   36.9550  118.3090 C.2   323  ASN323      0.2266
     85  O         53.0610   37.5230  119.2390 O.2   323  ASN323     -0.2867
     86  CB        53.2650   34.4670  118.5720 C.3   323  ASN323      0.1155
     87  CG        53.8820   33.0920  118.3920 C.2   323  ASN323      0.2627
     88  OD1       54.4020   32.7760  117.3240 O.2   323  ASN323     -0.2716
     89  ND2       53.8320   32.2680  119.4380 N.am  323  ASN323     -0.0877
     90  N         61.5650   32.3680  116.8220 N.3   348  ASN348     -0.1240
     91  CA        61.1020   31.5430  117.9310 C.3   348  ASN348      0.1653
     92  C         60.7630   30.1170  117.5270 C.2   348  ASN348      0.2266
     93  O         60.0820   29.4160  118.2510 O.2   348  ASN348     -0.2867
     94  CB        59.9130   32.1920  118.6470 C.3   348  ASN348      0.1155
     95  CG        58.6070   32.1970  117.8250 C.2   348  ASN348      0.2627
     96  OD1       58.3560   31.3380  116.9730 O.2   348  ASN348     -0.2716
     97  ND2       57.7500   33.1750  118.1180 N.am  348  ASN348     -0.0877
     98  N         61.5780   26.1150  119.5520 N.3   351  GLY351     -0.1210
     99  CA        60.7080   25.2240  120.2950 C.3   351  GLY351      0.1956
    100  C         60.1430   24.1020  119.4450 C.2   351  GLY351      0.2611
    101  O         60.2700   22.9290  119.7950 O.2   351  GLY351     -0.2717
    102  N         59.5300   24.4580  118.3190 N.am  352  VAL352     -0.1979
    103  CA        58.8980   23.4670  117.4600 C.3   352  VAL352      0.1595
    104  C         59.9490   22.5260  116.8670 C.2   352  VAL352      0.2287
    105  O         59.6760   21.3420  116.6130 O.2   352  VAL352     -0.2864
    106  CB        58.0600   24.1360  116.3390 C.3   352  VAL352      0.0276
    107  CG1       58.9540   24.7870  115.2760 C.3   352  VAL352      0.0022
    108  CG2       57.1020   23.1250  115.7280 C.3   352  VAL352      0.0022
    109  N         60.6090   20.2140  119.6390 N.3   355  SER355     -0.1217
    110  CA        59.3160   19.5330  119.7830 C.3   355  SER355      0.1889
    111  C         59.2410   18.3700  118.7950 C.2   355  SER355      0.2288
    112  O         58.7920   17.2690  119.1340 O.2   355  SER355     -0.2866
    113  CB        58.1450   20.4950  119.5440 C.3   355  SER355      0.2089
    114  OG        57.7100   21.0920  120.7530 O.3   355  SER355     -0.2183
@<TRIPOS>BOND
     1    26    27    1
     2    29    28    2
     3    28    27    1
     4    27    30    1
     5    21    20    2
     6    20    19    1
     7    30    31    1
     8    18    19    1
     9    19    22    1
    10    31    32    1
    11    22    23    1
    12     1     2    1
    13    32    33    1
    14   107   106    1
    15     5     2    1
    16     5     6    1
    17    33    34    1
    18     4     3    2
    19   108   106    1
    20     2     3    1
    21    25    24    1
    22    23    24    1
    23     3    10    1
    24   106   103    1
    25     6     7    1
    26   105   104    2
    27    90    91    1
    28   104   103    1
    29     7     8    1
    30    96    95    2
    31    35    36    1
    32    88    87    2
    33   103   102    1
    34    92    91    1
    35    92    93    2
    36    10    11    2
    37    95    97   am
    38    95    94    1
    39    91    94    1
    40    39    36    1
    41    39    40    1
    42    11    12    1
    43     8     9    1
    44    36    37    1
    45    84    83    1
    46    84    85    2
    47   102   100   am
    48    87    86    1
    49    87    89   am
    50    83    86    1
    51    83    82    1
    52    38    37    2
    53   111   112    2
    54   111   110    1
    55    41    40    1
    56    41    42    1
    57   100   101    2
    58   100    99    1
    59   113   110    1
    60   113   114    1
    61    98    99    1
    62   109   110    1
    63    12    13    2
    64    12    14   am
    65    43    42    1
    66    14    15    1
    67    17    16    2
    68    78    77    2
    69    15    16    1
    70    81    79    1
    71    76    77    1
    72    76    79    1
    73    76    75    1
    74    80    79    1
    75    48    45    1
    76    62    61   ar
    77    44    45    1
    78    74    72    1
    79    71    72    2
    80    71    70    1
    81    72    73    1
    82    70    69    1
    83    45    46    1
    84    61    63   ar
    85    61    60    1
    86    52    51    2
    87    60    57    1
    88    46    47    2
    89    46    49   am
    90    69    68    1
    91    65    68    1
    92    65    64    1
    93    65    66    1
    94    67    66    2
    95    49    55    1
    96    49    50    1
    97    51    56   am
    98    51    50    1
    99    57    56    1
   100    57    58    1
   101    55    54    1
   102    50    53    1
   103    58    59    2
   104    54    53    1
