@<TRIPOS>MOLECULE
tmp/4xgkA00.pdb
 124 119 0 0 0
SMALL
GASTEIGER

@<TRIPOS>ATOM
      1  N         34.3830   50.5740   51.1270 N.3    59  ALA59      -0.1245
      2  CA        34.5210   50.4220   52.5680 C.3    59  ALA59       0.1562
      3  C         34.8310   51.7580   53.2190 C.2    59  ALA59       0.2260
      4  O         35.6410   52.5220   52.7010 O.2    59  ALA59      -0.2867
      5  CB        35.6140   49.4070   52.8880 C.3    59  ALA59       0.0290
      6  N         45.8270   51.1920   40.4280 N.3   160  GLN160     -0.1231
      7  CA        44.9690   52.2670   40.8980 C.3   160  GLN160      0.1698
      8  C         44.8680   53.4040   39.9100 C.2   160  GLN160      0.2592
      9  O         43.7840   53.8750   39.6220 O.2   160  GLN160     -0.2718
     10  CB        45.4540   52.7690   42.2450 C.3   160  GLN160      0.0381
     11  CG        45.4450   51.6400   43.2470 C.3   160  GLN160      0.0905
     12  CD        45.0110   52.0660   44.6280 C.2   160  GLN160      0.2608
     13  OE1       45.7420   52.7720   45.3300 O.2   160  GLN160     -0.2717
     14  NE2       43.8050   51.6430   45.0310 N.am  160  GLN160     -0.0878
     15  N         45.9900   53.8290   39.3580 N.am  161  TRP161     -0.1976
     16  CA        45.9690   54.9700   38.4620 C.3   161  TRP161      0.1640
     17  C         45.9880   54.5800   36.9940 C.2   161  TRP161      0.2290
     18  O         45.9460   55.4420   36.1340 O.2   161  TRP161     -0.2864
     19  CB        47.1500   55.8850   38.7710 C.3   161  TRP161      0.0576
     20  CG        47.0590   56.5590   40.1100 C.ar  161  TRP161      0.0006
     21  CD1       48.0300   56.6080   41.0710 C.ar  161  TRP161      0.0946
     22  CD2       45.9410   57.3030   40.6290 C.ar  161  TRP161      0.0152
     23  NE1       47.5880   57.3260   42.1580 N.ar  161  TRP161     -0.2442
     24  CE2       46.3090   57.7620   41.9170 C.ar  161  TRP161      0.0810
     25  CE3       44.6630   57.6310   40.1290 C.ar  161  TRP161      0.0012
     26  CZ2       45.4410   58.5290   42.7210 C.ar  161  TRP161      0.0191
     27  CZ3       43.8000   58.3950   40.9310 C.ar  161  TRP161      0.0001
     28  CH2       44.1950   58.8310   42.2110 C.ar  161  TRP161      0.0015
     29  N         46.7980   51.1090   61.2620 N.3   186  TYR186     -0.1241
     30  CA        46.8030   51.7960   59.9780 C.3   186  TYR186      0.1605
     31  C         46.6180   53.3170   60.0890 C.2   186  TYR186      0.2264
     32  O         47.2550   54.0800   59.3680 O.2   186  TYR186     -0.2867
     33  CB        45.7210   51.1960   59.0940 C.3   186  TYR186      0.0534
     34  CG        45.7760   51.5900   57.6420 C.ar  186  TYR186     -0.0201
     35  CD1       46.4930   50.8420   56.7280 C.ar  186  TYR186     -0.0009
     36  CD2       45.0710   52.6880   57.1780 C.ar  186  TYR186     -0.0009
     37  CE1       46.5160   51.1780   55.3960 C.ar  186  TYR186      0.0417
     38  CE2       45.1060   53.0400   55.8500 C.ar  186  TYR186      0.0417
     39  CZ        45.8260   52.2820   54.9640 C.ar  186  TYR186      0.1957
     40  OH        45.8430   52.6390   53.6320 O.3   186  TYR186     -0.2866
     41  N         38.6060   58.6880   38.7010 N.3   256  ARG256     -0.1245
     42  CA        38.5920   57.2330   38.6750 C.3   256  ARG256      0.1563
     43  C         37.2700   56.7660   39.2780 C.2   256  ARG256      0.2260
     44  O         36.7640   57.3670   40.2300 O.2   256  ARG256     -0.2867
     45  CB        39.7620   56.6320   39.4650 C.3   256  ARG256      0.0307
     46  CG        41.0780   57.3380   39.3210 C.3   256  ARG256      0.0489
     47  CD        41.7180   57.0440   37.9810 C.3   256  ARG256      0.2205
     48  NE        41.8840   55.6130   37.7460 N.pl3 256  ARG256     -0.0865
     49  CZ        42.1390   55.0640   36.5570 C.cat 256  ARG256      0.5346
     50  NH1       42.2500   55.8240   35.4630 N.pl3 256  ARG256      0.1354
     51  NH2       42.2770   53.7440   36.4610 N.pl3 256  ARG256      0.1354
     52  N         35.2580   53.0580   40.8190 N.3   258  LEU258     -0.1245
     53  CA        35.5270   51.7220   41.3380 C.3   258  LEU258      0.1561
     54  C         34.3990   50.7550   41.0200 C.2   258  LEU258      0.2260
     55  O         33.2240   51.0950   41.1800 O.2   258  LEU258     -0.2867
     56  CB        35.7390   51.7660   42.8420 C.3   258  LEU258      0.0270
     57  CG        37.0200   52.4210   43.3400 C.3   258  LEU258      0.0019
     58  CD1       37.0250   52.4510   44.8650 C.3   258  LEU258      0.0001
     59  CD2       38.2350   51.6860   42.7770 C.3   258  LEU258      0.0001
     60  N         41.8770   45.3790   46.1690 N.3   287  ARG287     -0.1245
     61  CA        41.7180   44.7700   47.4880 C.3   287  ARG287      0.1563
     62  C         40.5690   43.7800   47.4820 C.2   287  ARG287      0.2260
     63  O         39.8050   43.7120   46.5270 O.2   287  ARG287     -0.2867
     64  CB        41.4550   45.8270   48.5680 C.3   287  ARG287      0.0307
     65  CG        42.1110   47.1400   48.3200 C.3   287  ARG287      0.0489
     66  CD        41.5370   48.2510   49.1530 C.3   287  ARG287      0.2205
     67  NE        42.0160   49.5270   48.6520 N.pl3 287  ARG287     -0.0865
     68  CZ        41.3180   50.6510   48.7220 C.cat 287  ARG287      0.5346
     69  NH1       40.1170   50.6360   49.2980 N.pl3 287  ARG287      0.1354
     70  NH2       41.8180   51.7810   48.2190 N.pl3 287  ARG287      0.1354
     71  N         37.6050   44.6700   44.5860 N.3   312  GLU312     -0.1245
     72  CA        37.5600   46.0640   44.1490 C.3   312  GLU312      0.1567
     73  C         38.4360   46.3020   42.9060 C.2   312  GLU312      0.2260
     74  O         39.5620   45.8200   42.8180 O.2   312  GLU312     -0.2867
     75  CB        37.9710   46.9670   45.3090 C.3   312  GLU312      0.0388
     76  CG        38.3050   48.3840   44.9650 C.3   312  GLU312      0.1160
     77  CD        38.9240   49.1280   46.1480 C.2   312  GLU312      0.3649
     78  OE1       38.4540   48.9270   47.2970 O.co2 312  GLU312     -0.2457
     79  OE2       39.8960   49.9000   45.9220 O.co2 312  GLU312     -0.2457
     80  N         39.7730   49.2420   39.9110 N.3   314  SER314     -0.1217
     81  CA        39.9530   50.6450   39.5700 C.3   314  SER314      0.1889
     82  C         39.8480   50.8580   38.0640 C.2   314  SER314      0.2288
     83  O         40.3040   50.0490   37.2630 O.2   314  SER314     -0.2866
     84  CB        41.3030   51.1520   40.0930 C.3   314  SER314      0.2089
     85  OG        41.5380   52.4940   39.7220 O.3   314  SER314     -0.2183
     86  N         37.5720   59.1630   42.8510 N.3   325  TYR325     -0.1228
     87  CA        38.8400   59.8340   43.1410 C.3   325  TYR325      0.1721
     88  C         39.2430   60.7600   42.0020 C.2   325  TYR325      0.2437
     89  O         39.2510   60.3520   40.8380 O.2   325  TYR325     -0.2733
     90  CB        39.9540   58.8040   43.4080 C.3   325  TYR325      0.0547
     91  CG        39.5710   57.7970   44.4690 C.ar  325  TYR325     -0.0200
     92  CD1       39.4870   58.1780   45.8010 C.ar  325  TYR325     -0.0009
     93  CD2       39.2650   56.4810   44.1420 C.ar  325  TYR325     -0.0009
     94  CE1       39.1240   57.2860   46.7800 C.ar  325  TYR325      0.0417
     95  CE2       38.8990   55.5730   45.1210 C.ar  325  TYR325      0.0417
     96  CZ        38.8340   55.9860   46.4450 C.ar  325  TYR325      0.1957
     97  OH        38.4840   55.1160   47.4500 O.3   325  TYR325     -0.2866
     98  N         39.5640   62.0220   42.3370 N.am  326  PRO326     -0.2729
     99  CA        40.0360   62.9900   41.3380 C.3   326  PRO326      0.1401
    100  C         41.4130   62.6170   40.7880 C.2   326  PRO326      0.2269
    101  O         42.3440   62.3360   41.5400 O.2   326  PRO326     -0.2865
    102  CB        40.0710   64.3070   42.1130 C.3   326  PRO326      0.0296
    103  CG        40.1050   63.9060   43.5660 C.3   326  PRO326      0.0237
    104  CD        39.3730   62.6270   43.6680 C.3   326  PRO326      0.0939
    105  N         43.4600   64.5300   38.6310 N.3   328  ASN328     -0.1240
    106  CA        44.3960   65.6610   38.6260 C.3   328  ASN328      0.1653
    107  C         45.5340   65.5990   37.6030 C.2   328  ASN328      0.2266
    108  O         46.6790   65.9130   37.9360 O.2   328  ASN328     -0.2867
    109  CB        45.0330   65.8440   40.0030 C.3   328  ASN328      0.1155
    110  CG        44.0480   66.2870   41.0510 C.2   328  ASN328      0.2627
    111  OD1       43.4990   67.3890   40.9810 O.2   328  ASN328     -0.2716
    112  ND2       43.8290   65.4360   42.0530 N.am  328  ASN328     -0.0877
    113  N         39.2580   64.6290   47.0520 N.3   363  TYR363     -0.1241
    114  CA        38.9350   63.5240   47.9520 C.3   363  TYR363      0.1605
    115  C         38.9300   64.0000   49.4020 C.2   363  TYR363      0.2264
    116  O         39.8910   64.6210   49.8640 O.2   363  TYR363     -0.2867
    117  CB        39.9140   62.3440   47.8180 C.3   363  TYR363      0.0534
    118  CG        39.5900   61.2430   48.8260 C.ar  363  TYR363     -0.0201
    119  CD1       38.4820   60.4070   48.6460 C.ar  363  TYR363     -0.0009
    120  CD2       40.3510   61.0730   49.9820 C.ar  363  TYR363     -0.0009
    121  CE1       38.1550   59.4100   49.5770 C.ar  363  TYR363      0.0417
    122  CE2       40.0320   60.0800   50.9190 C.ar  363  TYR363      0.0417
    123  CZ        38.9320   59.2510   50.7120 C.ar  363  TYR363      0.1957
    124  OH        38.6150   58.2610   51.6320 O.3   363  TYR363     -0.2866
@<TRIPOS>BOND
     1    50    49    1
     2    18    17    2
     3    51    49    1
     4    49    48    2
     5    17    16    1
     6    83    82    2
     7   107   108    2
     8   107   106    1
     9    48    47    1
    10    47    46    1
    11    82    81    1
    12    16    19    1
    13    16    15    1
    14   106   105    1
    15   106   109    1
    16    42    41    1
    17    42    43    1
    18    42    45    1
    19    19    20    1
    20    43    44    2
    21    46    45    1
    22    15     8   am
    23    81    80    1
    24    81    84    1
    25     9     8    2
    26    85    84    1
    27     8     7    1
    28   109   110    1
    29    20    22   ar
    30    20    21   ar
    31    25    22   ar
    32    25    27   ar
    33     6     7    1
    34    22    24   ar
    35   100    99    1
    36   100   101    2
    37    52    53    1
    38    89    88    2
    39     7    10    1
    40    27    28   ar
    41   111   110    2
    42    54    55    2
    43    54    53    1
    44   110   112   am
    45    21    23   ar
    46    99   102    1
    47    99    98    1
    48    53    56    1
    49    24    23   ar
    50    24    26   ar
    51    88    98   am
    52    88    87    1
    53   102   103    1
    54    28    26   ar
    55    10    11    1
    56    98   104    1
    57    59    57    1
    58    74    73    2
    59    56    57    1
    60    86    87    1
    61    73    72    1
    62    87    90    1
    63    11    12    1
    64    57    58    1
    65    90    91    1
    66   103   104    1
    67    93    91   ar
    68    93    95   ar
    69    72    71    1
    70    72    75    1
    71    91    92   ar
    72    12    14   am
    73    12    13    2
    74    76    75    1
    75    76    77    1
    76    95    96   ar
    77    92    94   ar
    78    79    77   ar
    79    77    78   ar
    80    60    61    1
    81    96    94   ar
    82    96    97    1
    83    63    62    2
    84   113   114    1
    85    62    61    1
    86    61    64    1
    87   117   114    1
    88   117   118    1
    89   114   115    1
    90    70    68    1
    91    65    64    1
    92    65    66    1
    93   119   118   ar
    94   119   121   ar
    95    67    68    2
    96    67    66    1
    97    68    69    1
    98   118   120   ar
    99   115   116    2
   100   121   123   ar
   101   120   122   ar
   102   123   122   ar
   103   123   124    1
   104     1     2    1
   105     2     5    1
   106     2     3    1
   107     4     3    2
   108    40    39    1
   109    39    37   ar
   110    39    38   ar
   111    37    35   ar
   112    38    36   ar
   113    35    34   ar
   114    36    34   ar
   115    34    33    1
   116    33    30    1
   117    32    31    2
   118    30    31    1
   119    30    29    1
