@<TRIPOS>MOLECULE
tmp/4xgoA00.pdb
 81 74 0 0 0
SMALL
GASTEIGER

@<TRIPOS>ATOM
      1  N         14.7220   11.4380   64.8630 N.3   100  ASN100     -0.1240
      2  CA        15.2440   11.5410   66.2200 C.3   100  ASN100      0.1653
      3  C         14.4230   10.7610   67.2430 C.2   100  ASN100      0.2266
      4  O         14.1340   11.2440   68.3340 O.2   100  ASN100     -0.2867
      5  CB        15.3800   13.0230   66.6090 C.3   100  ASN100      0.1155
      6  CG        16.3940   13.7600   65.7540 C.2   100  ASN100      0.2627
      7  OD1       16.0730   14.3100   64.6920 O.2   100  ASN100     -0.2716
      8  ND2       17.6380   13.7150   66.1700 N.am  100  ASN100     -0.0877
      9  N          9.8890   11.4770   56.8800 N.3   121  GLN121     -0.1245
     10  CA        11.1060   11.8960   57.5670 C.3   121  GLN121      0.1566
     11  C         11.3870   10.9190   58.6900 C.2   121  GLN121      0.2260
     12  O         10.6080   10.8370   59.6530 O.2   121  GLN121     -0.2867
     13  CB        10.9160   13.2900   58.1490 C.3   121  GLN121      0.0367
     14  CG        10.6120   14.3540   57.1150 C.3   121  GLN121      0.0905
     15  CD        11.7660   14.5780   56.1870 C.2   121  GLN121      0.2608
     16  OE1       12.8950   14.8190   56.6330 O.2   121  GLN121     -0.2717
     17  NE2       11.5040   14.4970   54.8750 N.am  121  GLN121     -0.0878
     18  N         14.9260   10.4480   59.6640 N.3   123  SER123     -0.1202
     19  CA        16.3410   10.6260   59.9380 C.3   123  SER123      0.2020
     20  C         16.6450   10.4420   61.4300 C.2   123  SER123      0.2619
     21  O         15.8020   10.6650   62.2790 O.2   123  SER123     -0.2717
     22  CB        16.8150   11.9970   59.4630 C.3   123  SER123      0.2103
     23  OG        16.2710   13.0090   60.2830 O.3   123  SER123     -0.2182
     24  N         17.8680    9.9980   61.7220 N.am  124  SER124     -0.1951
     25  CA        18.3810    9.9520   63.0900 C.3   124  SER124      0.1924
     26  C         17.5690    9.0120   63.9770 C.2   124  SER124      0.2314
     27  O         17.1340    9.3720   65.0660 O.2   124  SER124     -0.2863
     28  CB        18.4970   11.3520   63.7080 C.3   124  SER124      0.2116
     29  OG        19.3870   12.1770   62.9690 O.3   124  SER124     -0.2180
     30  N         13.5810   11.2420   53.6520 N.3   142  ASN142     -0.1240
     31  CA        14.8370   11.4070   54.3540 C.3   142  ASN142      0.1653
     32  C         14.9840   10.2810   55.3480 C.2   142  ASN142      0.2266
     33  O         14.1990   10.1860   56.3100 O.2   142  ASN142     -0.2867
     34  CB        14.8710   12.7810   55.0330 C.3   142  ASN142      0.1155
     35  CG        16.2420   13.1640   55.5320 C.2   142  ASN142      0.2627
     36  OD1       17.1170   12.3080   55.7740 O.2   142  ASN142     -0.2716
     37  ND2       16.4410   14.4800   55.6650 N.am  142  ASN142     -0.0877
     38  N         18.3310    9.6630   56.4680 N.3   144  SER144     -0.1202
     39  CA        19.7270    9.8730   56.8290 C.3   144  SER144      0.2020
     40  C         19.9670    9.5360   58.2970 C.2   144  SER144      0.2618
     41  O         19.0470    9.5590   59.0840 O.2   144  SER144     -0.2717
     42  CB        20.1740   11.3100   56.5370 C.3   144  SER144      0.2103
     43  OG        19.5140   12.2690   57.3630 O.3   144  SER144     -0.2182
     44  N         21.2100    9.1960   58.6360 N.am  145  TYR145     -0.1975
     45  CA        21.6120    8.8790   60.0040 C.3   145  TYR145      0.1639
     46  C         20.8250    7.6860   60.5720 C.2   145  TYR145      0.2290
     47  O         20.1580    7.7730   61.5930 O.2   145  TYR145     -0.2864
     48  CB        21.5360   10.1100   60.9080 C.3   145  TYR145      0.0560
     49  CG        22.5030   11.2040   60.5150 C.ar  145  TYR145     -0.0198
     50  CD1       23.7990   11.2230   61.0270 C.ar  145  TYR145     -0.0009
     51  CD2       22.1290   12.2060   59.6280 C.ar  145  TYR145     -0.0009
     52  CE1       24.6890   12.2310   60.6770 C.ar  145  TYR145      0.0417
     53  CE2       23.0170   13.2260   59.2900 C.ar  145  TYR145      0.0417
     54  CZ        24.2930   13.2040   59.8210 C.ar  145  TYR145      0.1957
     55  OH        25.2010   14.2030   59.5020 O.3   145  TYR145     -0.2866
     56  N         13.1800   13.5050   45.5800 N.3   159  GLU159     -0.1245
     57  CA        14.3550   13.8150   46.3730 C.3   159  GLU159      0.1567
     58  C         14.4850   12.8080   47.4980 C.2   159  GLU159      0.2260
     59  O         13.5340   12.5750   48.2480 O.2   159  GLU159     -0.2867
     60  CB        14.3080   15.2450   46.9320 C.3   159  GLU159      0.0388
     61  CG        15.4780   15.5470   47.8480 C.3   159  GLU159      0.1160
     62  CD        15.7300   17.0320   48.1080 C.2   159  GLU159      0.3649
     63  OE1       14.8050   17.8830   47.8880 O.co2 159  GLU159     -0.2457
     64  OE2       16.8640   17.3380   48.5780 O.co2 159  GLU159     -0.2457
     65  N         17.2480   11.5180   50.6020 N.3   161  ASP161     -0.1239
     66  CA        18.4610   11.6380   51.3880 C.3   161  ASP161      0.1674
     67  C         18.6080   10.3610   52.2180 C.2   161  ASP161      0.2266
     68  O         17.7950   10.0810   53.0950 O.2   161  ASP161     -0.2867
     69  CB        18.4470   12.9020   52.2550 C.3   161  ASP161      0.1410
     70  CG        19.7780   13.1490   52.9920 C.2   161  ASP161      0.3668
     71  OD1       20.6150   12.2210   53.1160 O.co2 161  ASP161     -0.2456
     72  OD2       19.9790   14.3030   53.4750 O.co2 161  ASP161     -0.2456
     73  N         21.1290   11.9720   47.7680 N.3   182  LYS182     -0.1245
     74  CA        22.2190   12.1660   48.7040 C.3   182  LYS182      0.1561
     75  C         22.5260   10.8310   49.3480 C.2   182  LYS182      0.2260
     76  O         21.6980   10.2800   50.0880 O.2   182  LYS182     -0.2867
     77  CB        21.8280   13.1710   49.7790 C.3   182  LYS182      0.0271
     78  CG        21.2390   14.4490   49.2770 C.3   182  LYS182      0.0035
     79  CD        22.1530   15.1910   48.3610 C.3   182  LYS182      0.0206
     80  CE        23.3370   15.8030   49.0960 C.3   182  LYS182      0.1093
     81  NZ        22.9480   16.8690   50.0760 N.3   182  LYS182     -0.1314
@<TRIPOS>BOND
     1    56    57    1
     2    57    60    1
     3    57    58    1
     4    60    61    1
     5    58    59    2
     6    73    74    1
     7    61    62    1
     8    63    62   ar
     9    62    64   ar
    10    79    80    1
    11    79    78    1
    12    74    75    1
    13    74    77    1
    14    80    81    1
    15    78    77    1
    16    75    76    2
    17    65    66    1
    18    66    67    1
    19    66    69    1
    20    67    68    2
    21    69    70    1
    22    70    71   ar
    23    70    72   ar
    24    30    31    1
    25    31    34    1
    26    31    32    1
    27    17    15   am
    28    34    35    1
    29    32    33    2
    30    35    37   am
    31    35    36    2
    32    15    16    2
    33    15    14    1
    34    38    39    1
    35    42    39    1
    36    42    43    1
    37    39    40    1
    38     9    10    1
    39    14    13    1
    40    10    13    1
    41    10    11    1
    42    40    44   am
    43    40    41    2
    44    44    45    1
    45    11    12    2
    46    53    51   ar
    47    53    54   ar
    48    22    19    1
    49    22    23    1
    50    55    54    1
    51    51    49   ar
    52    18    19    1
    53    54    52   ar
    54    19    20    1
    55    45    46    1
    56    45    48    1
    57    49    48    1
    58    49    50   ar
    59    46    47    2
    60    52    50   ar
    61    20    24   am
    62    20    21    2
    63    24    25    1
    64    29    28    1
    65    25    28    1
    66    25    26    1
    67    26    27    2
    68     7     6    2
    69     1     2    1
    70     6     8   am
    71     6     5    1
    72     2     5    1
    73     2     3    1
    74     3     4    2
