@<TRIPOS>MOLECULE
tmp/4xguB00.pdb
 131 126 0 0 0
SMALL
GASTEIGER

@<TRIPOS>ATOM
      1  N          4.7880  301.1720  213.4560 N.3   114  ASN114     -0.1225
      2  CA         6.0330  301.3700  212.7280 C.3   114  ASN114      0.1785
      3  C          6.6160  300.0680  212.1950 C.2   114  ASN114      0.2597
      4  O          7.6080  300.0770  211.4700 O.2   114  ASN114     -0.2718
      5  CB         7.0460  302.0750  213.6230 C.3   114  ASN114      0.1169
      6  CG         6.5320  303.4000  214.1280 C.2   114  ASN114      0.2627
      7  OD1        6.0490  304.2220  213.3510 O.2   114  ASN114     -0.2716
      8  ND2        6.6110  303.6100  215.4370 N.am  114  ASN114     -0.0877
      9  N          5.9960  298.9510  212.5580 N.am  115  LEU115     -0.1966
     10  CA         6.3840  297.6620  212.0040 C.3   115  LEU115      0.1728
     11  C          5.8170  297.5250  210.5950 C.2   115  LEU115      0.2616
     12  O          4.6100  297.6700  210.3860 O.2   115  LEU115     -0.2715
     13  CB         5.9050  296.5170  212.9000 C.3   115  LEU115      0.0311
     14  CG         6.6820  296.3510  214.2080 C.3   115  LEU115      0.0022
     15  CD1        6.0680  295.2720  215.0790 C.3   115  LEU115      0.0001
     16  CD2        8.1320  296.0350  213.9160 C.3   115  LEU115      0.0001
     17  N          6.6930  297.2470  209.6320 N.am  116  ILE116     -0.1963
     18  CA         6.3050  297.2200  208.2230 C.3   116  ILE116      0.1727
     19  C          6.5000  295.8600  207.5590 C.2   116  ILE116      0.2616
     20  O          7.6210  295.3610  207.4580 O.2   116  ILE116     -0.2715
     21  CB         7.0950  298.2530  207.4090 C.3   116  ILE116      0.0290
     22  CG1        6.9510  299.6430  208.0270 C.3   116  ILE116      0.0022
     23  CG2        6.6310  298.2490  205.9640 C.3   116  ILE116      0.0023
     24  CD1        7.7130  300.7190  207.2820 C.3   116  ILE116      0.0001
     25  N          5.4030  295.2760  207.0910 N.am  117  TYR117     -0.1974
     26  CA         5.4530  294.0080  206.3780 C.3   117  TYR117      0.1639
     27  C          4.5700  294.0680  205.1390 C.2   117  TYR117      0.2290
     28  O          3.6510  294.8840  205.0620 O.2   117  TYR117     -0.2864
     29  CB         5.0220  292.8560  207.2880 C.3   117  TYR117      0.0560
     30  CG         5.9460  292.6290  208.4660 C.ar  117  TYR117     -0.0198
     31  CD1        7.1670  291.9910  208.3010 C.ar  117  TYR117     -0.0009
     32  CD2        5.5950  293.0490  209.7430 C.ar  117  TYR117     -0.0009
     33  CE1        8.0150  291.7820  209.3690 C.ar  117  TYR117      0.0417
     34  CE2        6.4370  292.8430  210.8200 C.ar  117  TYR117      0.0417
     35  CZ         7.6460  292.2080  210.6270 C.ar  117  TYR117      0.1957
     36  OH         8.4890  291.9960  211.6940 O.3   117  TYR117     -0.2866
     37  N         17.6240  287.3000  212.0800 N.3   157  PRO157     -0.2102
     38  CA        17.6780  288.2410  213.2070 C.3   157  PRO157      0.1504
     39  C         17.1680  289.6520  212.8930 C.2   157  PRO157      0.2576
     40  O         16.7520  290.3560  213.8090 O.2   157  PRO157     -0.2718
     41  CB        19.1730  288.2880  213.5490 C.3   157  PRO157      0.0282
     42  CG        19.7270  287.0160  213.0260 C.3   157  PRO157      0.0208
     43  CD        18.9480  286.7260  211.7820 C.3   157  PRO157      0.0893
     44  N         17.2020  290.0650  211.6320 N.am  158  GLY158     -0.1943
     45  CA        16.8720  291.4400  211.2960 C.3   158  GLY158      0.2014
     46  C         15.4070  291.7210  211.0120 C.2   158  GLY158      0.2640
     47  O         15.0470  292.8430  210.6530 O.2   158  GLY158     -0.2714
     48  N         14.5590  290.7130  211.1860 N.am  159  THR159     -0.1936
     49  CA        13.1610  290.8090  210.7740 C.3   159  THR159      0.2028
     50  C         12.2540  291.4740  211.8100 C.2   159  THR159      0.2643
     51  O         11.1440  291.9040  211.4890 O.2   159  THR159     -0.2714
     52  CB        12.5970  289.4220  210.4580 C.3   159  THR159      0.1808
     53  OG1       12.5540  288.6430  211.6590 O.3   159  THR159     -0.2208
     54  CG2       13.4740  288.7230  209.4350 C.3   159  THR159      0.0379
     55  N         12.7160  291.5460  213.0530 N.am  160  GLY160     -0.1939
     56  CA        11.9630  292.2240  214.0950 C.3   160  GLY160      0.2014
     57  C         10.8760  291.3820  214.7350 C.2   160  GLY160      0.2639
     58  O          9.7560  291.8470  214.9390 O.2   160  GLY160     -0.2714
     59  N         11.2110  290.1380  215.0600 N.am  161  LYS161     -0.1963
     60  CA        10.2690  289.2290  215.7010 C.3   161  LYS161      0.1728
     61  C          9.9520  289.6690  217.1240 C.2   161  LYS161      0.2617
     62  O          8.8150  289.5580  217.5830 O.2   161  LYS161     -0.2715
     63  CB        10.8280  287.8100  215.7090 C.3   161  LYS161      0.0311
     64  CG        11.3560  287.3550  214.3650 C.3   161  LYS161      0.0038
     65  CD        11.9220  285.9530  214.4460 C.3   161  LYS161      0.0206
     66  CE        13.3730  285.9310  214.0150 C.3   161  LYS161      0.1093
     67  NZ        14.2420  286.7470  214.9080 N.3   161  LYS161     -0.1314
     68  N         10.9710  290.1560  217.8230 N.am  162  THR162     -0.1937
     69  CA        10.8040  290.6350  219.1870 C.3   162  THR162      0.2028
     70  C          9.8300  291.8040  219.2220 C.2   162  THR162      0.2642
     71  O          8.9250  291.8400  220.0550 O.2   162  THR162     -0.2714
     72  CB        12.1450  291.0730  219.8030 C.3   162  THR162      0.1808
     73  OG1       13.0810  289.9890  219.7400 O.3   162  THR162     -0.2208
     74  CG2       11.9530  291.4910  221.2520 C.3   162  THR162      0.0379
     75  N         10.0110  292.7470  218.3000 N.am  163  SER163     -0.1949
     76  CA         9.1440  293.9200  218.2120 C.3   163  SER163      0.1924
     77  C          7.6890  293.5200  217.9960 C.2   163  SER163      0.2314
     78  O          6.7810  294.1390  218.5510 O.2   163  SER163     -0.2863
     79  CB         9.6080  294.8480  217.0880 C.3   163  SER163      0.2116
     80  OG        10.8590  295.4380  217.3960 O.3   163  SER163     -0.2180
     81  N         10.7400  283.5500  220.1780 N.3   259  THR259     -0.1218
     82  CA        11.3400  283.9560  218.9160 C.3   259  THR259      0.1862
     83  C         12.6430  283.1960  218.6910 C.2   259  THR259      0.2287
     84  O         13.4300  283.0160  219.6170 O.2   259  THR259     -0.2866
     85  CB        11.6000  285.4790  218.8670 C.3   259  THR259      0.1770
     86  OG1       12.4150  285.7930  217.7310 O.3   259  THR259     -0.2211
     87  CG2       12.3080  285.9460  220.1230 C.3   259  THR259      0.0375
     88  N         16.0150  283.1860  216.2440 N.3   261  ASN261     -0.1240
     89  CA        16.7830  283.9190  215.2420 C.3   261  ASN261      0.1653
     90  C         17.3730  283.0040  214.1740 C.2   261  ASN261      0.2266
     91  O         17.7880  283.4650  213.1110 O.2   261  ASN261     -0.2867
     92  CB        17.8980  284.7250  215.9120 C.3   261  ASN261      0.1155
     93  CG        17.3750  285.9430  216.6500 C.2   261  ASN261      0.2627
     94  OD1       16.3490  286.5150  216.2790 O.2   261  ASN261     -0.2716
     95  ND2       18.0810  286.3500  217.6980 N.am  261  ASN261     -0.0877
     96  N         12.6690  291.7680  204.6500 N.3   283  PRO283     -0.2116
     97  CA        11.6940  292.5630  203.8960 C.3   283  PRO283      0.1372
     98  C         11.9020  292.4790  202.3860 C.2   283  PRO283      0.2244
     99  O         13.0410  292.4440  201.9230 O.2   283  PRO283     -0.2868
    100  CB        11.9390  293.9890  204.4010 C.3   283  PRO283      0.0268
    101  CG        13.3370  293.9750  204.9240 C.3   283  PRO283      0.0207
    102  CD        13.5220  292.6090  205.5070 C.3   283  PRO283      0.0892
    103  N         10.1780  301.2390  204.3470 N.3   291  MET291     -0.1245
    104  CA        11.0410  301.5980  205.4630 C.3   291  MET291      0.1570
    105  C         11.8660  302.8370  205.1420 C.2   291  MET291      0.2261
    106  O         11.9850  303.7460  205.9640 O.2   291  MET291     -0.2867
    107  CB        11.9650  300.4370  205.8210 C.3   291  MET291      0.0387
    108  CG        11.2380  299.1670  206.2080 C.3   291  MET291      0.0595
    109  SD        12.3930  297.8330  206.5490 S.3   291  MET291     -0.1393
    110  CE        11.2660  296.5040  206.9550 C.3   291  MET291      0.0692
    111  N         16.0390  294.2770  208.0430 N.3   345  GLY345     -0.1210
    112  CA        15.1430  295.3060  208.5350 C.3   345  GLY345      0.1956
    113  C         15.8230  296.2080  209.5430 C.2   345  GLY345      0.2611
    114  O         15.6600  297.4280  209.5050 O.2   345  GLY345     -0.2717
    115  N         16.5960  295.6090  210.4430 N.am  346  ARG346     -0.1979
    116  CA        17.3370  296.3780  211.4340 C.3   346  ARG346      0.1597
    117  C         18.3710  297.2590  210.7530 C.2   346  ARG346      0.2287
    118  O         18.5290  298.4220  211.1090 O.2   346  ARG346     -0.2864
    119  CB        18.0160  295.4560  212.4490 C.3   346  ARG346      0.0334
    120  CG        18.6840  296.1960  213.5990 C.3   346  ARG346      0.0492
    121  CD        19.3520  295.2320  214.5690 C.3   346  ARG346      0.2205
    122  NE        19.7860  295.9030  215.7920 N.pl3 346  ARG346     -0.0865
    123  CZ        20.9840  296.4550  215.9590 C.cat 346  ARG346      0.5346
    124  NH1       21.8770  296.4200  214.9790 N.pl3 346  ARG346      0.1354
    125  NH2       21.2890  297.0460  217.1060 N.pl3 346  ARG346      0.1354
    126  N         16.9880  300.3490  209.3530 N.3   349  SER349     -0.1217
    127  CA        16.7380  301.3030  210.4270 C.3   349  SER349      0.1889
    128  C         18.0220  302.0060  210.8470 C.2   349  SER349      0.2288
    129  O         17.9860  303.1240  211.3590 O.2   349  SER349     -0.2866
    130  CB        16.1110  300.6040  211.6330 C.3   349  SER349      0.2089
    131  OG        14.8370  300.0830  211.3100 O.3   349  SER349     -0.2183
@<TRIPOS>BOND
     1    99    98    2
     2    98    97    1
     3    97   100    1
     4    97    96    1
     5   103   104    1
     6   100   101    1
     7    96   102    1
     8   101   102    1
     9    28    27    2
    10    27    26    1
    11   105   104    1
    12   105   106    2
    13   104   107    1
    14   107   108    1
    15    23    21    1
    16   108   109    1
    17    26    25    1
    18    26    29    1
    19   109   110    1
    20    25    19   am
    21    24    22    1
    22    29    30    1
    23    21    22    1
    24    21    18    1
    25    20    19    2
    26    19    18    1
    27   111   112    1
    28    18    17    1
    29    31    30   ar
    30    31    33   ar
    31    30    32   ar
    32   112   113    1
    33   126   127    1
    34    33    35   ar
    35    54    52    1
    36   114   113    2
    37   113   115   am
    38    17    11   am
    39    32    34   ar
    40    12    11    2
    41   127   128    1
    42   127   130    1
    43   115   116    1
    44    52    49    1
    45    52    53    1
    46    11    10    1
    47    35    34   ar
    48    35    36    1
    49    47    46    2
    50   117   118    2
    51   117   116    1
    52    49    48    1
    53    49    50    1
    54   128   129    2
    55    46    48   am
    56    46    45    1
    57    45    44    1
    58   131   130    1
    59   116   119    1
    60     4     3    2
    61    51    50    2
    62    44    39   am
    63    43    37    1
    64    43    42    1
    65    50    55   am
    66    10     9    1
    67    10    13    1
    68    37    38    1
    69     3     9   am
    70     3     2    1
    71   119   120    1
    72     2     1    1
    73     2     5    1
    74    39    38    1
    75    39    40    2
    76    13    14    1
    77    42    41    1
    78    55    56    1
    79    91    90    2
    80    38    41    1
    81     7     6    2
    82   120   121    1
    83     5     6    1
    84    16    14    1
    85    66    65    1
    86    66    67    1
    87    56    57    1
    88     6     8   am
    89    90    89    1
    90    14    15    1
    91    64    65    1
    92    64    63    1
    93   121   122    1
    94    57    58    2
    95    57    59   am
    96   124   123    1
    97    59    60    1
    98    89    92    1
    99    89    88    1
   100    60    63    1
   101    60    61    1
   102   122   123    2
   103    92    93    1
   104   123   125    1
   105    94    93    2
   106    93    95   am
   107    79    80    1
   108    79    76    1
   109    61    62    2
   110    61    68   am
   111    86    85    1
   112    68    69    1
   113    77    76    1
   114    77    78    2
   115    76    75    1
   116    75    70   am
   117    83    82    1
   118    83    84    2
   119    85    82    1
   120    85    87    1
   121    82    81    1
   122    69    70    1
   123    69    72    1
   124    70    71    2
   125    73    72    1
   126    72    74    1
