@<TRIPOS>MOLECULE
tmp/4xgxB00.pdb
 163 155 0 0 0
SMALL
GASTEIGER

@<TRIPOS>ATOM
      1  N          0.4420   38.1700  -40.5350 N.3    89  ALA89      -0.1231
      2  CA         0.9070   37.5320  -41.7650 C.3    89  ALA89       0.1694
      3  C          0.0260   36.3490  -42.1440 C.2    89  ALA89       0.2592
      4  O         -0.2600   36.1280  -43.3130 O.2    89  ALA89      -0.2718
      5  CB         2.3420   37.0880  -41.6150 C.3    89  ALA89       0.0304
      6  N         -0.3860   35.5850  -41.1430 N.am   90  MET90      -0.1965
      7  CA        -1.3130   34.4750  -41.3320 C.3    90  MET90       0.1736
      8  C         -2.7170   35.0090  -41.0760 C.2    90  MET90       0.2616
      9  O         -3.0610   35.3240  -39.9430 O.2    90  MET90      -0.2715
     10  CB        -0.9490   33.3230  -40.3830 C.3    90  MET90       0.0427
     11  CG        -2.0980   32.3950  -39.9560 C.3    90  MET90       0.0599
     12  SD        -2.8440   31.5260  -41.3370 S.3    90  MET90      -0.1393
     13  CE        -4.0650   30.5470  -40.4640 C.3    90  MET90       0.0692
     14  N         -3.5200   35.1210  -42.1290 N.am   91  ASP91      -0.1957
     15  CA        -4.7570   35.9010  -42.0630 C.3    91  ASP91       0.1840
     16  C         -5.8960   35.2230  -42.7960 C.2    91  ASP91       0.2621
     17  O         -5.9910   35.2930  -44.0180 O.2    91  ASP91      -0.2715
     18  CB        -4.5200   37.3050  -42.6480 C.3    91  ASP91       0.1450
     19  CG        -5.7250   38.2280  -42.4960 C.2    91  ASP91       0.3671
     20  OD1       -6.8300   37.7530  -42.1580 O.co2  91  ASP91      -0.2456
     21  OD2       -5.5630   39.4490  -42.7220 O.co2  91  ASP91      -0.2456
     22  N         -6.7900   34.6010  -42.0380 N.am   92  ILE92      -0.1977
     23  CA        -7.8840   33.8570  -42.6250 C.3    92  ILE92       0.1596
     24  C         -8.9910   34.7500  -43.2030 C.2    92  ILE92       0.2287
     25  O         -9.9730   34.2240  -43.7330 O.2    92  ILE92      -0.2864
     26  CB        -8.5060   32.8910  -41.6000 C.3    92  ILE92       0.0276
     27  CG1       -8.9900   33.6450  -40.3510 C.3    92  ILE92       0.0022
     28  CG2       -7.4910   31.7900  -41.2260 C.3    92  ILE92       0.0022
     29  CD1       -9.7610   32.7870  -39.3700 C.3    92  ILE92       0.0001
     30  N         -8.1660   37.1370  -45.5230 N.3    94  VAL94      -0.1245
     31  CA        -7.4930   37.7220  -46.7000 C.3    94  VAL94       0.1561
     32  C         -8.1560   37.3560  -48.0420 C.2    94  VAL94       0.2260
     33  O         -7.7110   37.8020  -49.1060 O.2    94  VAL94      -0.2867
     34  CB        -5.9990   37.2860  -46.7140 C.3    94  VAL94       0.0252
     35  CG1       -5.8440   35.8380  -47.1850 C.3    94  VAL94       0.0019
     36  CG2       -5.1470   38.2310  -47.5360 C.3    94  VAL94       0.0019
     37  N         -7.1640   37.5990  -52.1840 N.3    98  VAL98      -0.1245
     38  CA        -6.8500   36.4020  -52.9680 C.3    98  VAL98       0.1561
     39  C         -7.6380   36.4050  -54.2770 C.2    98  VAL98       0.2260
     40  O         -7.0630   36.2300  -55.3560 O.2    98  VAL98      -0.2867
     41  CB        -7.1400   35.1180  -52.1620 C.3    98  VAL98       0.0252
     42  CG1       -6.8910   33.8640  -53.0000 C.3    98  VAL98       0.0019
     43  CG2       -6.2840   35.0880  -50.9080 C.3    98  VAL98       0.0019
     44  N         -6.5840   34.2950  -57.8680 N.3   103  PHE103     -0.1241
     45  CA        -6.1550   33.1210  -57.1200 C.3   103  PHE103      0.1605
     46  C         -7.3770   32.3710  -56.5810 C.2   103  PHE103      0.2264
     47  O         -7.2590   31.4700  -55.7440 O.2   103  PHE103     -0.2867
     48  CB        -5.2220   33.5240  -55.9670 C.3   103  PHE103      0.0534
     49  CG        -3.8590   34.0170  -56.4060 C.ar  103  PHE103     -0.0203
     50  CD1       -3.4170   33.8640  -57.7090 C.ar  103  PHE103     -0.0042
     51  CD2       -3.0130   34.6260  -55.4920 C.ar  103  PHE103     -0.0042
     52  CE1       -2.1650   34.3140  -58.0930 C.ar  103  PHE103     -0.0003
     53  CE2       -1.7580   35.0710  -55.8710 C.ar  103  PHE103     -0.0003
     54  CZ        -1.3350   34.9130  -57.1760 C.ar  103  PHE103     -0.0000
     55  N        -11.4880   32.3850  -45.0760 N.3   146  ASP146     -0.1239
     56  CA       -10.9260   31.2730  -45.8430 C.3   146  ASP146      0.1674
     57  C         -9.9310   30.5070  -44.9760 C.2   146  ASP146      0.2266
     58  O         -8.9010   31.0480  -44.5510 O.2   146  ASP146     -0.2867
     59  CB       -10.2550   31.7980  -47.1200 C.3   146  ASP146      0.1410
     60  CG        -9.8740   30.6840  -48.1000 C.2   146  ASP146      0.3668
     61  OD1       -9.7160   29.5220  -47.6790 O.co2 146  ASP146     -0.2456
     62  OD2       -9.7250   30.9790  -49.3040 O.co2 146  ASP146     -0.2456
     63  N         -8.3770   27.6600  -45.9200 N.3   148  SER148     -0.1202
     64  CA        -7.6030   26.7790  -46.7900 C.3   148  SER148      0.2020
     65  C         -6.2390   26.4350  -46.2010 C.2   148  SER148      0.2619
     66  O         -5.7610   25.3100  -46.3180 O.2   148  SER148     -0.2717
     67  CB        -7.3910   27.4280  -48.1720 C.3   148  SER148      0.2103
     68  OG        -8.6160   27.6200  -48.8550 O.3   148  SER148     -0.2182
     69  N         -5.6130   27.4140  -45.5650 N.am  149  THR149     -0.1952
     70  CA        -4.2210   27.2630  -45.1720 C.3   149  THR149      0.1897
     71  C         -4.0450   26.5010  -43.8530 C.2   149  THR149      0.2313
     72  O         -2.9210   26.1640  -43.4810 O.2   149  THR149     -0.2863
     73  CB        -3.5320   28.6480  -45.0990 C.3   149  THR149      0.1794
     74  OG1       -2.1440   28.5190  -45.4430 O.3   149  THR149     -0.2208
     75  CG2       -3.6780   29.2830  -43.7280 C.3   149  THR149      0.0378
     76  N         -5.8250   21.4620  -43.9480 N.3   152  GLU152     -0.1245
     77  CA        -5.0920   20.2010  -44.0290 C.3   152  GLU152      0.1567
     78  C         -4.6030   19.7780  -42.6530 C.2   152  GLU152      0.2260
     79  O         -4.7120   18.6100  -42.2750 O.2   152  GLU152     -0.2867
     80  CB        -3.9150   20.3200  -44.9970 C.3   152  GLU152      0.0388
     81  CG        -4.3590   20.5680  -46.4420 C.3   152  GLU152      0.1160
     82  CD        -3.2420   21.0460  -47.3590 C.2   152  GLU152      0.3649
     83  OE1       -2.0570   20.9990  -46.9700 O.co2 152  GLU152     -0.2457
     84  OE2       -3.5680   21.4840  -48.4800 O.co2 152  GLU152     -0.2457
     85  N          4.1950   25.0240  -49.4230 N.3   211  GLY211     -0.1210
     86  CA         4.0210   24.6260  -50.8050 C.3   211  GLY211      0.1956
     87  C          2.5570   24.5420  -51.1480 C.2   211  GLY211      0.2613
     88  O          1.6880   24.6370  -50.2720 O.2   211  GLY211     -0.2717
     89  N          2.2860   24.3590  -52.4340 N.am  212  SER212     -0.1938
     90  CA         0.9220   24.2250  -52.9310 C.3   212  SER212      0.2055
     91  C          0.5910   22.7510  -53.0860 C.2   212  SER212      0.2643
     92  O          1.3410   22.0110  -53.7260 O.2   212  SER212     -0.2714
     93  CB         0.7560   24.9460  -54.2680 C.3   212  SER212      0.2130
     94  OG        -0.5950   24.8880  -54.6840 O.3   212  SER212     -0.2179
     95  N         -0.5320   22.3340  -52.5090 N.am  213  TYR213     -0.1959
     96  CA        -0.9100   20.9250  -52.4900 C.3   213  TYR213      0.1771
     97  C         -2.2530   20.6770  -53.1750 C.2   213  TYR213      0.2619
     98  O         -2.5400   19.5580  -53.5990 O.2   213  TYR213     -0.2715
     99  CB        -0.9290   20.4190  -51.0400 C.3   213  TYR213      0.0574
    100  CG         0.4660   20.3650  -50.4460 C.ar  213  TYR213     -0.0198
    101  CD1        1.2730   19.2550  -50.6390 C.ar  213  TYR213     -0.0009
    102  CD2        0.9860   21.4330  -49.7260 C.ar  213  TYR213     -0.0009
    103  CE1        2.5510   19.2000  -50.1240 C.ar  213  TYR213      0.0417
    104  CE2        2.2750   21.3850  -49.2060 C.ar  213  TYR213      0.0417
    105  CZ         3.0430   20.2630  -49.4020 C.ar  213  TYR213      0.1957
    106  OH         4.3260   20.1950  -48.9040 O.3   213  TYR213     -0.2866
    107  N         -3.0630   21.7200  -53.3170 N.am  214  ARG214     -0.1977
    108  CA        -4.4140   21.5500  -53.8440 C.3   214  ARG214      0.1597
    109  C         -4.4340   21.7060  -55.3590 C.2   214  ARG214      0.2287
    110  O         -3.5880   22.3950  -55.9310 O.2   214  ARG214     -0.2864
    111  CB        -5.3670   22.5460  -53.1860 C.3   214  ARG214      0.0334
    112  CG        -5.4180   22.4000  -51.6690 C.3   214  ARG214      0.0492
    113  CD        -6.4320   23.3290  -51.0050 C.3   214  ARG214      0.2205
    114  NE        -6.2300   23.3510  -49.5490 N.pl3 214  ARG214     -0.0865
    115  CZ        -7.1890   23.2340  -48.6330 C.cat 214  ARG214      0.5346
    116  NH1       -8.4640   23.1020  -48.9840 N.pl3 214  ARG214      0.1354
    117  NH2       -6.8680   23.2550  -47.3440 N.pl3 214  ARG214      0.1354
    118  N         -1.5290   32.1630  -55.2950 N.3   216  HIS216     -0.1226
    119  CA        -1.7610   31.3980  -54.0830 C.3   216  HIS216      0.1752
    120  C         -1.6730   32.2680  -52.8210 C.2   216  HIS216      0.2596
    121  O         -2.6750   32.7950  -52.3520 O.2   216  HIS216     -0.2718
    122  CB        -0.7630   30.2390  -54.0030 C.3   216  HIS216      0.0759
    123  CG         0.5710   30.5450  -54.6140 C.ar  216  HIS216      0.0818
    124  ND1        0.7350   30.7950  -55.9600 N.ar  216  HIS216     -0.2268
    125  CD2        1.8050   30.6340  -54.0620 C.ar  216  HIS216      0.1154
    126  CE1        2.0110   31.0320  -56.2100 C.ar  216  HIS216      0.1986
    127  NE2        2.6810   30.9390  -55.0760 N.ar  216  HIS216     -0.2212
    128  N         -0.4680   32.4190  -52.2840 N.am  217  VAL217     -0.1966
    129  CA        -0.2660   33.0410  -50.9870 C.3   217  VAL217      0.1727
    130  C         -0.0450   34.5420  -51.1390 C.2   217  VAL217      0.2616
    131  O          0.6990   34.9860  -52.0120 O.2   217  VAL217     -0.2715
    132  CB         0.9290   32.4110  -50.2550 C.3   217  VAL217      0.0290
    133  CG1        1.1850   33.0970  -48.9420 C.3   217  VAL217      0.0023
    134  CG2        0.6780   30.9160  -50.0290 C.3   217  VAL217      0.0023
    135  N         -0.7000   35.3090  -50.2770 N.am  218  ILE218     -0.1977
    136  CA        -0.6920   36.7630  -50.3600 C.3   218  ILE218      0.1596
    137  C         -0.2160   37.3930  -49.0600 C.2   218  ILE218      0.2287
    138  O         -0.5640   36.9470  -47.9800 O.2   218  ILE218     -0.2864
    139  CB        -2.1000   37.2730  -50.7380 C.3   218  ILE218      0.0276
    140  CG1       -2.2400   37.2230  -52.2610 C.3   218  ILE218      0.0022
    141  CG2       -2.3650   38.6850  -50.2050 C.3   218  ILE218      0.0022
    142  CD1       -3.5670   37.6480  -52.7690 C.3   218  ILE218      0.0001
    143  N         -0.8210   39.9710  -46.4630 N.3   220  PRO220     -0.2116
    144  CA        -1.9720   40.8310  -46.1360 C.3   220  PRO220      0.1372
    145  C         -1.6250   42.3140  -46.0290 C.2   220  PRO220      0.2244
    146  O         -2.4830   43.1550  -46.2760 O.2   220  PRO220     -0.2868
    147  CB        -2.4350   40.3000  -44.7690 C.3   220  PRO220      0.0268
    148  CG        -1.9130   38.9140  -44.7050 C.3   220  PRO220      0.0207
    149  CD        -0.5900   38.9590  -45.4160 C.3   220  PRO220      0.0892
    150  N          2.3090   29.0100  -42.6920 N.3   248  THR248     -0.1218
    151  CA         1.8430   30.0270  -43.6240 C.3   248  THR248      0.1862
    152  C          2.2880   31.4130  -43.1590 C.2   248  THR248      0.2287
    153  O          2.8300   32.1960  -43.9400 O.2   248  THR248     -0.2866
    154  CB         0.3100   29.9740  -43.7790 C.3   248  THR248      0.1770
    155  OG1       -0.0680   28.7370  -44.4000 O.3   248  THR248     -0.2211
    156  CG2       -0.2040   31.1230  -44.6200 C.3   248  THR248      0.0375
    157  N          4.9470   33.9040  -45.1780 N.3   252  VAL252     -0.1245
    158  CA         4.5810   35.2530  -45.5880 C.3   252  VAL252      0.1561
    159  C          5.5760   36.2830  -45.0730 C.2   252  VAL252      0.2260
    160  O          5.9330   37.2090  -45.7960 O.2   252  VAL252     -0.2867
    161  CB         3.1610   35.6130  -45.1020 C.3   252  VAL252      0.0252
    162  CG1        2.9000   37.1200  -45.1520 C.3   252  VAL252      0.0019
    163  CG2        2.1290   34.8620  -45.9240 C.3   252  VAL252      0.0019
@<TRIPOS>BOND
     1    52    50   ar
     2    52    54   ar
     3    44    45    1
     4    50    49   ar
     5    54    53   ar
     6    45    46    1
     7    45    48    1
     8    46    47    2
     9    49    48    1
    10    49    51   ar
    11   126   124   ar
    12   126   127   ar
    13   124   123   ar
    14   110   109    2
    15    53    51   ar
    16   109   108    1
    17    40    39    2
    18   118   119    1
    19   127   125   ar
    20    94    93    1
    21   123   125   ar
    22   123   122    1
    23    39    38    1
    24    93    90    1
    25   119   122    1
    26   119   120    1
    27   108   107    1
    28   108   111    1
    29    92    91    2
    30    98    97    2
    31   107    97   am
    32   111   112    1
    33    97    96    1
    34    91    90    1
    35    91    95   am
    36    42    41    1
    37    38    37    1
    38    38    41    1
    39    90    89    1
    40   120   121    2
    41   120   128   am
    42   142   140    1
    43    95    96    1
    44    96    99    1
    45    89    87   am
    46   128   129    1
    47   140   139    1
    48    41    43    1
    49   131   130    2
    50   112   113    1
    51    87    86    1
    52    87    88    2
    53   130   129    1
    54   130   135   am
    55    99   100    1
    56   113   114    1
    57   129   132    1
    58    86    85    1
    59   139   136    1
    60   139   141    1
    61   101   100   ar
    62   101   103   ar
    63   100   102   ar
    64   136   135    1
    65   136   137    1
    66   132   134    1
    67   132   133    1
    68   103   105   ar
    69   102   104   ar
    70   114   115    2
    71   105   104   ar
    72   105   106    1
    73    62    60   ar
    74    33    32    2
    75   137   138    2
    76   116   115    1
    77    68    67    1
    78   115   117    1
    79    84    82   ar
    80    67    64    1
    81    60    61   ar
    82    60    59    1
    83    32    31    1
    84    36    34    1
    85    82    83   ar
    86    82    81    1
    87    35    34    1
    88    59    56    1
    89    64    65    1
    90    64    63    1
    91    34    31    1
    92    31    30    1
    93   143   144    1
    94   143   149    1
    95    81    80    1
    96    66    65    2
    97   146   145    2
    98    65    69   am
    99   144   145    1
   100   144   147    1
   101   163   161    1
   102    56    55    1
   103    56    57    1
   104   160   159    2
   105   158   157    1
   106   158   161    1
   107   158   159    1
   108    69    70    1
   109    74    73    1
   110   149   148    1
   111    70    73    1
   112    70    71    1
   113   162   161    1
   114    73    75    1
   115    80    77    1
   116    57    58    2
   117   147   148    1
   118   156   154    1
   119   155   154    1
   120    77    76    1
   121    77    78    1
   122    17    16    2
   123   153   152    2
   124    71    72    2
   125   154   151    1
   126    25    24    2
   127   151   152    1
   128   151   150    1
   129     4     3    2
   130    24    23    1
   131    16    15    1
   132    16    22   am
   133    21    19   ar
   134    78    79    2
   135    18    19    1
   136    18    15    1
   137    23    22    1
   138    23    26    1
   139    19    20   ar
   140     3     2    1
   141     3     6   am
   142    14    15    1
   143    14     8   am
   144     2     5    1
   145     2     1    1
   146    26    28    1
   147    26    27    1
   148    12    13    1
   149    12    11    1
   150     7     6    1
   151     7     8    1
   152     7    10    1
   153     8     9    2
   154    10    11    1
   155    27    29    1
