@<TRIPOS>MOLECULE
tmp/4xgzS00.pdb
 151 153 0 0 0
SMALL
GASTEIGER

@<TRIPOS>ATOM
      1  N        -17.7250   38.0300   -6.5680 N.3    33  TYR33      -0.1227
      2  CA       -18.1420   39.2250   -7.3080 C.3    33  TYR33       0.1736
      3  C        -16.9400   39.9680   -7.9070 C.2    33  TYR33       0.2596
      4  O        -17.0230   41.1610   -8.2070 O.2    33  TYR33      -0.2718
      5  CB       -18.9370   40.1630   -6.3930 C.3    33  TYR33       0.0548
      6  CG       -20.2470   39.5830   -5.9120 C.ar   33  TYR33      -0.0200
      7  CD1      -21.3400   39.4760   -6.7710 C.ar   33  TYR33      -0.0009
      8  CD2      -20.4000   39.1430   -4.5960 C.ar   33  TYR33      -0.0009
      9  CE1      -22.5450   38.9450   -6.3370 C.ar   33  TYR33       0.0417
     10  CE2      -21.6020   38.6110   -4.1520 C.ar   33  TYR33       0.0417
     11  CZ       -22.6700   38.5150   -5.0260 C.ar   33  TYR33       0.1957
     12  OH       -23.8630   37.9930   -4.5920 O.3    33  TYR33      -0.2866
     13  N        -15.8300   39.2560   -8.0850 N.am   34  SER34      -0.1938
     14  CA       -14.6150   39.8330   -8.6580 C.3    34  SER34       0.2055
     15  C        -13.9930   38.8610   -9.6400 C.2    34  SER34       0.2643
     16  O        -14.4580   37.7350   -9.7860 O.2    34  SER34      -0.2714
     17  CB       -13.6090   40.1460   -7.5560 C.3    34  SER34       0.2130
     18  OG       -14.1290   41.1050   -6.6580 O.3    34  SER34      -0.2179
     19  N        -12.9450   39.3080  -10.3210 N.am   35  SER35      -0.1949
     20  CA       -12.1900   38.4430  -11.2090 C.3    35  SER35       0.1924
     21  C        -10.7930   38.2180  -10.6490 C.2    35  SER35       0.2314
     22  O        -10.1810   39.1330  -10.1010 O.2    35  SER35      -0.2863
     23  CB       -12.1170   39.0390  -12.6140 C.3    35  SER35       0.2116
     24  OG       -11.3320   40.2170  -12.6480 O.3    35  SER35      -0.2180
     25  N         -6.9090   36.5670  -11.6580 N.3    37  HIS37      -0.1241
     26  CA        -6.0560   36.2910  -12.8020 C.3    37  HIS37       0.1621
     27  C         -4.7470   35.7330  -12.3460 C.2    37  HIS37       0.2264
     28  O         -4.2180   36.1540  -11.3190 O.2    37  HIS37      -0.2867
     29  CB        -5.8150   37.5720  -13.5830 C.3    37  HIS37       0.0745
     30  CG        -7.0760   38.3230  -13.9140 C.ar   37  HIS37       0.0817
     31  ND1       -7.7030   38.1930  -15.0970 N.ar   37  HIS37      -0.2268
     32  CD2       -7.8270   39.2220  -13.1620 C.ar   37  HIS37       0.1154
     33  CE1       -8.8000   38.9720  -15.1050 C.ar   37  HIS37       0.1986
     34  NE2       -8.8750   39.6000  -13.9190 N.ar   37  HIS37      -0.2212
     35  N          0.5770   36.2190  -19.1240 N.3    49  TRP49      -0.1241
     36  CA        -0.7480   35.8620  -18.6480 C.3    49  TRP49       0.1605
     37  C         -0.9800   34.3910  -18.8090 C.2    49  TRP49       0.2264
     38  O         -0.6560   33.8250  -19.8500 O.2    49  TRP49      -0.2867
     39  CB        -1.8020   36.6270  -19.4270 C.3    49  TRP49       0.0550
     40  CG        -3.2090   36.1830  -19.1250 C.ar   49  TRP49       0.0003
     41  CD1       -3.9300   36.3840  -17.9570 C.ar   49  TRP49       0.0946
     42  CD2       -4.1140   35.4510  -20.0090 C.ar   49  TRP49       0.0152
     43  NE1       -5.1810   35.8370  -18.0520 N.ar   49  TRP49      -0.2442
     44  CE2       -5.3600   35.2690  -19.2580 C.ar   49  TRP49       0.0810
     45  CE3       -4.0270   34.9520  -21.3000 C.ar   49  TRP49       0.0012
     46  CZ2       -6.4520   34.6070  -19.7960 C.ar   49  TRP49       0.0191
     47  CZ3       -5.1370   34.2860  -21.8330 C.ar   49  TRP49       0.0001
     48  CH2       -6.3210   34.1190  -21.0980 C.ar   49  TRP49       0.0015
     49  N         -7.6230   33.3520  -16.3530 N.3    52  SER52      -0.1217
     50  CA        -8.5360   34.2870  -15.6890 C.3    52  SER52       0.1889
     51  C         -9.8410   33.5810  -15.3370 C.2    52  SER52       0.2288
     52  O        -10.2620   32.6760  -16.0490 O.2    52  SER52      -0.2866
     53  CB        -8.8320   35.4840  -16.5940 C.3    52  SER52       0.2089
     54  OG        -7.6720   36.2670  -16.8230 O.3    52  SER52      -0.2183
     55  N        -13.9780   34.4310  -13.8580 N.3    54  TYR54      -0.1241
     56  CA       -15.0530   35.3450  -13.4890 C.3    54  TYR54       0.1605
     57  C        -16.1920   34.5240  -12.9120 C.2    54  TYR54       0.2264
     58  O        -17.1060   34.1320  -13.6400 O.2    54  TYR54      -0.2867
     59  CB       -15.5280   36.1150  -14.7200 C.3    54  TYR54       0.0534
     60  CG       -14.5250   37.1270  -15.2210 C.ar   54  TYR54      -0.0201
     61  CD1      -13.4010   36.7290  -15.9280 C.ar   54  TYR54      -0.0009
     62  CD2      -14.7050   38.4830  -14.9880 C.ar   54  TYR54      -0.0009
     63  CE1      -12.4800   37.6550  -16.3850 C.ar   54  TYR54       0.0417
     64  CE2      -13.7910   39.4160  -15.4440 C.ar   54  TYR54       0.0417
     65  CZ       -12.6780   38.9970  -16.1390 C.ar   54  TYR54       0.1957
     66  OH       -11.7700   39.9310  -16.5870 O.3    54  TYR54      -0.2866
     67  N        -18.8500   34.9460  -11.0820 N.3    56  TYR56      -0.1227
     68  CA       -20.2370   35.3790  -11.1890 C.3    56  TYR56       0.1736
     69  C        -20.8810   34.8860  -12.4820 C.2    56  TYR56       0.2595
     70  O        -22.0250   34.4490  -12.4740 O.2    56  TYR56      -0.2718
     71  CB       -20.3380   36.9040  -11.0940 C.3    56  TYR56       0.0548
     72  CG       -21.7580   37.4190  -11.1480 C.ar   56  TYR56      -0.0200
     73  CD1      -22.5930   37.3270  -10.0400 C.ar   56  TYR56      -0.0009
     74  CD2      -22.2670   37.9990  -12.3090 C.ar   56  TYR56      -0.0009
     75  CE1      -23.8970   37.7970  -10.0870 C.ar   56  TYR56       0.0417
     76  CE2      -23.5670   38.4740  -12.3670 C.ar   56  TYR56       0.0417
     77  CZ       -24.3790   38.3690  -11.2540 C.ar   56  TYR56       0.1957
     78  OH       -25.6730   38.8390  -11.3030 O.3    56  TYR56      -0.2866
     79  N        -20.1440   34.9740  -13.5860 N.am   57  TYR57      -0.1976
     80  CA       -20.6490   34.5630  -14.8950 C.3    57  TYR57       0.1639
     81  C        -20.3120   33.1220  -15.2390 C.2    57  TYR57       0.2290
     82  O        -20.9370   32.5420  -16.1260 O.2    57  TYR57      -0.2864
     83  CB       -20.0990   35.4800  -15.9850 C.3    57  TYR57       0.0560
     84  CG       -20.5690   36.8990  -15.8460 C.ar   57  TYR57      -0.0198
     85  CD1      -21.8790   37.2450  -16.1470 C.ar   57  TYR57      -0.0009
     86  CD2      -19.7090   37.8990  -15.4070 C.ar   57  TYR57      -0.0009
     87  CE1      -22.3210   38.5490  -16.0150 C.ar   57  TYR57       0.0417
     88  CE2      -20.1430   39.2030  -15.2780 C.ar   57  TYR57       0.0417
     89  CZ       -21.4490   39.5210  -15.5810 C.ar   57  TYR57       0.1957
     90  OH       -21.8850   40.8190  -15.4490 O.3    57  TYR57      -0.2866
     91  N        -17.3160   32.1820  -16.3660 N.3    59  TYR59      -0.1241
     92  CA       -16.3890   32.2080  -17.4930 C.3    59  TYR59       0.1605
     93  C        -14.9610   31.9900  -17.0170 C.2    59  TYR59       0.2264
     94  O        -14.5360   32.5710  -16.0210 O.2    59  TYR59      -0.2867
     95  CB       -16.4450   33.5530  -18.2350 C.3    59  TYR59       0.0534
     96  CG       -17.7570   33.8960  -18.9090 C.ar   59  TYR59      -0.0201
     97  CD1      -18.5880   32.9150  -19.4320 C.ar   59  TYR59      -0.0009
     98  CD2      -18.1420   35.2190  -19.0660 C.ar   59  TYR59      -0.0009
     99  CE1      -19.7790   33.2470  -20.0570 C.ar   59  TYR59       0.0417
    100  CE2      -19.3320   35.5580  -19.6950 C.ar   59  TYR59       0.0417
    101  CZ       -20.1430   34.5650  -20.1890 C.ar   59  TYR59       0.1957
    102  OH       -21.3160   34.8920  -20.8180 O.3    59  TYR59      -0.2866
    103  N        -10.8660   31.6970  -18.8440 N.3    61  TYR61      -0.1241
    104  CA       -10.0640   31.9140  -20.0500 C.3    61  TYR61       0.1605
    105  C         -8.6320   31.4760  -19.7990 C.2    61  TYR61       0.2264
    106  O         -8.1390   31.5850  -18.6770 O.2    61  TYR61      -0.2867
    107  CB       -10.0820   33.3880  -20.4450 C.3    61  TYR61       0.0534
    108  CG       -11.4660   33.9910  -20.5850 C.ar   61  TYR61      -0.0201
    109  CD1      -12.1600   33.9220  -21.7890 C.ar   61  TYR61      -0.0009
    110  CD2      -12.0640   34.6490  -19.5210 C.ar   61  TYR61      -0.0009
    111  CE1      -13.4140   34.4860  -21.9250 C.ar   61  TYR61       0.0417
    112  CE2      -13.3190   35.2130  -19.6430 C.ar   61  TYR61       0.0417
    113  CZ       -13.9890   35.1340  -20.8470 C.ar   61  TYR61       0.1957
    114  OH       -15.2410   35.6980  -20.9690 O.3    61  TYR61      -0.2866
    115  N         -8.8930   41.6310  -10.6730 N.3   101  GLY101     -0.1210
    116  CA        -9.2440   42.4190  -11.8410 C.3   101  GLY101      0.1956
    117  C         -9.9540   43.7130  -11.5080 C.2   101  GLY101      0.2612
    118  O        -10.6160   43.8350  -10.4800 O.2   101  GLY101     -0.2717
    119  N         -9.7890   44.6780  -12.4070 N.am  102  TYR102     -0.1962
    120  CA       -10.3800   46.0100  -12.3220 C.3   102  TYR102      0.1771
    121  C        -10.8670   46.3110  -13.7450 C.2   102  TYR102      0.2620
    122  O        -10.8190   45.4270  -14.6020 O.2   102  TYR102     -0.2715
    123  CB        -9.3010   46.9960  -11.8720 C.3   102  TYR102      0.0574
    124  CG        -9.7750   48.3640  -11.4350 C.ar  102  TYR102     -0.0198
    125  CD1      -10.7400   48.5090  -10.4400 C.ar  102  TYR102     -0.0009
    126  CD2       -9.2240   49.5200  -11.9880 C.ar  102  TYR102     -0.0009
    127  CE1      -11.1630   49.7650  -10.0290 C.ar  102  TYR102      0.0417
    128  CE2       -9.6340   50.7770  -11.5780 C.ar  102  TYR102      0.0417
    129  CZ       -10.6030   50.8950  -10.6010 C.ar  102  TYR102      0.1957
    130  OH       -11.0140   52.1440  -10.2060 O.3   102  TYR102     -0.2866
    131  N        -11.3270   47.5300  -14.0140 N.am  103  TYR103     -0.1960
    132  CA       -11.8040   47.8850  -15.3610 C.3   103  TYR103      0.1771
    133  C        -10.8790   47.3460  -16.4620 C.2   103  TYR103      0.2620
    134  O         -9.6590   47.5290  -16.4090 O.2   103  TYR103     -0.2715
    135  CB       -11.9350   49.4020  -15.5160 C.3   103  TYR103      0.0574
    136  CG       -13.0160   50.0270  -14.6650 C.ar  103  TYR103     -0.0198
    137  CD1      -14.3590   49.8170  -14.9500 C.ar  103  TYR103     -0.0009
    138  CD2      -12.6950   50.8430  -13.5790 C.ar  103  TYR103     -0.0009
    139  CE1      -15.3530   50.3950  -14.1740 C.ar  103  TYR103      0.0417
    140  CE2      -13.6820   51.4240  -12.7980 C.ar  103  TYR103      0.0417
    141  CZ       -15.0080   51.1940  -13.0990 C.ar  103  TYR103      0.1957
    142  OH       -15.9880   51.7610  -12.3290 O.3   103  TYR103     -0.2866
    143  N        -11.4680   46.6640  -17.4420 N.am  104  GLY104     -0.1940
    144  CA       -10.7300   46.1670  -18.6010 C.3   104  GLY104      0.2014
    145  C         -9.7480   45.0470  -18.3000 C.2   104  GLY104      0.2638
    146  O         -8.7790   44.8540  -19.0370 O.2   104  GLY104     -0.2714
    147  N        -10.0010   44.3000  -17.2250 N.am  105  ALA105     -0.1977
    148  CA        -9.0690   43.2790  -16.7370 C.3   105  ALA105      0.1597
    149  C         -7.7070   43.8630  -16.3420 C.2   105  ALA105      0.2287
    150  O         -6.7170   43.1400  -16.2710 O.2   105  ALA105     -0.2864
    151  CB        -8.8990   42.1580  -17.7530 C.3   105  ALA105      0.0319
@<TRIPOS>BOND
     1   111   109   ar
     2   111   113   ar
     3    47    45   ar
     4    47    48   ar
     5   109   108   ar
     6    45    42   ar
     7    48    46   ar
     8   114   113    1
     9   113   112   ar
    10   102   101    1
    11   108   107    1
    12   108   110   ar
    13   107   104    1
    14   101    99   ar
    15   101   100   ar
    16    99    97   ar
    17   104   105    1
    18   104   103    1
    19    42    44   ar
    20    42    40   ar
    21    38    37    2
    22   105   106    2
    23    46    44   ar
    24   100    98   ar
    25   112   110   ar
    26    97    96   ar
    27    39    40    1
    28    39    36    1
    29    44    43   ar
    30    40    41   ar
    31    35    36    1
    32    98    96   ar
    33   146   145    2
    34    96    95    1
    35    37    36    1
    36   144   145    1
    37   144   143    1
    38   145   147   am
    39    95    92    1
    40    43    41   ar
    41   151   148    1
    42    92    93    1
    43    92    91    1
    44   143   133   am
    45   147   148    1
    46    93    94    2
    47    54    53    1
    48   148   149    1
    49    53    50    1
    50    66    65    1
    51   133   134    2
    52   133   132    1
    53    63    65   ar
    54    63    61   ar
    55    49    50    1
    56   149   150    2
    57    85    87   ar
    58    85    84   ar
    59    65    64   ar
    60    82    81    2
    61    52    51    2
    62    87    89   ar
    63    83    84    1
    64    83    80    1
    65    61    60   ar
    66    84    86   ar
    67    50    51    1
    68    89    90    1
    69    89    88   ar
    70   135   132    1
    71   135   136    1
    72    64    62   ar
    73    86    88   ar
    74   132   131    1
    75    81    80    1
    76    60    62   ar
    77    60    59    1
    78    33    31   ar
    79    33    34   ar
    80    31    30   ar
    81   137   136   ar
    82   137   139   ar
    83    80    79    1
    84    59    56    1
    85   136   138   ar
    86   122   121    2
    87   139   141   ar
    88   131   121   am
    89    34    32   ar
    90    30    29    1
    91    30    32   ar
    92    55    56    1
    93   121   120    1
    94    58    57    2
    95    79    69   am
    96    29    26    1
    97   138   140   ar
    98    56    57    1
    99   141   140   ar
   100   141   142    1
   101    26    27    1
   102    26    25    1
   103    24    23    1
   104    23    20    1
   105    69    70    2
   106    69    68    1
   107   119   120    1
   108   119   117   am
   109    76    74   ar
   110    76    77   ar
   111    27    28    2
   112   120   123    1
   113    74    72   ar
   114   126   128   ar
   115   126   124   ar
   116   123   124    1
   117   116   117    1
   118   116   115    1
   119   128   129   ar
   120   117   118    2
   121   124   125   ar
   122    78    77    1
   123    77    75   ar
   124    20    21    1
   125    20    19    1
   126    68    71    1
   127    68    67    1
   128    72    71    1
   129    72    73   ar
   130    21    22    2
   131   129   130    1
   132   129   127   ar
   133   125   127   ar
   134    19    15   am
   135    75    73   ar
   136    16    15    2
   137    15    14    1
   138    14    13    1
   139    14    17    1
   140     4     3    2
   141    13     3   am
   142     3     2    1
   143    17    18    1
   144     2     1    1
   145     2     5    1
   146     7     9   ar
   147     7     6   ar
   148     5     6    1
   149     9    11   ar
   150     6     8   ar
   151    11    12    1
   152    11    10   ar
   153     8    10   ar
