@<TRIPOS>MOLECULE
tmp/4xgzO00.pdb
 162 164 0 0 0
SMALL
GASTEIGER

@<TRIPOS>ATOM
      1  N         21.8750   31.3520   16.9900 N.3    32  TYR32      -0.1227
      2  CA        20.8400   30.3120   17.0580 C.3    32  TYR32       0.1736
      3  C         21.0400   29.3900   18.2640 C.2    32  TYR32       0.2596
      4  O         20.5480   28.2610   18.2800 O.2    32  TYR32      -0.2718
      5  CB        20.8240   29.4910   15.7660 C.3    32  TYR32       0.0548
      6  CG        20.3980   30.2940   14.5630 C.ar   32  TYR32      -0.0200
      7  CD1       21.3090   31.0880   13.8760 C.ar   32  TYR32      -0.0009
      8  CD2       19.0750   30.2690   14.1190 C.ar   32  TYR32      -0.0009
      9  CE1       20.9180   31.8400   12.7830 C.ar   32  TYR32       0.0417
     10  CE2       18.6740   31.0100   13.0200 C.ar   32  TYR32       0.0417
     11  CZ        19.5970   31.7950   12.3570 C.ar   32  TYR32       0.1957
     12  OH        19.2090   32.5310   11.2600 O.3    32  TYR32      -0.2866
     13  N         21.7550   29.8820   19.2730 N.am   33  SER33      -0.1938
     14  CA        22.0140   29.1170   20.4880 C.3    33  SER33       0.2055
     15  C         21.8630   30.0100   21.7040 C.2    33  SER33       0.2643
     16  O         21.6660   31.2160   21.5740 O.2    33  SER33      -0.2714
     17  CB        23.4250   28.5350   20.4550 C.3    33  SER33       0.2130
     18  OG        23.5760   27.6380   19.3710 O.3    33  SER33      -0.2179
     19  N         21.9570   29.4100   22.8850 N.am   34  SER34      -0.1949
     20  CA        21.9560   30.1680   24.1260 C.3    34  SER34       0.1924
     21  C         23.3170   30.0730   24.8010 C.2    34  SER34       0.2314
     22  O         23.9560   29.0210   24.7820 O.2    34  SER34      -0.2863
     23  CB        20.8590   29.6700   25.0630 C.3    34  SER34       0.2116
     24  OG        21.1300   28.3690   25.5410 O.3    34  SER34      -0.2180
     25  N         25.4110   30.9840   28.4860 N.3    36  HIS36      -0.1241
     26  CA        25.1790   31.1640   29.9100 C.3    36  HIS36       0.1621
     27  C         26.4710   31.4160   30.6170 C.2    36  HIS36       0.2264
     28  O         27.4940   30.8320   30.2690 O.2    36  HIS36      -0.2867
     29  CB        24.5220   29.9160   30.4850 C.3    36  HIS36       0.0745
     30  CG        23.3190   29.4550   29.7040 C.ar   36  HIS36       0.0817
     31  ND1       22.0680   29.7920   30.0460 N.ar   36  HIS36      -0.2268
     32  CD2       23.2190   28.6800   28.5490 C.ar   36  HIS36       0.1154
     33  CE1       21.2040   29.2550   29.1680 C.ar   36  HIS36       0.1986
     34  NE2       21.9120   28.5730   28.2500 N.ar   36  HIS36      -0.2212
     35  N         24.8680   30.3920   39.0480 N.3    48  TRP48      -0.1241
     36  CA        24.4170   30.9660   37.7880 C.3    48  TRP48       0.1605
     37  C         24.4210   32.4620   37.8640 C.2    48  TRP48       0.2264
     38  O         23.9820   33.0320   38.8620 O.2    48  TRP48      -0.2867
     39  CB        23.0140   30.4880   37.4690 C.3    48  TRP48       0.0550
     40  CG        22.4020   31.1740   36.2780 C.ar   48  TRP48       0.0003
     41  CD1       22.7480   31.0260   34.9420 C.ar   48  TRP48       0.0946
     42  CD2       21.2950   32.1390   36.2790 C.ar   48  TRP48       0.0152
     43  NE1       21.9600   31.8120   34.1440 N.ar   48  TRP48      -0.2442
     44  CE2       21.0680   32.5020   34.8820 C.ar   48  TRP48       0.0810
     45  CE3       20.5020   32.7170   37.2630 C.ar   48  TRP48       0.0012
     46  CZ2       20.0860   33.4050   34.5100 C.ar   48  TRP48       0.0191
     47  CZ3       19.5130   33.6280   36.8750 C.ar   48  TRP48       0.0001
     48  CH2       19.3120   33.9620   35.5310 C.ar   48  TRP48       0.0015
     49  N         22.0840   34.5960   31.4540 N.3    51  SER51      -0.1217
     50  CA        21.8070   33.8190   30.2470 C.3    51  SER51       0.1889
     51  C         21.3470   34.7370   29.1240 C.2    51  SER51       0.2288
     52  O         20.7220   35.7660   29.3790 O.2    51  SER51      -0.2866
     53  CB        20.7250   32.7790   30.5220 C.3    51  SER51       0.2089
     54  OG        21.1690   31.8010   31.4460 O.3    51  SER51      -0.2183
     55  N         19.5830   34.6300   25.0100 N.3    53  TYR53      -0.1241
     56  CA        18.9840   33.9270   23.8790 C.3    53  TYR53       0.1605
     57  C         18.8180   34.9160   22.7350 C.2    53  TYR53       0.2264
     58  O         17.7680   35.5330   22.5950 O.2    53  TYR53      -0.2867
     59  CB        17.6280   33.3560   24.2800 C.3    53  TYR53       0.0534
     60  CG        17.7270   32.2070   25.2480 C.ar   53  TYR53      -0.0201
     61  CD1       18.0130   32.4230   26.5910 C.ar   53  TYR53      -0.0009
     62  CD2       17.5330   30.8960   24.8230 C.ar   53  TYR53      -0.0009
     63  CE1       18.1090   31.3680   27.4820 C.ar   53  TYR53       0.0417
     64  CE2       17.6230   29.8340   25.7070 C.ar   53  TYR53       0.0417
     65  CZ        17.9150   30.0740   27.0320 C.ar   53  TYR53       0.1957
     66  OH        18.0030   29.0190   27.9070 O.3    53  TYR53      -0.2866
     67  N         18.3740   34.8960   19.5110 N.3    55  TYR55      -0.1227
     68  CA        17.3120   34.7460   18.5200 C.3    55  TYR55       0.1736
     69  C         16.0250   35.4370   18.9640 C.2    55  TYR55       0.2595
     70  O         15.3730   36.1030   18.1650 O.2    55  TYR55      -0.2718
     71  CB        17.0410   33.2690   18.2340 C.3    55  TYR55       0.0548
     72  CG        15.9820   33.0510   17.1760 C.ar   55  TYR55      -0.0200
     73  CD1       16.2720   33.2310   15.8270 C.ar   55  TYR55      -0.0009
     74  CD2       14.6870   32.6680   17.5250 C.ar   55  TYR55      -0.0009
     75  CE1       15.3050   33.0360   14.8520 C.ar   55  TYR55       0.0417
     76  CE2       13.7130   32.4710   16.5590 C.ar   55  TYR55       0.0417
     77  CZ        14.0270   32.6570   15.2250 C.ar   55  TYR55       0.1957
     78  OH        13.0650   32.4630   14.2620 O.3    55  TYR55      -0.2866
     79  N         15.6740   35.2890   20.2400 N.am   56  TYR56      -0.1976
     80  CA        14.4590   35.8950   20.7930 C.3    56  TYR56       0.1639
     81  C         14.6910   37.2690   21.4090 C.2    56  TYR56       0.2290
     82  O         13.7400   38.0210   21.6110 O.2    56  TYR56      -0.2864
     83  CB        13.8440   34.9710   21.8390 C.3    56  TYR56       0.0560
     84  CG        13.3800   33.6630   21.2590 C.ar   56  TYR56      -0.0198
     85  CD1       12.2440   33.6030   20.4570 C.ar   56  TYR56      -0.0009
     86  CD2       14.0800   32.4860   21.4980 C.ar   56  TYR56      -0.0009
     87  CE1       11.8120   32.4050   19.9130 C.ar   56  TYR56       0.0417
     88  CE2       13.6550   31.2840   20.9570 C.ar   56  TYR56       0.0417
     89  CZ        12.5230   31.2480   20.1650 C.ar   56  TYR56       0.1957
     90  OH        12.1060   30.0570   19.6270 O.3    56  TYR56      -0.2866
     91  N         15.9750   37.6710   24.4640 N.3    58  TYR58      -0.1241
     92  CA        15.7550   37.5460   25.9040 C.3    58  TYR58       0.1605
     93  C         17.0720   37.4360   26.6550 C.2    58  TYR58       0.2264
     94  O         17.9800   36.7140   26.2370 O.2    58  TYR58      -0.2867
     95  CB        14.9230   36.3020   26.2310 C.3    58  TYR58       0.0534
     96  CG        13.5090   36.2810   25.6860 C.ar   58  TYR58      -0.0201
     97  CD1       12.7690   37.4500   25.5210 C.ar   58  TYR58      -0.0009
     98  CD2       12.8940   35.0730   25.3740 C.ar   58  TYR58      -0.0009
     99  CE1       11.4730   37.4160   25.0360 C.ar   58  TYR58       0.0417
    100  CE2       11.5970   35.0320   24.8890 C.ar   58  TYR58       0.0417
    101  CZ        10.8920   36.2070   24.7240 C.ar   58  TYR58       0.1957
    102  OH         9.6040   36.1700   24.2480 O.3    58  TYR58      -0.2866
    103  N         18.4470   37.0400   30.9110 N.3    60  TYR60      -0.1241
    104  CA        18.0490   36.7680   32.2930 C.3    60  TYR60       0.1605
    105  C         19.2570   36.9000   33.2140 C.2    60  TYR60       0.2264
    106  O         20.3870   36.6150   32.8090 O.2    60  TYR60      -0.2867
    107  CB        17.4730   35.3660   32.4090 C.3    60  TYR60       0.0534
    108  CG        16.3590   35.0640   31.4290 C.ar   60  TYR60      -0.0201
    109  CD1       15.0340   35.3610   31.7360 C.ar   60  TYR60      -0.0009
    110  CD2       16.6290   34.4590   30.2030 C.ar   60  TYR60      -0.0009
    111  CE1       14.0080   35.0670   30.8470 C.ar   60  TYR60       0.0417
    112  CE2       15.6110   34.1650   29.3060 C.ar   60  TYR60       0.0417
    113  CZ        14.3030   34.4700   29.6320 C.ar   60  TYR60       0.1957
    114  OH        13.2940   34.1780   28.7430 O.3    60  TYR60      -0.2866
    115  N         27.3750   26.6970   26.6140 N.3    99  ARG99      -0.1231
    116  CA        26.3010   26.6380   25.6280 C.3    99  ARG99       0.1694
    117  C         25.1060   25.8830   26.1890 C.2    99  ARG99       0.2593
    118  O         25.2600   24.8600   26.8570 O.2    99  ARG99      -0.2718
    119  CB        26.7620   25.9590   24.3330 C.3    99  ARG99       0.0321
    120  CG        25.7120   26.0350   23.2290 C.3    99  ARG99       0.0489
    121  CD        26.1380   25.3470   21.9520 C.3    99  ARG99       0.2205
    122  NE        26.1250   23.8920   22.0860 N.pl3  99  ARG99      -0.0865
    123  CZ        26.1650   23.0350   21.0670 C.cat  99  ARG99       0.5346
    124  NH1       26.2050   23.4720   19.8110 N.pl3  99  ARG99       0.1354
    125  NH2       26.1550   21.7290   21.3060 N.pl3  99  ARG99       0.1354
    126  N         23.9130   26.3760   25.8710 N.am  100  GLY100     -0.1942
    127  CA        22.6760   25.7490   26.3060 C.3   100  GLY100      0.2014
    128  C         22.2230   24.5970   25.4270 C.2   100  GLY100      0.2639
    129  O         22.5290   24.5390   24.2370 O.2   100  GLY100     -0.2714
    130  N         21.4870   23.6850   26.0510 N.am  101  TYR101     -0.1959
    131  CA        20.9200   22.4970   25.4220 C.3   101  TYR101      0.1771
    132  C         19.5000   22.3970   25.9790 C.2   101  TYR101      0.2620
    133  O         19.0610   23.3110   26.6830 O.2   101  TYR101     -0.2715
    134  CB        21.7700   21.2820   25.8140 C.3   101  TYR101      0.0574
    135  CG        21.5390   20.0110   25.0310 C.ar  101  TYR101     -0.0198
    136  CD1       21.6290   19.9920   23.6420 C.ar  101  TYR101     -0.0009
    137  CD2       21.2730   18.8110   25.6860 C.ar  101  TYR101     -0.0009
    138  CE1       21.4320   18.8200   22.9270 C.ar  101  TYR101      0.0417
    139  CE2       21.0790   17.6360   24.9800 C.ar  101  TYR101      0.0417
    140  CZ        21.1580   17.6460   23.6030 C.ar  101  TYR101      0.1957
    141  OH        20.9590   16.4770   22.9080 O.3   101  TYR101     -0.2866
    142  N         18.7800   21.3150   25.6950 N.am  102  TYR102     -0.1960
    143  CA        17.4110   21.1540   26.2090 C.3   102  TYR102      0.1771
    144  C         17.2910   21.5710   27.6830 C.2   102  TYR102      0.2620
    145  O         18.0850   21.1470   28.5270 O.2   102  TYR102     -0.2715
    146  CB        16.9340   19.7090   26.0570 C.3   102  TYR102      0.0574
    147  CG        16.7560   19.2600   24.6250 C.ar  102  TYR102     -0.0198
    148  CD1       15.7240   19.7660   23.8390 C.ar  102  TYR102     -0.0009
    149  CD2       17.6140   18.3190   24.0550 C.ar  102  TYR102     -0.0009
    150  CE1       15.5580   19.3560   22.5260 C.ar  102  TYR102      0.0417
    151  CE2       17.4550   17.9010   22.7440 C.ar  102  TYR102      0.0417
    152  CZ        16.4280   18.4230   21.9850 C.ar  102  TYR102      0.1957
    153  OH        16.2630   18.0110   20.6860 O.3   102  TYR102     -0.2866
    154  N         16.3100   22.4220   27.9750 N.am  103  GLY103     -0.1940
    155  CA        16.0210   22.8430   29.3470 C.3   103  GLY103      0.2014
    156  C         17.0790   23.7270   29.9840 C.2   103  GLY103      0.2638
    157  O         17.2010   23.7710   31.2080 O.2   103  GLY103     -0.2714
    158  N         17.8510   24.4280   29.1570 N.am  104  ALA104     -0.1977
    159  CA        18.9970   25.2030   29.6280 C.3   104  ALA104      0.1597
    160  C         20.0710   24.3370   30.2980 C.2   104  ALA104      0.2287
    161  O         20.9000   24.8430   31.0540 O.2   104  ALA104     -0.2864
    162  CB        18.5380   26.3030   30.5700 C.3   104  ALA104      0.0319
@<TRIPOS>BOND
     1    12    11    1
     2    11     9   ar
     3    11    10   ar
     4     9     7   ar
     5    10     8   ar
     6     7     6   ar
     7     8     6   ar
     8    78    77    1
     9     6     5    1
    10    75    77   ar
    11    75    73   ar
    12    77    76   ar
    13     5     2    1
    14    73    72   ar
    15    76    74   ar
    16     1     2    1
    17     2     3    1
    18    72    74   ar
    19    72    71    1
    20    70    69    2
    21    71    68    1
    22     3     4    2
    23     3    13   am
    24    68    69    1
    25    68    67    1
    26    69    79   am
    27    13    14    1
    28    18    17    1
    29    90    89    1
    30   124   123    1
    31    87    89   ar
    32    87    85   ar
    33    89    88   ar
    34    79    80    1
    35    17    14    1
    36    85    84   ar
    37    14    15    1
    38   153   152    1
    39    80    81    1
    40    80    83    1
    41    88    86   ar
    42   123   125    1
    43   123   122    2
    44    84    86   ar
    45    84    83    1
    46    81    82    2
    47    16    15    2
    48    15    19   am
    49   121   122    1
    50   121   120    1
    51   152   150   ar
    52   152   151   ar
    53   150   148   ar
    54    58    57    2
    55    57    56    1
    56   151   149   ar
    57    19    20    1
    58   141   140    1
    59   138   140   ar
    60   138   136   ar
    61   120   119    1
    62   140   139   ar
    63   136   135   ar
    64   148   147   ar
    65    56    59    1
    66    56    55    1
    67   149   147   ar
    68    20    21    1
    69    20    23    1
    70   129   128    2
    71   102   101    1
    72    59    60    1
    73   119   116    1
    74    91    92    1
    75   147   146    1
    76   101   100   ar
    77   101    99   ar
    78    22    21    2
    79    62    60   ar
    80    62    64   ar
    81   100    98   ar
    82   139   137   ar
    83   135   137   ar
    84   135   134    1
    85    99    97   ar
    86    23    24    1
    87    60    61   ar
    88    98    96   ar
    89   131   134    1
    90   131   132    1
    91   131   130    1
    92   128   130   am
    93   128   127    1
    94    97    96   ar
    95   116   117    1
    96   116   115    1
    97    96    95    1
    98   142   132   am
    99   142   143    1
   100    64    65   ar
   101   126   117   am
   102   126   127    1
   103    92    95    1
   104    92    93    1
   105   132   133    2
   106   146   143    1
   107   117   118    2
   108   143   144    1
   109    94    93    2
   110    61    63   ar
   111    65    63   ar
   112    65    66    1
   113   144   154   am
   114   144   145    2
   115   154   155    1
   116    34    32   ar
   117    34    33   ar
   118    25    26    1
   119    32    30   ar
   120   114   113    1
   121    51    52    2
   122    51    50    1
   123   158   159    1
   124   158   156   am
   125    33    31   ar
   126   112   113   ar
   127   112   110   ar
   128   155   156    1
   129   159   160    1
   130   159   162    1
   131   113   111   ar
   132    30    31   ar
   133    30    29    1
   134    26    29    1
   135    26    27    1
   136   156   157    2
   137   110   108   ar
   138    50    53    1
   139    50    49    1
   140    28    27    2
   141   160   161    2
   142    53    54    1
   143   111   109   ar
   144   103   104    1
   145   108   109   ar
   146   108   107    1
   147   104   107    1
   148   104   105    1
   149   106   105    2
   150    43    44   ar
   151    43    41   ar
   152    46    44   ar
   153    46    48   ar
   154    44    42   ar
   155    41    40   ar
   156    48    47   ar
   157    40    42   ar
   158    40    39    1
   159    42    45   ar
   160    47    45   ar
   161    39    36    1
   162    36    37    1
   163    36    35    1
   164    37    38    2
