@<TRIPOS>MOLECULE
tmp/4xgzB00.pdb
 69 66 0 0 0
SMALL
GASTEIGER

@<TRIPOS>ATOM
      1  N         28.8690    7.9880  -23.3810 N.3    26  SER26      -0.1217
      2  CA        28.6100    7.0390  -24.4700 C.3    26  SER26       0.1889
      3  C         28.5910    7.7270  -25.8340 C.2    26  SER26       0.2288
      4  O         28.9560    7.1290  -26.8480 O.2    26  SER26      -0.2866
      5  CB        27.2650    6.3320  -24.2600 C.3    26  SER26       0.2089
      6  OG        26.9760    6.1720  -22.8840 O.3    26  SER26      -0.2183
      7  N         28.4670    9.4780  -29.3970 N.3    28  ALA28      -0.1245
      8  CA        29.2830    9.6900  -30.5940 C.3    28  ALA28       0.1562
      9  C         29.1400   11.1520  -31.0090 C.2    28  ALA28       0.2260
     10  O         28.0390   11.6040  -31.3120 O.2    28  ALA28      -0.2867
     11  CB        28.8260    8.7790  -31.7210 C.3    28  ALA28       0.0290
     12  N         34.4460   13.5970  -36.7680 N.3    45  TYR45      -0.1227
     13  CA        33.4730   12.5670  -36.4150 C.3    45  TYR45       0.1736
     14  C         34.0590   11.6310  -35.3620 C.2    45  TYR45       0.2596
     15  O         35.2760   11.6110  -35.1430 O.2    45  TYR45      -0.2718
     16  CB        33.0250   11.7900  -37.6550 C.3    45  TYR45       0.0548
     17  CG        34.1070   10.9680  -38.3090 C.ar   45  TYR45      -0.0200
     18  CD1       35.0180   11.5470  -39.1850 C.ar   45  TYR45      -0.0009
     19  CD2       34.2170    9.6010  -38.0610 C.ar   45  TYR45      -0.0009
     20  CE1       36.0130   10.7900  -39.7870 C.ar   45  TYR45       0.0417
     21  CE2       35.2090    8.8380  -38.6590 C.ar   45  TYR45       0.0417
     22  CZ        36.1020    9.4380  -39.5220 C.ar   45  TYR45       0.1957
     23  OH        37.0860    8.6860  -40.1150 O.3    45  TYR45      -0.2866
     24  N         33.1880   10.8720  -34.7030 N.am   46  SER46      -0.1952
     25  CA        33.5920    9.9700  -33.6230 C.3    46  SER46       0.1924
     26  C         34.5150   10.6640  -32.6230 C.2    46  SER46       0.2314
     27  O         35.5780   10.1440  -32.2770 O.2    46  SER46      -0.2863
     28  CB        34.2730    8.7270  -34.1910 C.3    46  SER46       0.2116
     29  OG        33.4110    8.0490  -35.0830 O.3    46  SER46      -0.2180
     30  N         25.1560   12.2170  -30.7030 N.3    87  SER87      -0.1202
     31  CA        24.2230   11.1590  -31.0720 C.3    87  SER87       0.2020
     32  C         24.1470   10.1230  -29.9640 C.2    87  SER87       0.2619
     33  O         25.1660    9.5580  -29.5680 O.2    87  SER87      -0.2717
     34  CB        24.6850   10.4770  -32.3530 C.3    87  SER87       0.2103
     35  OG        24.8590   11.4060  -33.3910 O.3    87  SER87      -0.2182
     36  N         22.9430    9.8950  -29.4510 N.am   88  SER88      -0.1937
     37  CA        22.7100    8.8610  -28.4500 C.3    88  SER88       0.2055
     38  C         22.1390    7.6380  -29.1570 C.2    88  SER88       0.2644
     39  O         22.2510    7.5180  -30.3740 O.2    88  SER88      -0.2714
     40  CB        21.7520    9.3650  -27.3680 C.3    88  SER88       0.2130
     41  OG        20.4110    9.3700  -27.8270 O.3    88  SER88      -0.2179
     42  N         21.5250    6.7330  -28.4030 N.am   89  SER89      -0.1935
     43  CA        20.9600    5.5180  -28.9840 C.3    89  SER89       0.2055
     44  C         19.6300    5.7560  -29.7110 C.2    89  SER89       0.2644
     45  O         19.1860    4.8960  -30.4650 O.2    89  SER89      -0.2714
     46  CB        20.7840    4.4390  -27.9040 C.3    89  SER89       0.2130
     47  OG        19.8280    4.8350  -26.9360 O.3    89  SER89      -0.2179
     48  N         18.9900    6.9000  -29.4780 N.am   90  SER90      -0.1935
     49  CA        17.7050    7.1960  -30.1240 C.3    90  SER90       0.2055
     50  C         17.4650    8.6800  -30.4120 C.2    90  SER90       0.2643
     51  O         16.3370    9.0830  -30.6630 O.2    90  SER90      -0.2714
     52  CB        16.5610    6.6780  -29.2450 C.3    90  SER90       0.2130
     53  OG        16.3220    7.5560  -28.1580 O.3    90  SER90      -0.2179
     54  N         18.5200    9.4830  -30.3880 N.am   91  LEU91      -0.1963
     55  CA        18.3700   10.9350  -30.3770 C.3    91  LEU91       0.1728
     56  C         19.6480   11.5900  -30.8750 C.2    91  LEU91       0.2616
     57  O         20.7450   11.1040  -30.6030 O.2    91  LEU91      -0.2715
     58  CB        18.0710   11.4090  -28.9460 C.3    91  LEU91       0.0311
     59  CG        16.9900   12.4640  -28.7070 C.3    91  LEU91       0.0022
     60  CD1       15.6020   11.8720  -28.9220 C.3    91  LEU91       0.0001
     61  CD2       17.1060   13.0370  -27.2990 C.3    91  LEU91       0.0001
     62  N         19.4980   12.6780  -31.6220 N.am   92  ILE92      -0.1977
     63  CA        20.6250   13.5250  -32.0020 C.3    92  ILE92       0.1596
     64  C         20.3670   14.9210  -31.4490 C.2    92  ILE92       0.2287
     65  O         19.2640   15.4440  -31.5730 O.2    92  ILE92      -0.2864
     66  CB        20.8060   13.6070  -33.5300 C.3    92  ILE92       0.0276
     67  CG1       21.2090   12.2520  -34.1030 C.3    92  ILE92       0.0022
     68  CG2       21.8620   14.6380  -33.8910 C.3    92  ILE92       0.0022
     69  CD1       21.3220   12.2400  -35.6140 C.3    92  ILE92       0.0001
@<TRIPOS>BOND
     1    23    22    1
     2    20    22   ar
     3    20    18   ar
     4    22    21   ar
     5    18    17   ar
     6    21    19   ar
     7    17    19   ar
     8    17    16    1
     9    16    13    1
    10    12    13    1
    11    13    14    1
    12    69    67    1
    13    14    15    2
    14    14    24   am
    15    29    28    1
    16    24    25    1
    17    28    25    1
    18    67    66    1
    19    68    66    1
    20    25    26    1
    21    66    63    1
    22    35    34    1
    23    26    27    2
    24    34    31    1
    25    63    62    1
    26    63    64    1
    27    11     8    1
    28    62    56   am
    29    65    64    2
    30    10     9    2
    31    31    30    1
    32    31    32    1
    33     9     8    1
    34    56    57    2
    35    56    55    1
    36    51    50    2
    37     8     7    1
    38    45    44    2
    39    50    54   am
    40    50    49    1
    41    54    55    1
    42    55    58    1
    43    39    38    2
    44    49    48    1
    45    49    52    1
    46    32    33    2
    47    32    36   am
    48    44    48   am
    49    44    43    1
    50    36    37    1
    51    52    53    1
    52    38    37    1
    53    38    42   am
    54    43    42    1
    55    43    46    1
    56    58    59    1
    57    60    59    1
    58    59    61    1
    59    37    40    1
    60    46    47    1
    61    41    40    1
    62     4     3    2
    63     3     2    1
    64     2     5    1
    65     2     1    1
    66     5     6    1
