@<TRIPOS>MOLECULE
tmp/4xgzA00.pdb
 151 153 0 0 0
SMALL
GASTEIGER

@<TRIPOS>ATOM
      1  N         20.8570    1.7800  -48.6610 N.3    32  TYR32      -0.1227
      2  CA        22.0120    1.3170  -47.8840 C.3    32  TYR32       0.1736
      3  C         22.7020    2.4710  -47.1460 C.2    32  TYR32       0.2596
      4  O         23.8730    2.3710  -46.7820 O.2    32  TYR32      -0.2718
      5  CB        23.0120    0.6010  -48.7950 C.3    32  TYR32       0.0548
      6  CG        22.4750   -0.6710  -49.4070 C.ar   32  TYR32      -0.0200
      7  CD1       22.3310   -1.8270  -48.6400 C.ar   32  TYR32      -0.0009
      8  CD2       22.1130   -0.7260  -50.7540 C.ar   32  TYR32      -0.0009
      9  CE1       21.8340   -3.0000  -49.1960 C.ar   32  TYR32       0.0417
     10  CE2       21.6190   -1.8940  -51.3190 C.ar   32  TYR32       0.0417
     11  CZ        21.4820   -3.0270  -50.5370 C.ar   32  TYR32       0.1957
     12  OH        20.9910   -4.1860  -51.0900 O.3    32  TYR32      -0.2866
     13  N         21.9700    3.5580  -46.9210 N.am   33  SER33      -0.1938
     14  CA        22.5000    4.7260  -46.2230 C.3    33  SER33       0.2055
     15  C         21.4700    5.2670  -45.2530 C.2    33  SER33       0.2643
     16  O         20.3360    4.7930  -45.2190 O.2    33  SER33      -0.2714
     17  CB        22.8690    5.8210  -47.2250 C.3    33  SER33       0.2130
     18  OG        23.8850    5.3750  -48.1000 O.3    33  SER33      -0.2179
     19  N         21.8650    6.2650  -44.4690 N.am   34  SER34      -0.1949
     20  CA        20.9390    6.9490  -43.5860 C.3    34  SER34       0.1924
     21  C         20.7380    8.3830  -44.0520 C.2    34  SER34       0.2314
     22  O         21.6750    9.0410  -44.4900 O.2    34  SER34      -0.2863
     23  CB        21.4430    6.9150  -42.1430 C.3    34  SER34       0.2116
     24  OG        22.6060    7.7000  -41.9740 O.3    34  SER34      -0.2180
     25  N         18.9910   12.1750  -42.8500 N.3    36  HIS36      -0.1241
     26  CA        18.6330   12.9370  -41.6620 C.3    36  HIS36       0.1621
     27  C         18.0960   14.2810  -42.0490 C.2    36  HIS36       0.2264
     28  O         18.5700   14.8830  -43.0070 O.2    36  HIS36      -0.2867
     29  CB        19.8560   13.1160  -40.7760 C.3    36  HIS36       0.0745
     30  CG        20.5990   11.8410  -40.5040 C.ar   36  HIS36       0.0817
     31  ND1       20.4050   11.1240  -39.3920 N.ar   36  HIS36      -0.2268
     32  CD2       21.5490   11.1500  -41.2610 C.ar   36  HIS36       0.1154
     33  CE1       21.1840   10.0260  -39.4250 C.ar   36  HIS36       0.1986
     34  NE2       21.8850   10.0430  -40.5710 N.ar   36  HIS36      -0.2212
     35  N         18.0720   19.0700  -34.8760 N.3    48  TRP48      -0.1241
     36  CA        17.7500   17.7800  -35.4710 C.3    48  TRP48       0.1605
     37  C         16.2740   17.5290  -35.4280 C.2    48  TRP48       0.2264
     38  O         15.6340   17.7720  -34.4120 O.2    48  TRP48      -0.2867
     39  CB        18.4640   16.6710  -34.7200 C.3    48  TRP48       0.0550
     40  CG        18.0530   15.2950  -35.1550 C.ar   48  TRP48       0.0003
     41  CD1       18.3460   14.6640  -36.3610 C.ar   48  TRP48       0.0946
     42  CD2       17.2740   14.3200  -34.3920 C.ar   48  TRP48       0.0152
     43  NE1       17.8100   13.4040  -36.3940 N.ar   48  TRP48      -0.2442
     44  CE2       17.1630   13.1310  -35.2450 C.ar   48  TRP48       0.0810
     45  CE3       16.6890   14.3050  -33.1350 C.ar   48  TRP48       0.0012
     46  CZ2       16.4820   12.0000  -34.8380 C.ar   48  TRP48       0.0191
     47  CZ3       16.0010   13.1530  -32.7340 C.ar   48  TRP48       0.0001
     48  CH2       15.9000   12.0300  -33.5680 C.ar   48  TRP48       0.0015
     49  N         15.4860   11.0940  -38.4370 N.3    51  SER51      -0.1217
     50  CA        16.4670   10.2420  -39.1100 C.3    51  SER51       0.1889
     51  C         15.7980    8.9650  -39.6110 C.2    51  SER51       0.2288
     52  O         14.8490    8.4860  -38.9970 O.2    51  SER51      -0.2866
     53  CB        17.6010    9.8790  -38.1510 C.3    51  SER51       0.2089
     54  OG        18.3530   11.0180  -37.7870 O.3    51  SER51      -0.2183
     55  N         16.7890    4.9540  -41.3380 N.3    53  TYR53      -0.1241
     56  CA        17.7320    3.9130  -41.7260 C.3    53  TYR53       0.1605
     57  C         16.9650    2.8110  -42.4410 C.2    53  TYR53       0.2264
     58  O         16.5330    1.8470  -41.8100 O.2    53  TYR53      -0.2867
     59  CB        18.4270    3.3490  -40.4860 C.3    53  TYR53       0.0534
     60  CG        19.3920    4.3130  -39.8430 C.ar   53  TYR53      -0.0201
     61  CD1       18.9360    5.3790  -39.0750 C.ar   53  TYR53      -0.0009
     62  CD2       20.7620    4.1620  -40.0040 C.ar   53  TYR53      -0.0009
     63  CE1       19.8170    6.2710  -38.4930 C.ar   53  TYR53       0.0417
     64  CE2       21.6520    5.0450  -39.4210 C.ar   53  TYR53       0.0417
     65  CZ        21.1740    6.0990  -38.6710 C.ar   53  TYR53       0.1957
     66  OH        22.0630    6.9760  -38.1020 O.3    53  TYR53      -0.2866
     67  N         17.5270    0.3120  -44.4300 N.3    55  TYR55      -0.1227
     68  CA        17.9730   -1.0770  -44.4050 C.3    55  TYR55       0.1736
     69  C         17.4160   -1.8250  -43.1930 C.2    55  TYR55       0.2595
     70  O         16.9810   -2.9690  -43.3180 O.2    55  TYR55      -0.2718
     71  CB        19.5010   -1.1600  -44.4200 C.3    55  TYR55       0.0548
     72  CG        20.0300   -2.5750  -44.4390 C.ar   55  TYR55      -0.0200
     73  CD1       20.0100   -3.3310  -45.6080 C.ar   55  TYR55      -0.0009
     74  CD2       20.5370   -3.1650  -43.2830 C.ar   55  TYR55      -0.0009
     75  CE1       20.4850   -4.6330  -45.6280 C.ar   55  TYR55       0.0417
     76  CE2       21.0130   -4.4660  -43.2920 C.ar   55  TYR55       0.0417
     77  CZ        20.9860   -5.1960  -44.4660 C.ar   55  TYR55       0.1957
     78  OH        21.4590   -6.4860  -44.4760 O.3    55  TYR55      -0.2866
     79  N         17.4260   -1.1720  -42.0350 N.am   56  TYR56      -0.1976
     80  CA        16.9330   -1.7760  -40.7960 C.3    56  TYR56       0.1639
     81  C         15.4700   -1.4770  -40.5220 C.2    56  TYR56       0.2290
     82  O         14.8370   -2.1710  -39.7240 O.2    56  TYR56      -0.2864
     83  CB        17.7690   -1.3020  -39.6140 C.3    56  TYR56       0.0560
     84  CG        19.2050   -1.7500  -39.7040 C.ar   56  TYR56      -0.0198
     85  CD1       19.5510   -3.0790  -39.4830 C.ar   56  TYR56      -0.0009
     86  CD2       20.2170   -0.8500  -40.0170 C.ar   56  TYR56      -0.0009
     87  CE1       20.8670   -3.4950  -39.5680 C.ar   56  TYR56       0.0417
     88  CE2       21.5380   -1.2540  -40.0990 C.ar   56  TYR56       0.0417
     89  CZ        21.8580   -2.5770  -39.8770 C.ar   56  TYR56       0.1957
     90  OH        23.1690   -2.9850  -39.9700 O.3    56  TYR56      -0.2866
     91  N         14.4220    1.4210  -39.2400 N.3    58  TYR58      -0.1241
     92  CA        14.3630    2.2650  -38.0510 C.3    58  TYR58       0.1605
     93  C         14.1610    3.7240  -38.4320 C.2    58  TYR58       0.2264
     94  O         14.7960    4.2260  -39.3560 O.2    58  TYR58      -0.2867
     95  CB        15.6540    2.1620  -37.2270 C.3    58  TYR58       0.0534
     96  CG        15.9650    0.8060  -36.6320 C.ar   58  TYR58      -0.0201
     97  CD1       14.9570   -0.0670  -36.2420 C.ar   58  TYR58      -0.0009
     98  CD2       17.2740    0.4160  -36.4210 C.ar   58  TYR58      -0.0009
     99  CE1       15.2530   -1.2970  -35.6840 C.ar   58  TYR58       0.0417
    100  CE2       17.5770   -0.8110  -35.8610 C.ar   58  TYR58       0.0417
    101  CZ        16.5630   -1.6600  -35.4940 C.ar   58  TYR58       0.1957
    102  OH        16.8540   -2.8810  -34.9340 O.3    58  TYR58      -0.2866
    103  N         13.7030    7.6600  -36.3260 N.3    60  TYR60      -0.1241
    104  CA        13.8180    8.3650  -35.0560 C.3    60  TYR60       0.1605
    105  C         13.3660    9.8100  -35.2330 C.2    60  TYR60       0.2264
    106  O         13.5550   10.3940  -36.3000 O.2    60  TYR60      -0.2867
    107  CB        15.2620    8.3330  -34.5570 C.3    60  TYR60       0.0534
    108  CG        15.8710    6.9560  -34.4810 C.ar   60  TYR60      -0.0201
    109  CD1       15.7310    6.1710  -33.3400 C.ar   60  TYR60      -0.0009
    110  CD2       16.6090    6.4430  -35.5430 C.ar   60  TYR60      -0.0009
    111  CE1       16.3050    4.9120  -33.2610 C.ar   60  TYR60       0.0417
    112  CE2       17.1830    5.1850  -35.4760 C.ar   60  TYR60       0.0417
    113  CZ        17.0270    4.4250  -34.3340 C.ar   60  TYR60       0.1957
    114  OH        17.5930    3.1690  -34.2740 O.3    60  TYR60      -0.2866
    115  N         24.1090   10.2940  -43.6600 N.3   100  GLY100     -0.1210
    116  CA        24.8330    9.8530  -42.4790 C.3   100  GLY100      0.1956
    117  C         26.1580    9.1800  -42.7860 C.2   100  GLY100      0.2612
    118  O         26.3490    8.5980  -43.8540 O.2   100  GLY100     -0.2717
    119  N         27.0620    9.2750  -41.8160 N.am  101  TYR101     -0.1962
    120  CA        28.4010    8.7020  -41.8630 C.3   101  TYR101      0.1771
    121  C         28.6160    8.1020  -40.4690 C.2   101  TYR101      0.2620
    122  O         27.6780    8.0740  -39.6710 O.2   101  TYR101     -0.2715
    123  CB        29.4010    9.8210  -42.1650 C.3   101  TYR101      0.0574
    124  CG        30.7990    9.3880  -42.5540 C.ar  101  TYR101     -0.0198
    125  CD1       31.0140    8.5080  -43.6090 C.ar  101  TYR101     -0.0009
    126  CD2       31.9130    9.8930  -41.8840 C.ar  101  TYR101     -0.0009
    127  CE1       32.3000    8.1240  -43.9680 C.ar  101  TYR101      0.0417
    128  CE2       33.1980    9.5190  -42.2350 C.ar  101  TYR101      0.0417
    129  CZ        33.3880    8.6340  -43.2770 C.ar  101  TYR101      0.1957
    130  OH        34.6670    8.2650  -43.6280 O.3   101  TYR101     -0.2866
    131  N         29.8200    7.6270  -40.1620 N.am  102  TYR102     -0.1960
    132  CA        30.0960    7.0460  -38.8400 C.3   102  TYR102      0.1771
    133  C         29.4830    7.8740  -37.7030 C.2   102  TYR102      0.2620
    134  O         29.6530    9.0950  -37.6460 O.2   102  TYR102     -0.2715
    135  CB        31.6010    6.9090  -38.6010 C.3   102  TYR102      0.0574
    136  CG        32.2900    5.9040  -39.4950 C.ar  102  TYR102     -0.0198
    137  CD1       32.0760    4.5390  -39.3340 C.ar  102  TYR102     -0.0009
    138  CD2       33.1730    6.3160  -40.4920 C.ar  102  TYR102     -0.0009
    139  CE1       32.7090    3.6110  -40.1510 C.ar  102  TYR102      0.0417
    140  CE2       33.8120    5.3960  -41.3120 C.ar  102  TYR102      0.0417
    141  CZ        33.5740    4.0450  -41.1380 C.ar  102  TYR102      0.1957
    142  OH        34.2010    3.1330  -41.9470 O.3   102  TYR102     -0.2866
    143  N         28.7480    7.2020  -36.8190 N.am  103  GLY103     -0.1940
    144  CA        28.1660    7.8410  -35.6360 C.3   103  GLY103      0.2014
    145  C         27.0490    8.8310  -35.9230 C.2   103  GLY103      0.2638
    146  O         26.8070    9.7430  -35.1300 O.2   103  GLY103     -0.2714
    147  N         26.3790    8.6660  -37.0620 N.am  104  ALA104     -0.1977
    148  CA        25.3880    9.6350  -37.5320 C.3   104  ALA104      0.1597
    149  C         25.9830   11.0310  -37.7880 C.2   104  ALA104      0.2287
    150  O         25.2590   12.0230  -37.8230 O.2   104  ALA104     -0.2864
    151  CB        24.2220    9.7220  -36.5590 C.3   104  ALA104      0.0319
@<TRIPOS>BOND
     1    10     8   ar
     2    10    11   ar
     3    12    11    1
     4     8     6   ar
     5    11     9   ar
     6     6     5    1
     7     6     7   ar
     8     9     7   ar
     9     5     2    1
    10     1     2    1
    11    18    17    1
    12     2     3    1
    13    17    14    1
    14     3    13   am
    15     3     4    2
    16    13    14    1
    17    14    15    1
    18    75    73   ar
    19    75    77   ar
    20    73    72   ar
    21    15    16    2
    22    15    19   am
    23    22    21    2
    24    78    77    1
    25    19    20    1
    26    77    76   ar
    27    72    71    1
    28    72    74   ar
    29    67    68    1
    30    71    68    1
    31    68    69    1
    32    21    20    1
    33   127   125   ar
    34   127   129   ar
    35   118   117    2
    36   115   116    1
    37   130   129    1
    38   125   124   ar
    39    20    23    1
    40    70    69    2
    41    76    74   ar
    42   129   128   ar
    43    69    79   am
    44    28    27    2
    45    25    26    1
    46   117   116    1
    47   117   119   am
    48   124   123    1
    49   124   126   ar
    50    57    58    2
    51    57    56    1
    52   128   126   ar
    53   123   120    1
    54    23    24    1
    55    27    26    1
    56    79    80    1
    57   142   141    1
    58   120   119    1
    59   120   121    1
    60    56    55    1
    61    56    59    1
    62    26    29    1
    63   140   141   ar
    64   140   138   ar
    65    32    34   ar
    66    32    30   ar
    67   141   139   ar
    68    80    81    1
    69    80    83    1
    70    29    30    1
    71    34    33   ar
    72    81    82    2
    73    30    31   ar
    74   138   136   ar
    75    59    60    1
    76   121   131   am
    77   121   122    2
    78   131   132    1
    79   139   137   ar
    80    88    86   ar
    81    88    89   ar
    82    86    84   ar
    83    62    60   ar
    84    62    64   ar
    85    90    89    1
    86    89    87   ar
    87    60    61   ar
    88    84    83    1
    89    84    85   ar
    90    51    50    1
    91    51    52    2
    92    87    85   ar
    93   136   137   ar
    94   136   135    1
    95    33    31   ar
    96    64    65   ar
    97    94    93    2
    98    91    92    1
    99    50    49    1
   100    50    53    1
   101    61    63   ar
   102   132   135    1
   103   132   133    1
   104    65    63   ar
   105    65    66    1
   106    93    92    1
   107    53    54    1
   108    92    95    1
   109   150   149    2
   110   149   148    1
   111   133   134    2
   112   133   143   am
   113   148   147    1
   114   148   151    1
   115    95    96    1
   116   147   145   am
   117   143   144    1
   118    96    98   ar
   119    96    97   ar
   120    98   100   ar
   121    43    41   ar
   122    43    44   ar
   123    41    40   ar
   124   103   104    1
   125   106   105    2
   126    97    99   ar
   127   145   144    1
   128   145   146    2
   129   100   101   ar
   130    99   101   ar
   131   110   112   ar
   132   110   108   ar
   133   101   102    1
   134   112   113   ar
   135    36    37    1
   136    36    35    1
   137    36    39    1
   138    37    38    2
   139    44    46   ar
   140    44    42   ar
   141   105   104    1
   142    40    39    1
   143    40    42   ar
   144   104   107    1
   145    46    48   ar
   146   107   108    1
   147   108   109   ar
   148    42    45   ar
   149   113   114    1
   150   113   111   ar
   151    48    47   ar
   152   109   111   ar
   153    45    47   ar
