@<TRIPOS>MOLECULE
tmp/4xh1A00.pdb
 143 135 0 0 0
SMALL
GASTEIGER

@<TRIPOS>ATOM
      1  N         15.2820   73.4390   72.6600 N.3    82  ARG82      -0.1245
      2  CA        14.9390   74.5370   71.7790 C.3    82  ARG82       0.1563
      3  C         16.0780   74.8620   70.9150 C.2    82  ARG82       0.2260
      4  O         17.1600   75.1990   71.4040 O.2    82  ARG82      -0.2867
      5  CB        14.6060   75.7630   72.6230 C.3    82  ARG82       0.0307
      6  CG        14.2520   76.9350   71.7180 C.3    82  ARG82       0.0489
      7  CD        13.4100   77.9240   72.5120 C.3    82  ARG82       0.2205
      8  NE        13.1330   79.2100   71.8790 N.pl3  82  ARG82      -0.0865
      9  CZ        13.9860   79.9890   71.2100 C.cat  82  ARG82       0.5346
     10  NH1       15.2640   79.6530   70.9850 N.pl3  82  ARG82       0.1354
     11  NH2       13.5220   81.1570   70.7540 N.pl3  82  ARG82       0.1354
     12  N         10.3540   83.1820   66.4820 N.3   171  HIS171     -0.1241
     13  CA         9.2410   83.0540   67.3970 C.3   171  HIS171      0.1621
     14  C          8.2390   82.0170   66.9190 C.2   171  HIS171      0.2264
     15  O          7.0710   82.0590   67.2230 O.2   171  HIS171     -0.2867
     16  CB         8.5580   84.4000   67.5260 C.3   171  HIS171      0.0745
     17  CG         9.3870   85.4330   68.1910 C.ar  171  HIS171      0.0817
     18  ND1        9.4720   86.7380   67.7170 N.ar  171  HIS171     -0.2268
     19  CD2       10.0740   85.4050   69.3550 C.ar  171  HIS171      0.1154
     20  CE1       10.2160   87.4460   68.5430 C.ar  171  HIS171      0.1986
     21  NE2       10.6020   86.6580   69.5350 N.ar  171  HIS171     -0.2212
     22  N          3.8440   88.9580   68.3330 N.3   199  HIS199     -0.1241
     23  CA         4.6600   88.5920   69.4220 C.3   199  HIS199      0.1621
     24  C          5.5500   89.7740   69.7810 C.2   199  HIS199      0.2264
     25  O          6.5370   90.0410   69.0900 O.2   199  HIS199     -0.2867
     26  CB         5.5340   87.3670   69.0670 C.3   199  HIS199      0.0745
     27  CG         6.3180   86.8620   70.2160 C.ar  199  HIS199      0.0817
     28  ND1        5.9590   85.7230   70.9360 N.ar  199  HIS199     -0.2268
     29  CD2        7.4320   87.3330   70.8010 C.ar  199  HIS199      0.1154
     30  CE1        6.8240   85.5280   71.8970 C.ar  199  HIS199      0.1986
     31  NE2        7.7270   86.4880   71.8410 N.ar  199  HIS199     -0.2212
     32  N          7.8170   90.9610   72.6620 N.3   201  GLY201     -0.1210
     33  CA         8.6170   90.6700   73.8740 C.3   201  GLY201      0.1956
     34  C          9.8990   91.4970   73.7100 C.2   201  GLY201      0.2612
     35  O          9.8540   92.5800   73.1560 O.2   201  GLY201     -0.2717
     36  N         11.0300   90.9930   74.1470 N.am  202  ASN202     -0.1960
     37  CA        12.3030   91.7180   73.9610 C.3   202  ASN202      0.1819
     38  C         12.6690   91.7240   72.4800 C.2   202  ASN202      0.2621
     39  O         13.2250   92.7390   71.9340 O.2   202  ASN202     -0.2715
     40  CB        13.4290   90.9850   74.7020 C.3   202  ASN202      0.1195
     41  CG        13.3390   91.1330   76.1990 C.2   202  ASN202      0.2630
     42  OD1       13.3920   92.2480   76.7140 O.2   202  ASN202     -0.2716
     43  ND2       13.2180   90.0010   76.9130 N.am  202  ASN202     -0.0877
     44  N         12.4500   90.5350   71.8800 N.am  203  GLY203     -0.1954
     45  CA        12.3810   90.3750   70.4540 C.3   203  GLY203      0.1869
     46  C         10.9180   90.5010   70.0840 C.2   203  GLY203      0.2309
     47  O         10.0430   90.2610   70.9140 O.2   203  GLY203     -0.2863
     48  N         14.4440  100.9000   70.8760 N.3   265  LEU265     -0.1245
     49  CA        13.8810  101.7810   71.9360 C.3   265  LEU265      0.1561
     50  C         15.0020  102.5070   72.7160 C.2   265  LEU265      0.2260
     51  O         14.9160  103.7300   73.0130 O.2   265  LEU265     -0.2867
     52  CB        13.0230  100.9600   72.8580 C.3   265  LEU265      0.0270
     53  CG        11.6850  100.4280   72.3570 C.3   265  LEU265      0.0019
     54  CD1       11.1330   99.4280   73.3900 C.3   265  LEU265      0.0001
     55  CD2       10.6400  101.5340   72.0770 C.3   265  LEU265      0.0001
     56  N         16.0910  100.1730   77.0760 N.3   273  SER273     -0.1202
     57  CA        15.3920   99.2440   76.2220 C.3   273  SER273      0.2020
     58  C         14.1020   98.8230   76.8630 C.2   273  SER273      0.2619
     59  O         13.3030   98.1570   76.2320 O.2   273  SER273     -0.2717
     60  CB        16.2380   98.0020   75.9830 C.3   273  SER273      0.2103
     61  OG        16.2460   97.1810   77.1300 O.3   273  SER273     -0.2182
     62  N         13.8660   99.2150   78.1040 N.am  274  ASP274     -0.1959
     63  CA        12.7050   98.7470   78.8340 C.3   274  ASP274      0.1840
     64  C         11.4930   99.6360   78.6720 C.2   274  ASP274      0.2622
     65  O         11.4860  100.7990   79.0670 O.2   274  ASP274     -0.2715
     66  CB        13.0490   98.6490   80.3390 C.3   274  ASP274      0.1450
     67  CG        12.0220   97.8270   81.0990 C.2   274  ASP274      0.3671
     68  OD1       10.9110   98.3100   81.2720 O.co2 274  ASP274     -0.2456
     69  OD2       12.3240   96.6680   81.4320 O.co2 274  ASP274     -0.2456
     70  N         10.4080   99.0570   78.1870 N.am  275  LEU275     -0.1963
     71  CA         9.2000   99.8290   77.8980 C.3   275  LEU275      0.1728
     72  C          8.5450  100.5490   79.1070 C.2   275  LEU275      0.2616
     73  O          8.0800  101.7040   78.9830 O.2   275  LEU275     -0.2715
     74  CB         8.1790   98.8970   77.1930 C.3   275  LEU275      0.0311
     75  CG         6.8340   99.4520   76.7600 C.3   275  LEU275      0.0022
     76  CD1        7.0840  100.6450   75.8450 C.3   275  LEU275      0.0001
     77  CD2        6.0920   98.3820   75.9770 C.3   275  LEU275      0.0001
     78  N          8.4830   99.8710   80.2530 N.am  276  ARG276     -0.1977
     79  CA         7.9330  100.4580   81.4870 C.3   276  ARG276      0.1597
     80  C          8.7450  101.6970   81.9610 C.2   276  ARG276      0.2287
     81  O          8.1590  102.7070   82.3980 O.2   276  ARG276     -0.2864
     82  CB         7.8390   99.4040   82.5990 C.3   276  ARG276      0.0334
     83  CG         6.8010   98.3270   82.2680 C.3   276  ARG276      0.0492
     84  CD         5.4330   98.8590   82.7040 C.3   276  ARG276      0.2205
     85  NE         4.4400   97.7430   82.5590 N.pl3 276  ARG276     -0.0865
     86  CZ         3.8900   97.4550   81.3790 C.cat 276  ARG276      0.5346
     87  NH1        4.0890   98.1670   80.2730 N.pl3 276  ARG276      0.1354
     88  NH2        3.2210   96.2920   81.2530 N.pl3 276  ARG276      0.1354
     89  N          3.3820   87.7610   74.0150 N.3   321  GLY321     -0.1210
     90  CA         4.7400   88.0970   74.4410 C.3   321  GLY321      0.1956
     91  C          4.6260   89.0640   75.6190 C.2   321  GLY321      0.2612
     92  O          3.5470   89.5430   75.9520 O.2   321  GLY321     -0.2717
     93  N          5.7020   89.2760   76.3000 N.am  322  GLY322     -0.1942
     94  CA         5.6790   90.1160   77.5050 C.3   322  GLY322      0.2014
     95  C          5.0130   91.4630   77.3250 C.2   322  GLY322      0.2638
     96  O          4.3090   91.9320   78.2030 O.2   322  GLY322     -0.2714
     97  N          5.3080   92.1470   76.2100 N.am  323  ILE323     -0.1977
     98  CA         4.7100   93.4410   75.9660 C.3   323  ILE323      0.1596
     99  C          3.3200   93.2900   75.5390 C.2   323  ILE323      0.2287
    100  O          2.3800   93.9830   76.0220 O.2   323  ILE323     -0.2864
    101  CB         5.5320   94.2910   74.9230 C.3   323  ILE323      0.0276
    102  CG1        6.8510   94.6730   75.4970 C.3   323  ILE323      0.0022
    103  CG2        4.7510   95.5200   74.5250 C.3   323  ILE323      0.0022
    104  CD1        7.8440   95.2190   74.4460 C.3   323  ILE323      0.0001
    105  N          1.2280   91.0310   76.0930 N.3   325  GLU325     -0.1231
    106  CA         0.3870   90.5030   77.2110 C.3   325  GLU325      0.1699
    107  C          0.1130   91.4990   78.3360 C.2   325  GLU325      0.2592
    108  O         -0.9940   91.4860   78.9370 O.2   325  GLU325     -0.2718
    109  CB         1.0680   89.2470   77.8180 C.3   325  GLU325      0.0402
    110  CG         1.0510   88.0610   76.8080 C.3   325  GLU325      0.1161
    111  CD         1.9530   86.9170   77.2880 C.2   325  GLU325      0.3649
    112  OE1        1.9140   86.6930   78.5170 O.co2 325  GLU325     -0.2457
    113  OE2        2.6310   86.2480   76.4670 O.co2 325  GLU325     -0.2457
    114  N          1.1150   92.3220   78.6060 N.am  326  ASN326     -0.1960
    115  CA         1.0300   93.2600   79.7220 C.3   326  ASN326      0.1819
    116  C          0.8130   94.7460   79.3800 C.2   326  ASN326      0.2622
    117  O          0.3450   95.4730   80.2520 O.2   326  ASN326     -0.2715
    118  CB         2.2360   93.1410   80.5670 C.3   326  ASN326      0.1195
    119  CG         2.3210   91.7300   81.1710 C.2   326  ASN326      0.2630
    120  OD1        1.4820   91.3950   81.9470 O.2   326  ASN326     -0.2716
    121  ND2        3.2630   90.9500   80.7710 N.am  326  ASN326     -0.0877
    122  N          1.1720   95.2030   78.1730 N.am  327  SER327     -0.1950
    123  CA         1.0520   96.6600   77.9060 C.3   327  SER327      0.1924
    124  C         -0.3010   97.0510   77.4190 C.2   327  SER327      0.2314
    125  O         -0.6520   96.9760   76.2280 O.2   327  SER327     -0.2863
    126  CB         2.1170   97.1190   76.9510 C.3   327  SER327      0.2116
    127  OG         2.0190   98.5260   76.8200 O.3   327  SER327     -0.2180
    128  N          1.6010   83.5300   75.5730 N.3   375  THR375     -0.1218
    129  CA         2.3210   82.5090   74.8340 C.3   375  THR375      0.1862
    130  C          2.9400   81.5320   75.8910 C.2   375  THR375      0.2287
    131  O          3.0830   81.8760   77.0440 O.2   375  THR375     -0.2866
    132  CB         3.3760   83.0580   73.8790 C.3   375  THR375      0.1770
    133  OG1        3.8420   81.9830   73.0500 O.3   375  THR375     -0.2211
    134  CG2        4.5390   83.6740   74.6120 C.3   375  THR375      0.0375
    135  N          5.7990   78.7140   75.3180 N.3   377  GLU377     -0.1245
    136  CA         6.6650   78.0010   74.4660 C.3   377  GLU377      0.1567
    137  C          7.0980   76.6530   75.0840 C.2   377  GLU377      0.2260
    138  O          7.2270   75.6680   74.3690 O.2   377  GLU377     -0.2867
    139  CB         7.8490   78.9030   74.1840 C.3   377  GLU377      0.0388
    140  CG         7.4060   80.0210   73.2050 C.3   377  GLU377      0.1160
    141  CD         8.3000   81.2470   73.2240 C.2   377  GLU377      0.3649
    142  OE1        8.0760   82.1510   74.0750 O.co2 377  GLU377     -0.2457
    143  OE2        9.1940   81.2950   72.3540 O.co2 377  GLU377     -0.2457
@<TRIPOS>BOND
     1    12    13    1
     2    14    15    2
     3    14    13    1
     4    13    16    1
     5    16    17    1
     6    18    17   ar
     7    18    20   ar
     8    17    19   ar
     9    22    23    1
    10    20    21   ar
    11    26    23    1
    12    26    27    1
    13    25    24    2
    14    19    21   ar
    15    23    24    1
    16    46    45    1
    17    46    47    2
    18    27    29   ar
    19    27    28   ar
    20    45    44    1
    21    11     9    1
    22    29    31   ar
    23    48    49    1
    24     3     4    2
    25     3     2    1
    26    28    30   ar
    27    10     9    1
    28     9     8    2
    29     6     7    1
    30     6     5    1
    31     2     5    1
    32     2     1    1
    33    31    30   ar
    34     8     7    1
    35    44    38   am
    36    39    38    2
    37    49    50    1
    38    49    52    1
    39    55    53    1
    40   143   141   ar
    41    53    52    1
    42    53    54    1
    43    38    37    1
    44    32    33    1
    45    50    51    2
    46   133   132    1
    47    35    34    2
    48   140   141    1
    49   140   139    1
    50   141   142   ar
    51    34    33    1
    52    34    36   am
    53   132   134    1
    54   132   129    1
    55    37    36    1
    56    37    40    1
    57    89    90    1
    58   139   136    1
    59   138   137    2
    60    90    91    1
    61   104   102    1
    62   136   137    1
    63   136   135    1
    64   103   101    1
    65    40    41    1
    66   129   128    1
    67   129   130    1
    68   101   102    1
    69   101    98    1
    70    99    98    1
    71    99   100    2
    72    91    92    2
    73    91    93   am
    74    76    75    1
    75   130   131    2
    76    98    97    1
    77    77    75    1
    78    60    57    1
    79    60    61    1
    80   105   106    1
    81    41    42    2
    82    41    43   am
    83    97    95   am
    84    57    58    1
    85    57    56    1
    86   125   124    2
    87    59    58    2
    88    93    94    1
    89   113   111   ar
    90    75    74    1
    91   110   111    1
    92   110   109    1
    93   127   126    1
    94    58    62   am
    95   126   123    1
    96    74    71    1
    97   106   109    1
    98   106   107    1
    99   111   112   ar
   100    95    94    1
   101    95    96    2
   102   124   123    1
   103    71    70    1
   104    71    72    1
   105   123   122    1
   106    62    63    1
   107   122   116   am
   108    70    64   am
   109   107   114   am
   110   107   108    2
   111   114   115    1
   112    64    63    1
   113    64    65    2
   114    63    66    1
   115    73    72    2
   116    72    78   am
   117   116   115    1
   118   116   117    2
   119   115   118    1
   120    78    79    1
   121    87    86    1
   122    66    67    1
   123   118   119    1
   124   121   119   am
   125    67    68   ar
   126    67    69   ar
   127   119   120    2
   128    88    86    1
   129    86    85    2
   130    79    80    1
   131    79    82    1
   132    80    81    2
   133    83    82    1
   134    83    84    1
   135    85    84    1
