@<TRIPOS>MOLECULE
tmp/4xh2C00.pdb
 150 154 0 0 0
SMALL
GASTEIGER

@<TRIPOS>ATOM
      1  N         65.3470  -30.9140  192.4540 N.3    31  SER31      -0.1202
      2  CA        64.6960  -30.6450  193.7460 C.3    31  SER31       0.2020
      3  C         63.7130  -29.4590  193.7250 C.2    31  SER31       0.2619
      4  O         62.8690  -29.3430  194.6170 O.2    31  SER31      -0.2717
      5  CB        65.7540  -30.4020  194.8280 C.3    31  SER31       0.2103
      6  OG        66.5830  -31.5370  194.9930 O.3    31  SER31      -0.2182
      7  N         63.8320  -28.5820  192.7250 N.am   32  TYR32      -0.1961
      8  CA        62.9770  -27.3920  192.6040 C.3    32  TYR32       0.1771
      9  C         62.6030  -27.1180  191.1460 C.2    32  TYR32       0.2620
     10  O         63.4850  -26.9180  190.3070 O.2    32  TYR32      -0.2715
     11  CB        63.7010  -26.1580  193.1420 C.3    32  TYR32       0.0574
     12  CG        64.0310  -26.1870  194.6180 C.ar   32  TYR32      -0.0198
     13  CD1       63.0700  -25.8610  195.5730 C.ar   32  TYR32      -0.0009
     14  CD2       65.3140  -26.5060  195.0610 C.ar   32  TYR32      -0.0009
     15  CE1       63.3710  -25.8670  196.9260 C.ar   32  TYR32       0.0417
     16  CE2       65.6250  -26.5140  196.4110 C.ar   32  TYR32       0.0417
     17  CZ        64.6510  -26.1930  197.3380 C.ar   32  TYR32       0.1957
     18  OH        64.9530  -26.1990  198.6770 O.3    32  TYR32      -0.2866
     19  N         61.3050  -27.0860  190.8500 N.am   33  SER33      -0.1950
     20  CA        60.8300  -26.7790  189.4960 C.3    33  SER33       0.1924
     21  C         61.1430  -25.3270  189.1020 C.2    33  SER33       0.2314
     22  O         61.2050  -24.4420  189.9590 O.2    33  SER33      -0.2863
     23  CB        59.3280  -27.0490  189.3770 C.3    33  SER33       0.2116
     24  OG        58.5970  -26.3510  190.3660 O.3    33  SER33      -0.2180
     25  N         60.6280  -21.8420  186.4160 N.3    35  HIS35      -0.1241
     26  CA        59.6730  -21.0690  185.6130 C.3    35  HIS35       0.1621
     27  C         60.3510  -20.0780  184.7070 C.2    35  HIS35       0.2264
     28  O         61.4570  -19.6260  184.9980 O.2    35  HIS35      -0.2867
     29  CB        58.7420  -20.2830  186.5280 C.3    35  HIS35       0.0745
     30  CG        57.7810  -21.1380  187.3080 C.ar   35  HIS35       0.0817
     31  ND1       56.5840  -21.5130  186.8180 N.ar   35  HIS35      -0.2268
     32  CD2       57.8700  -21.6760  188.5910 C.ar   35  HIS35       0.1154
     33  CE1       55.9390  -22.2530  187.7370 C.ar   35  HIS35       0.1986
     34  NE2       56.7290  -22.3530  188.8230 N.ar   35  HIS35      -0.2212
     35  N         53.8700  -14.4380  183.2170 N.3    47  TRP47      -0.1241
     36  CA        54.3010  -15.8330  183.3400 C.3    47  TRP47       0.1605
     37  C         54.1000  -16.5320  182.0200 C.2    47  TRP47       0.2264
     38  O         53.0720  -16.3400  181.3700 O.2    47  TRP47      -0.2867
     39  CB        53.5200  -16.5370  184.4520 C.3    47  TRP47       0.0550
     40  CG        53.6860  -18.0380  184.4560 C.ar   47  TRP47       0.0003
     41  CD1       54.6050  -18.7960  185.1780 C.ar   47  TRP47       0.0946
     42  CD2       52.9100  -19.0140  183.6840 C.ar   47  TRP47       0.0152
     43  NE1       54.4490  -20.1330  184.9140 N.ar   47  TRP47      -0.2442
     44  CE2       53.4530  -20.3300  184.0250 C.ar   47  TRP47       0.0810
     45  CE3       51.8610  -18.9310  182.7800 C.ar   47  TRP47       0.0012
     46  CZ2       52.9500  -21.4980  183.4690 C.ar   47  TRP47       0.0191
     47  CZ3       51.3620  -20.1150  182.2240 C.ar   47  TRP47       0.0001
     48  CH2       51.8950  -21.3680  182.5640 C.ar   47  TRP47       0.0015
     49  N         56.4730  -23.3450  182.6910 N.3    50  TYR50      -0.1241
     50  CA        56.8220  -24.0570  183.9220 C.3    50  TYR50       0.1605
     51  C         57.3970  -25.4270  183.5660 C.2    50  TYR50       0.2264
     52  O         57.0740  -25.9800  182.5130 O.2    50  TYR50      -0.2867
     53  CB        55.5640  -24.2110  184.7910 C.3    50  TYR50       0.0534
     54  CG        55.5640  -25.3830  185.7630 C.ar   50  TYR50      -0.0201
     55  CD1       56.3040  -25.3410  186.9450 C.ar   50  TYR50      -0.0009
     56  CD2       54.8080  -26.5310  185.5060 C.ar   50  TYR50      -0.0009
     57  CE1       56.3010  -26.4050  187.8360 C.ar   50  TYR50       0.0417
     58  CE2       54.8010  -27.6020  186.3940 C.ar   50  TYR50       0.0417
     59  CZ        55.5490  -27.5340  187.5600 C.ar   50  TYR50       0.1957
     60  OH        55.5510  -28.5860  188.4490 O.3    50  TYR50      -0.2866
     61  N         58.6440  -29.1690  185.8240 N.3    52  SER52      -0.1217
     62  CA        59.1160  -30.0440  186.8960 C.3    52  SER52       0.1889
     63  C         60.2420  -30.9160  186.3260 C.2    52  SER52       0.2288
     64  O         60.0200  -31.7050  185.4020 O.2    52  SER52      -0.2866
     65  CB        57.9720  -30.9080  187.4320 C.3    52  SER52       0.2089
     66  OG        58.3060  -31.4750  188.6860 O.3    52  SER52      -0.2183
     67  N         57.5340  -32.7770  183.5890 N.3    57  TYR57      -0.1241
     68  CA        56.1810  -32.3010  183.2980 C.3    57  TYR57       0.1605
     69  C         56.2110  -30.7810  183.1170 C.2    57  TYR57       0.2264
     70  O         56.8780  -30.0830  183.8830 O.2    57  TYR57      -0.2867
     71  CB        55.2360  -32.6950  184.4380 C.3    57  TYR57       0.0534
     72  CG        53.8190  -32.2020  184.2640 C.ar   57  TYR57      -0.0201
     73  CD1       53.4020  -31.0140  184.8540 C.ar   57  TYR57      -0.0009
     74  CD2       52.8950  -32.9190  183.5060 C.ar   57  TYR57      -0.0009
     75  CE1       52.1090  -30.5510  184.6970 C.ar   57  TYR57       0.0417
     76  CE2       51.5960  -32.4650  183.3430 C.ar   57  TYR57       0.0417
     77  CZ        51.2090  -31.2790  183.9410 C.ar   57  TYR57       0.1957
     78  OH        49.9240  -30.8140  183.7890 O.3    57  TYR57      -0.2866
     79  N         54.1180  -26.8950  181.4840 N.3    59  TYR59      -0.1241
     80  CA        52.9000  -26.1380  181.1790 C.3    59  TYR59       0.1605
     81  C         53.2750  -24.7570  180.6150 C.2    59  TYR59       0.2264
     82  O         54.1720  -24.0950  181.1400 O.2    59  TYR59      -0.2867
     83  CB        52.0460  -25.9790  182.4480 C.3    59  TYR59       0.0534
     84  CG        50.5450  -25.8010  182.2350 C.ar   59  TYR59      -0.0201
     85  CD1       50.0220  -25.3070  181.0390 C.ar   59  TYR59      -0.0009
     86  CD2       49.6460  -26.0980  183.2550 C.ar   59  TYR59      -0.0009
     87  CE1       48.6630  -25.1370  180.8580 C.ar   59  TYR59       0.0417
     88  CE2       48.2790  -25.9280  183.0810 C.ar   59  TYR59       0.0417
     89  CZ        47.7960  -25.4450  181.8790 C.ar   59  TYR59       0.1957
     90  OH        46.4450  -25.2660  181.6850 O.3    59  TYR59      -0.2866
     91  N         60.7020  -22.0720  192.1170 N.3    99  THR99      -0.1203
     92  CA        59.5250  -22.1720  192.9830 C.3    99  THR99       0.1994
     93  C         59.9060  -22.2530  194.4690 C.2    99  THR99       0.2618
     94  O         60.9590  -22.7860  194.8240 O.2    99  THR99      -0.2717
     95  CB        58.6730  -23.4050  192.6160 C.3    99  THR99       0.1784
     96  OG1       58.2720  -23.3190  191.2430 O.3    99  THR99      -0.2211
     97  CG2       57.4310  -23.5020  193.5000 C.3    99  THR99       0.0376
     98  N         59.0390  -21.7110  195.3230 N.am  100  TRP100     -0.1961
     99  CA        59.2110  -21.7550  196.7780 C.3   100  TRP100      0.1771
    100  C         57.8460  -21.6550  197.3970 C.2   100  TRP100      0.2620
    101  O         57.3580  -20.5540  197.6780 O.2   100  TRP100     -0.2715
    102  CB        60.1260  -20.6210  197.2340 C.3   100  TRP100      0.0590
    103  CG        60.3230  -20.4950  198.7300 C.ar  100  TRP100      0.0006
    104  CD1       59.6020  -19.6980  199.6180 C.ar  100  TRP100      0.0946
    105  CD2       61.3450  -21.1560  199.5650 C.ar  100  TRP100      0.0152
    106  NE1       60.0810  -19.8300  200.8990 N.ar  100  TRP100     -0.2442
    107  CE2       61.1220  -20.6860  200.9380 C.ar  100  TRP100      0.0810
    108  CE3       62.3700  -22.0580  199.3230 C.ar  100  TRP100      0.0012
    109  CZ2       61.9070  -21.1150  202.0000 C.ar  100  TRP100      0.0191
    110  CZ3       63.1580  -22.4810  200.4030 C.ar  100  TRP100      0.0001
    111  CH2       62.9280  -22.0200  201.7090 C.ar  100  TRP100      0.0015
    112  N         57.2150  -22.8160  197.5890 N.am  101  TYR101     -0.1960
    113  CA        55.7970  -22.9130  197.9580 C.3   101  TYR101      0.1771
    114  C         54.9540  -22.2190  196.8770 C.2   101  TYR101      0.2620
    115  O         55.1610  -22.4780  195.6890 O.2   101  TYR101     -0.2715
    116  CB        55.5470  -22.3640  199.3730 C.3   101  TYR101      0.0574
    117  CG        56.3890  -23.0360  200.4350 C.ar  101  TYR101     -0.0198
    118  CD1       55.9470  -24.1930  201.0760 C.ar  101  TYR101     -0.0009
    119  CD2       57.6340  -22.5240  200.7900 C.ar  101  TYR101     -0.0009
    120  CE1       56.7210  -24.8140  202.0470 C.ar  101  TYR101      0.0417
    121  CE2       58.4140  -23.1380  201.7580 C.ar  101  TYR101      0.0417
    122  CZ        57.9550  -24.2820  202.3820 C.ar  101  TYR101      0.1957
    123  OH        58.7290  -24.8910  203.3410 O.3   101  TYR101     -0.2866
    124  N         54.0100  -21.3640  197.2700 N.am  102  TYR102     -0.1960
    125  CA        53.2750  -20.5350  196.3090 C.3   102  TYR102      0.1771
    126  C         54.0040  -19.1960  196.1500 C.2   102  TYR102      0.2620
    127  O         53.7730  -18.2530  196.9140 O.2   102  TYR102     -0.2715
    128  CB        51.8310  -20.3070  196.7640 C.3   102  TYR102      0.0574
    129  CG        50.9250  -21.5090  196.6060 C.ar  102  TYR102     -0.0198
    130  CD1       50.5160  -21.9370  195.3450 C.ar  102  TYR102     -0.0009
    131  CD2       50.4570  -22.2070  197.7190 C.ar  102  TYR102     -0.0009
    132  CE1       49.6780  -23.0320  195.1940 C.ar  102  TYR102      0.0417
    133  CE2       49.6180  -23.3040  197.5770 C.ar  102  TYR102      0.0417
    134  CZ        49.2320  -23.7120  196.3140 C.ar  102  TYR102      0.1957
    135  OH        48.3980  -24.7960  196.1690 O.3   102  TYR102     -0.2866
    136  N         54.8900  -19.1340  195.1580 N.am  103  GLY103     -0.1940
    137  CA        55.7610  -17.9760  194.9440 C.3   103  GLY103      0.2014
    138  C         57.0780  -18.4060  194.3240 C.2   103  GLY103      0.2638
    139  O         57.3920  -19.5990  194.2980 O.2   103  GLY103     -0.2714
    140  N         57.8320  -17.4380  193.8030 N.am  104  PHE104     -0.1973
    141  CA        59.1510  -17.6860  193.2280 C.3   104  PHE104      0.1639
    142  C         60.1920  -16.9210  194.0400 C.2   104  PHE104      0.2290
    143  O         60.1290  -15.6890  194.1110 O.2   104  PHE104     -0.2864
    144  CB        59.2280  -17.2110  191.7710 C.3   104  PHE104      0.0560
    145  CG        58.1490  -17.7490  190.8630 C.ar  104  PHE104     -0.0200
    146  CD1       57.4180  -18.8920  191.1720 C.ar  104  PHE104     -0.0042
    147  CD2       57.9030  -17.1210  189.6490 C.ar  104  PHE104     -0.0042
    148  CE1       56.4460  -19.3690  190.3070 C.ar  104  PHE104     -0.0003
    149  CE2       56.9390  -17.5970  188.7800 C.ar  104  PHE104     -0.0003
    150  CZ        56.2110  -18.7260  189.1070 C.ar  104  PHE104     -0.0000
@<TRIPOS>BOND
     1    81    82    2
     2    81    80    1
     3    87    85   ar
     4    87    89   ar
     5    85    84   ar
     6    80    79    1
     7    80    83    1
     8    38    37    2
     9    90    89    1
    10    89    88   ar
    11    37    36    1
    12    47    48   ar
    13    47    45   ar
    14    84    83    1
    15    84    86   ar
    16    52    51    2
    17    48    46   ar
    18    49    50    1
    19    45    42   ar
    20    88    86   ar
    21    69    68    1
    22    69    70    2
    23    35    36    1
    24    68    67    1
    25    68    71    1
    26    36    39    1
    27    76    74   ar
    28    76    77   ar
    29    46    44   ar
    30    74    72   ar
    31    51    50    1
    32    42    44   ar
    33    42    40   ar
    34    78    77    1
    35    50    53    1
    36    77    75   ar
    37    44    43   ar
    38    72    71    1
    39    72    73   ar
    40    39    40    1
    41    40    41   ar
    42    75    73   ar
    43    27    28    2
    44    27    26    1
    45    53    54    1
    46    43    41   ar
    47    64    63    2
    48    56    54   ar
    49    56    58   ar
    50    26    25    1
    51    26    29    1
    52    54    55   ar
    53    61    62    1
    54    63    62    1
    55    58    59   ar
    56    29    30    1
    57    31    30   ar
    58    31    33   ar
    59    62    65    1
    60    55    57   ar
    61    30    32   ar
    62    65    66    1
    63    59    57   ar
    64    59    60    1
    65    33    34   ar
    66    32    34   ar
    67   149   150   ar
    68   149   147   ar
    69    21    20    1
    70    21    22    2
    71   150   148   ar
    72    23    20    1
    73    23    24    1
    74    20    19    1
    75   147   145   ar
    76   148   146   ar
    77    10     9    2
    78    19     9   am
    79   145   146   ar
    80   145   144    1
    81     9     8    1
    82    96    95    1
    83   144   141    1
    84    91    92    1
    85     1     2    1
    86     8     7    1
    87     8    11    1
    88    95    92    1
    89    95    97    1
    90     7     3   am
    91    92    93    1
    92    11    12    1
    93   141   140    1
    94   141   142    1
    95     3     2    1
    96     3     4    2
    97     2     5    1
    98   140   138   am
    99   142   143    2
   100   139   138    2
   101   138   137    1
   102    93    94    2
   103    93    98   am
   104    12    14   ar
   105    12    13   ar
   106     5     6    1
   107   137   136    1
   108    14    16   ar
   109   136   126   am
   110   132   130   ar
   111   132   134   ar
   112    98    99    1
   113   130   129   ar
   114    13    15   ar
   115   115   114    2
   116   126   125    1
   117   126   127    2
   118   135   134    1
   119   125   128    1
   120   125   124    1
   121   134   133   ar
   122    16    17   ar
   123   129   128    1
   124   129   131   ar
   125    99   102    1
   126    99   100    1
   127   114   124   am
   128   114   113    1
   129    15    17   ar
   130   102   103    1
   131    17    18    1
   132   100   112   am
   133   100   101    2
   134   133   131   ar
   135   112   113    1
   136   113   116    1
   137   103   105   ar
   138   103   104   ar
   139   108   105   ar
   140   108   110   ar
   141   116   117    1
   142   105   107   ar
   143   104   106   ar
   144   110   111   ar
   145   117   119   ar
   146   117   118   ar
   147   119   121   ar
   148   106   107   ar
   149   107   109   ar
   150   118   120   ar
   151   111   109   ar
   152   121   122   ar
   153   120   122   ar
   154   122   123    1
