@<TRIPOS>MOLECULE
tmp/4xh6A00.pdb
 172 163 0 0 0
SMALL
GASTEIGER

@<TRIPOS>ATOM
      1  N         25.0750  -34.1190   -4.5920 N.3    12  LEU12      -0.1231
      2  CA        24.1940  -35.2180   -5.0140 C.3    12  LEU12       0.1693
      3  C         23.0250  -34.7030   -5.8150 C.2    12  LEU12       0.2592
      4  O         22.6010  -35.3230   -6.7750 O.2    12  LEU12      -0.2718
      5  CB        23.6750  -36.0060   -3.8180 C.3    12  LEU12       0.0284
      6  CG        24.7380  -36.7230   -2.9900 C.3    12  LEU12       0.0019
      7  CD1       24.1120  -37.3240   -1.7440 C.3    12  LEU12       0.0001
      8  CD2       25.4230  -37.8060   -3.8040 C.3    12  LEU12       0.0001
      9  N         22.4870  -33.5630   -5.4160 N.am   13  GLY13      -0.1957
     10  CA        21.3400  -32.9980   -6.1060 C.3    13  GLY13       0.1869
     11  C         20.9840  -31.6410   -5.5380 C.2    13  GLY13       0.2309
     12  O         21.4540  -31.2550   -4.4610 O.2    13  GLY13      -0.2863
     13  N         14.0700  -28.6980   -2.5410 N.3    17  PHE17      -0.1241
     14  CA        14.5280  -29.0710   -1.1950 C.3    17  PHE17       0.1605
     15  C         15.8280  -28.3680   -0.7380 C.2    17  PHE17       0.2264
     16  O         16.1890  -28.4680    0.4400 O.2    17  PHE17      -0.2867
     17  CB        14.7210  -30.6020   -1.1120 C.3    17  PHE17       0.0534
     18  CG        15.5650  -31.1760   -2.2270 C.ar   17  PHE17      -0.0203
     19  CD1       14.9740  -31.6080   -3.4190 C.ar   17  PHE17      -0.0042
     20  CD2       16.9420  -31.2950   -2.0900 C.ar   17  PHE17      -0.0042
     21  CE1       15.7440  -32.1270   -4.4540 C.ar   17  PHE17      -0.0003
     22  CE2       17.7140  -31.8220   -3.1220 C.ar   17  PHE17      -0.0003
     23  CZ        17.1150  -32.2380   -4.3020 C.ar   17  PHE17      -0.0000
     24  N         22.0040  -30.8970   -1.7380 N.3    20  VAL20      -0.1245
     25  CA        22.4570  -31.9980   -0.8850 C.3    20  VAL20       0.1561
     26  C         23.7690  -32.5630   -1.3910 C.2    20  VAL20       0.2260
     27  O         23.8660  -32.9020   -2.5750 O.2    20  VAL20      -0.2867
     28  CB        21.4400  -33.1610   -0.8580 C.3    20  VAL20       0.0252
     29  CG1       21.8860  -34.2500    0.1130 C.3    20  VAL20       0.0019
     30  CG2       20.0680  -32.6610   -0.4620 C.3    20  VAL20       0.0019
     31  N         24.8610  -37.4620    4.3430 N.3    33  ALA33      -0.1245
     32  CA        24.3470  -36.5590    3.3280 C.3    33  ALA33       0.1562
     33  C         24.2090  -35.2300    4.0310 C.2    33  ALA33       0.2260
     34  O         23.8080  -35.1800    5.1780 O.2    33  ALA33      -0.2867
     35  CB        23.0020  -37.0330    2.7710 C.3    33  ALA33       0.0290
     36  N         22.6620  -31.5480    3.7540 N.3    35  LYS35      -0.1245
     37  CA        21.6130  -30.8010    3.0730 C.3    35  LYS35       0.1561
     38  C         21.5620  -29.3510    3.5230 C.2    35  LYS35       0.2260
     39  O         21.3890  -29.0710    4.7110 O.2    35  LYS35      -0.2867
     40  CB        20.2510  -31.4430    3.3540 C.3    35  LYS35       0.0271
     41  CG        19.0830  -30.7000    2.7460 C.3    35  LYS35       0.0035
     42  CD        17.7880  -31.4450    3.0350 C.3    35  LYS35       0.0206
     43  CE        16.6350  -30.8790    2.2290 C.3    35  LYS35       0.1093
     44  NZ        15.4510  -31.7860    2.2980 N.3    35  LYS35      -0.1314
     45  N         10.7980  -28.9700    8.9270 N.3    57  GLU57      -0.1245
     46  CA        11.5050  -30.1550    8.4550 C.3    57  GLU57       0.1567
     47  C         12.3670  -30.7680    9.5620 C.2    57  GLU57       0.2260
     48  O         12.3780  -31.9820    9.7420 O.2    57  GLU57      -0.2867
     49  CB        12.3270  -29.7930    7.2040 C.3    57  GLU57       0.0388
     50  CG        13.2190  -30.9030    6.6870 C.3    57  GLU57       0.1160
     51  CD        13.8980  -30.5820    5.3620 C.2    57  GLU57       0.3649
     52  OE1       13.8460  -29.4360    4.9080 O.co2  57  GLU57      -0.2457
     53  OE2       14.4960  -31.4980    4.7810 O.co2  57  GLU57      -0.2457
     54  N         11.7740  -34.3190   11.3520 N.3    61  LEU61      -0.1245
     55  CA        12.8400  -35.3340   11.3010 C.3    61  LEU61       0.1561
     56  C         13.1970  -35.8120   12.6850 C.2    61  LEU61       0.2260
     57  O         13.4850  -36.9900   12.8800 O.2    61  LEU61      -0.2867
     58  CB        14.1050  -34.8200   10.5840 C.3    61  LEU61       0.0270
     59  CG        14.0720  -34.7730    9.0590 C.3    61  LEU61       0.0019
     60  CD1       15.1740  -33.8700    8.5260 C.3    61  LEU61       0.0001
     61  CD2       14.2000  -36.1500    8.4330 C.3    61  LEU61       0.0001
     62  N         14.8690  -41.9650    6.6610 N.3    72  ILE72      -0.1245
     63  CA        16.1670  -41.3320    6.7800 C.3    72  ILE72       0.1561
     64  C         16.3210  -40.7230    8.1790 C.2    72  ILE72       0.2260
     65  O         15.3860  -40.1320    8.7320 O.2    72  ILE72      -0.2867
     66  CB        16.3160  -40.2160    5.7300 C.3    72  ILE72       0.0252
     67  CG1       17.7880  -40.0420    5.3310 C.3    72  ILE72       0.0019
     68  CG2       15.6140  -38.9270    6.2020 C.3    72  ILE72       0.0019
     69  CD1       18.2580  -41.1380    4.3940 C.3    72  ILE72       0.0001
     70  N         22.4750  -36.0360    7.5610 N.3    88  LEU88      -0.1231
     71  CA        21.5740  -37.1640    7.4660 C.3    88  LEU88       0.1693
     72  C         22.3890  -38.3920    7.1860 C.2    88  LEU88       0.2592
     73  O         23.4800  -38.3020    6.6210 O.2    88  LEU88      -0.2718
     74  CB        20.5710  -36.9340    6.3260 C.3    88  LEU88       0.0284
     75  CG        19.7680  -35.6590    6.5680 C.3    88  LEU88       0.0019
     76  CD1       19.5770  -34.8530    5.3090 C.3    88  LEU88       0.0001
     77  CD2       18.4440  -35.9830    7.2430 C.3    88  LEU88       0.0001
     78  N         21.8540  -39.5490    7.5490 N.am   89  GLU89      -0.1966
     79  CA        22.5440  -40.7950    7.2610 C.3    89  GLU89       0.1733
     80  C         22.5680  -40.9850    5.7440 C.2    89  GLU89       0.2616
     81  O         21.7390  -40.4350    5.0200 O.2    89  GLU89      -0.2715
     82  CB        21.8970  -41.9750    8.0150 C.3    89  GLU89       0.0429
     83  CG        20.7460  -42.6590    7.2930 C.3    89  GLU89       0.1163
     84  CD        19.9220  -43.5370    8.2190 C.2    89  GLU89       0.3649
     85  OE1       20.5160  -44.3010    9.0080 O.co2  89  GLU89      -0.2457
     86  OE2       18.6800  -43.4530    8.1610 O.co2  89  GLU89      -0.2457
     87  N         23.5630  -41.6980    5.2540 N.am   90  ARG90      -0.1964
     88  CA        23.6760  -41.9450    3.8270 C.3    90  ARG90       0.1714
     89  C         24.0410  -43.4060    3.6150 C.2    90  ARG90       0.2458
     90  O         25.1620  -43.8000    3.8740 O.2    90  ARG90      -0.2730
     91  CB        24.7290  -41.0300    3.1620 C.3    90  ARG90       0.0347
     92  CG        25.1030  -41.4280    1.7240 C.3    90  ARG90       0.0492
     93  CD        25.9190  -40.3500    1.0060 C.3    90  ARG90       0.2205
     94  NE        27.2370  -40.1200    1.6080 N.pl3  90  ARG90      -0.0865
     95  CZ        28.3250  -40.8480    1.3570 C.cat  90  ARG90       0.5346
     96  NH1       28.2600  -41.8750    0.5210 N.pl3  90  ARG90       0.1354
     97  NH2       29.4750  -40.5510    1.9480 N.pl3  90  ARG90       0.1354
     98  N         23.0830  -44.2040    3.1320 N.am   91  PRO91      -0.2716
     99  CA        23.3290  -45.5800    2.6970 C.3    91  PRO91       0.1536
    100  C         24.2030  -45.6330    1.4560 C.2    91  PRO91       0.2598
    101  O         24.1530  -44.7340    0.6070 O.2    91  PRO91      -0.2715
    102  CB        21.9300  -46.1200    2.3590 C.3    91  PRO91       0.0310
    103  CG        20.9450  -45.0790    2.7810 C.3    91  PRO91       0.0237
    104  CD        21.6760  -43.7910    2.9590 C.3    91  PRO91       0.0939
    105  N         24.9900  -46.6930    1.3510 N.am   92  GLU92      -0.1978
    106  CA        25.9080  -46.8780    0.2300 C.3    92  GLU92       0.1602
    107  C         26.0510  -48.3470   -0.0870 C.2    92  GLU92       0.2287
    108  O         26.2840  -49.1240    0.8140 O.2    92  GLU92      -0.2864
    109  CB        27.2950  -46.3240    0.5700 C.3    92  GLU92       0.0415
    110  CG        27.4210  -44.8300    0.3420 C.3    92  GLU92       0.1163
    111  CD        26.9120  -44.4060   -1.0300 C.2    92  GLU92       0.3649
    112  OE1       27.4160  -44.9840   -2.0350 O.co2  92  GLU92      -0.2457
    113  OE2       26.0090  -43.5170   -1.0930 O.co2  92  GLU92      -0.2457
    114  N         23.4530  -46.6490   -3.1010 N.3    94  VAL94      -0.1231
    115  CA        22.0660  -46.2390   -3.0750 C.3    94  VAL94       0.1692
    116  C         21.6020  -45.7510   -4.4440 C.2    94  VAL94       0.2592
    117  O         22.4050  -45.3040   -5.2630 O.2    94  VAL94      -0.2718
    118  CB        21.8680  -45.1380   -2.0160 C.3    94  VAL94       0.0266
    119  CG1       22.6420  -43.8810   -2.3940 C.3    94  VAL94       0.0020
    120  CG2       20.4020  -44.8070   -1.8410 C.3    94  VAL94       0.0020
    121  N         20.3030  -45.8730   -4.6970 N.am   95  GLN95      -0.1966
    122  CA        19.6620  -45.2990   -5.8750 C.3    95  GLN95       0.1733
    123  C         18.2320  -44.9740   -5.5030 C.2    95  GLN95       0.2616
    124  O         17.5740  -45.7720   -4.8090 O.2    95  GLN95      -0.2715
    125  CB        19.6520  -46.2830   -7.0480 C.3    95  GLN95       0.0408
    126  CG        19.1400  -45.6680   -8.3470 C.3    95  GLN95       0.0908
    127  CD        19.1860  -46.6370   -9.5170 C.2    95  GLN95       0.2608
    128  OE1       18.9410  -47.8350   -9.3760 O.2    95  GLN95      -0.2717
    129  NE2       19.5030  -46.1100  -10.6890 N.am   95  GLN95      -0.0878
    130  N         17.7530  -43.8250   -5.9590 N.am   96  ASP96      -0.1971
    131  CA        16.4020  -43.4230   -5.6780 C.3    96  ASP96       0.1709
    132  C         15.4510  -44.1680   -6.5990 C.2    96  ASP96       0.2293
    133  O         15.8380  -44.6930   -7.6560 O.2    96  ASP96      -0.2864
    134  CB        16.2460  -41.8910   -5.6710 C.3    96  ASP96       0.1436
    135  CG        16.0300  -41.2710   -7.0430 C.2    96  ASP96       0.3671
    136  OD1       15.5450  -41.9060   -7.9840 O.co2  96  ASP96      -0.2456
    137  OD2       16.2910  -40.0670   -7.1550 O.co2  96  ASP96      -0.2456
    138  N         14.7100  -43.7920   -1.2600 N.3   142  LEU142     -0.1245
    139  CA        16.0130  -44.3430   -1.5560 C.3   142  LEU142      0.1561
    140  C         16.0170  -45.8350   -1.3580 C.2   142  LEU142      0.2260
    141  O         15.4550  -46.3490   -0.3980 O.2   142  LEU142     -0.2867
    142  CB        17.0750  -43.7440   -0.6440 C.3   142  LEU142      0.0270
    143  CG        17.2170  -42.2370   -0.7780 C.3   142  LEU142      0.0019
    144  CD1       18.2830  -41.7400    0.1900 C.3   142  LEU142      0.0001
    145  CD2       17.5010  -41.8430   -2.2250 C.3   142  LEU142      0.0001
    146  N         12.7140  -40.0390    2.3390 N.3   153  ILE153     -0.1231
    147  CA        13.6560  -38.9370    2.5350 C.3   153  ILE153      0.1692
    148  C         13.1400  -37.5270    2.8260 C.2   153  ILE153      0.2592
    149  O         13.2860  -37.0820    3.9640 O.2   153  ILE153     -0.2718
    150  CB        14.8720  -38.9530    1.5790 C.3   153  ILE153      0.0266
    151  CG1       14.4480  -39.0020    0.1220 C.3   153  ILE153      0.0019
    152  CG2       15.8260  -40.0480    1.9650 C.3   153  ILE153      0.0020
    153  CD1       15.4910  -38.5160   -0.8500 C.3   153  ILE153      0.0001
    154  N         12.6300  -36.7910    1.8800 N.am  154  ASP154     -0.1960
    155  CA        12.4930  -35.3520    2.0790 C.3   154  ASP154      0.1840
    156  C         11.2740  -34.8510    2.8660 C.2   154  ASP154      0.2622
    157  O         10.2250  -34.8610    2.3380 O.2   154  ASP154     -0.2715
    158  CB        12.5450  -34.9140    0.6270 C.3   154  ASP154      0.1450
    159  CG        12.3430  -33.4470    0.4210 C.2   154  ASP154      0.3671
    160  OD1       12.3040  -32.6670    1.3420 O.co2 154  ASP154     -0.2456
    161  OD2       12.2310  -33.0740   -0.7230 O.co2 154  ASP154     -0.2456
    162  N         11.4370  -34.4420    4.1270 N.am  155  PHE155     -0.1974
    163  CA        10.3250  -33.9840    4.9100 C.3   155  PHE155      0.1639
    164  C         10.0160  -32.4900    4.7370 C.2   155  PHE155      0.2290
    165  O          9.2960  -31.9000    5.4820 O.2   155  PHE155     -0.2864
    166  CB        10.5050  -34.3920    6.3770 C.3   155  PHE155      0.0560
    167  CG        10.2790  -35.8500    6.6340 C.ar  155  PHE155     -0.0200
    168  CD1       11.2270  -36.7630    6.3270 C.ar  155  PHE155     -0.0042
    169  CD2        9.1180  -36.2850    7.1720 C.ar  155  PHE155     -0.0042
    170  CE1       11.0250  -38.0880    6.5520 C.ar  155  PHE155     -0.0003
    171  CE2        8.9030  -37.6030    7.3990 C.ar  155  PHE155     -0.0003
    172  CZ         9.8530  -38.5150    7.0860 C.ar  155  PHE155     -0.0000
@<TRIPOS>BOND
     1   129   127   am
     2   127   128    2
     3   127   126    1
     4   126   125    1
     5   136   135   ar
     6   133   132    2
     7   137   135   ar
     8   125   122    1
     9   135   134    1
    10     4     3    2
    11   132   131    1
    12    10    11    1
    13    10     9    1
    14   130   131    1
    15   130   123   am
    16   122   123    1
    17   122   121    1
    18     3     9   am
    19     3     2    1
    20   131   134    1
    21    11    12    2
    22   123   124    2
    23   117   116    2
    24     2     1    1
    25     2     5    1
    26   121   116   am
    27    21    23   ar
    28    21    19   ar
    29   116   115    1
    30    23    22   ar
    31     5     6    1
    32     8     6    1
    33    19    18   ar
    34    22    20   ar
    35   114   115    1
    36   115   118    1
    37     6     7    1
    38    27    26    2
    39    13    14    1
    40   119   118    1
    41    18    20   ar
    42    18    17    1
    43   145   143    1
    44   112   111   ar
    45   118   120    1
    46    24    25    1
    47   139   140    1
    48   139   138    1
    49   139   142    1
    50    26    25    1
    51   140   141    2
    52    14    17    1
    53    14    15    1
    54   113   111   ar
    55   111   110    1
    56    25    28    1
    57    28    30    1
    58    28    29    1
    59   153   151    1
    60   143   142    1
    61   143   144    1
    62    15    16    2
    63   161   159   ar
    64   107   106    1
    65   107   108    2
    66   151   150    1
    67   106   109    1
    68   106   105    1
    69   110   109    1
    70   159   158    1
    71   159   160   ar
    72    96    95    1
    73   101   100    2
    74   158   155    1
    75    93    94    1
    76    93    92    1
    77   105   100   am
    78    95    94    2
    79    95    97    1
    80   100    99    1
    81   150   152    1
    82   150   147    1
    83    92    91    1
    84   154   155    1
    85   154   148   am
    86   155   156    1
    87    43    44    1
    88    43    42    1
    89   157   156    2
    90   146   147    1
    91   102    99    1
    92   102   103    1
    93   147   148    1
    94    99    98    1
    95    41    42    1
    96    41    40    1
    97    35    32    1
    98   103   104    1
    99   148   149    2
   100   156   162   am
   101   104    98    1
   102    37    40    1
   103    37    38    1
   104    37    36    1
   105    98    89   am
   106    91    88    1
   107    32    33    1
   108    32    31    1
   109    38    39    2
   110    89    88    1
   111    89    90    2
   112    88    87    1
   113    33    34    2
   114   162   163    1
   115    69    67    1
   116   164   163    1
   117   164   165    2
   118    53    51   ar
   119    52    51   ar
   120   163   166    1
   121    81    80    2
   122    87    80   am
   123    76    75    1
   124    67    66    1
   125    51    50    1
   126    66    68    1
   127    66    63    1
   128    80    79    1
   129    74    75    1
   130    74    71    1
   131   168   170   ar
   132   168   167   ar
   133   166   167    1
   134   170   172   ar
   135    75    77    1
   136    73    72    2
   137   167   169   ar
   138    62    63    1
   139    50    49    1
   140    63    64    1
   141   172   171   ar
   142   169   171   ar
   143    72    71    1
   144    72    78   am
   145    49    46    1
   146    79    78    1
   147    79    82    1
   148    83    82    1
   149    83    84    1
   150    71    70    1
   151    86    84   ar
   152    64    65    2
   153    84    85   ar
   154    61    59    1
   155    46    45    1
   156    46    47    1
   157    60    59    1
   158    59    58    1
   159    47    48    2
   160    58    55    1
   161    55    54    1
   162    55    56    1
   163    56    57    2
