@<TRIPOS>MOLECULE
tmp/4xhbA00.pdb
 83 78 0 0 0
SMALL
GASTEIGER

@<TRIPOS>ATOM
      1  N         -5.4380  -25.7620  -30.1960 N.3   212  TYR212     -0.1227
      2  CA        -6.7000  -26.4840  -30.0930 C.3   212  TYR212      0.1736
      3  C         -6.4020  -27.9660  -29.8820 C.2   212  TYR212      0.2596
      4  O         -5.6400  -28.5600  -30.6410 O.2   212  TYR212     -0.2718
      5  CB        -7.5470  -26.2920  -31.3630 C.3   212  TYR212      0.0548
      6  CG        -9.0180  -26.6420  -31.1710 C.ar  212  TYR212     -0.0200
      7  CD1       -9.4380  -27.9670  -31.1270 C.ar  212  TYR212     -0.0009
      8  CD2       -9.9800  -25.6430  -31.0180 C.ar  212  TYR212     -0.0009
      9  CE1      -10.7800  -28.2930  -30.9410 C.ar  212  TYR212      0.0417
     10  CE2      -11.3280  -25.9560  -30.8400 C.ar  212  TYR212      0.0417
     11  CZ       -11.7220  -27.2810  -30.7980 C.ar  212  TYR212      0.1957
     12  OH       -13.0560  -27.6030  -30.6050 O.3   212  TYR212     -0.2866
     13  N         -6.9970  -28.5530  -28.8460 N.am  213  THR213     -0.1953
     14  CA        -6.7900  -29.9730  -28.5570 C.3   213  THR213      0.1897
     15  C         -7.8260  -30.8180  -29.2880 C.2   213  THR213      0.2313
     16  O         -9.0280  -30.6560  -29.0820 O.2   213  THR213     -0.2863
     17  CB        -6.8630  -30.2470  -27.0430 C.3   213  THR213      0.1794
     18  OG1       -5.9190  -29.4020  -26.3760 O.3   213  THR213     -0.2208
     19  CG2       -6.5320  -31.7270  -26.7250 C.3   213  THR213      0.0378
     20  N         -9.6310  -19.9280  -31.1610 N.3   456  GLN456     -0.1245
     21  CA       -10.4440  -21.1280  -31.3460 C.3   456  GLN456      0.1566
     22  C        -11.8610  -20.7620  -31.7800 C.2   456  GLN456      0.2260
     23  O        -12.3880  -19.7320  -31.3750 O.2   456  GLN456     -0.2867
     24  CB       -10.5550  -21.9210  -30.0410 C.3   456  GLN456      0.0367
     25  CG        -9.2460  -22.1830  -29.2960 C.3   456  GLN456      0.0905
     26  CD        -9.4480  -23.1110  -28.1010 C.2   456  GLN456      0.2608
     27  OE1      -10.5530  -23.2140  -27.5440 O.2   456  GLN456     -0.2717
     28  NE2       -8.3860  -23.7880  -27.7020 N.am  456  GLN456     -0.0878
     29  N        -15.8200  -22.4760  -31.4900 N.3   458  LEU458     -0.1231
     30  CA       -16.4470  -23.2150  -30.4070 C.3   458  LEU458      0.1693
     31  C        -17.2820  -24.3530  -30.9580 C.2   458  LEU458      0.2591
     32  O        -18.1490  -24.1280  -31.7980 O.2   458  LEU458     -0.2718
     33  CB       -17.3640  -22.2910  -29.6040 C.3   458  LEU458      0.0284
     34  CG       -18.1440  -22.9700  -28.4790 C.3   458  LEU458      0.0019
     35  CD1      -17.2120  -23.5180  -27.4000 C.3   458  LEU458      0.0001
     36  CD2      -19.1840  -21.9920  -27.8870 C.3   458  LEU458      0.0001
     37  N        -17.0160  -25.5710  -30.4960 N.am  459  ALA459     -0.1980
     38  CA       -17.8360  -26.7260  -30.8520 C.3   459  ALA459      0.1597
     39  C        -18.7070  -27.0510  -29.6540 C.2   459  ALA459      0.2287
     40  O        -18.2080  -27.5110  -28.6380 O.2   459  ALA459     -0.2864
     41  CB       -16.9500  -27.9330  -31.2040 C.3   459  ALA459      0.0319
     42  N        -20.8790  -28.7830  -26.9880 N.3   461  LYS461     -0.1245
     43  CA       -20.6570  -30.1490  -26.5350 C.3   461  LYS461      0.1561
     44  C        -21.8520  -31.0860  -26.7070 C.2   461  LYS461      0.2260
     45  O        -21.6740  -32.2900  -26.8450 O.2   461  LYS461     -0.2867
     46  CB       -20.1270  -30.1660  -25.0970 C.3   461  LYS461      0.0271
     47  CG       -18.7000  -29.6100  -24.9970 C.3   461  LYS461      0.0035
     48  CD       -18.0520  -29.8930  -23.6480 C.3   461  LYS461      0.0206
     49  CE       -16.7200  -29.1610  -23.5170 C.3   461  LYS461      0.1093
     50  NZ       -16.9040  -27.6810  -23.6370 N.3   461  LYS461     -0.1314
     51  N        -10.6010  -20.7090  -22.0760 N.3   558  ILE558     -0.1231
     52  CA       -11.0970  -22.0770  -22.2010 C.3   558  ILE558      0.1692
     53  C        -11.9470  -22.4740  -21.0030 C.2   558  ILE558      0.2591
     54  O        -11.8370  -21.8810  -19.9230 O.2   558  ILE558     -0.2718
     55  CB        -9.9530  -23.0960  -22.3210 C.3   558  ILE558      0.0266
     56  CG1       -8.9860  -22.9450  -21.1470 C.3   558  ILE558      0.0019
     57  CG2       -9.2480  -22.9410  -23.6510 C.3   558  ILE558      0.0020
     58  CD1       -7.6820  -23.7400  -21.2970 C.3   558  ILE558      0.0001
     59  N        -12.7930  -23.4810  -21.2110 N.am  559  LYS559     -0.1980
     60  CA       -13.4860  -24.1430  -20.1200 C.3   559  LYS559      0.1596
     61  C        -12.6600  -25.3630  -19.7150 C.2   559  LYS559      0.2287
     62  O        -12.4610  -26.2710  -20.5190 O.2   559  LYS559     -0.2864
     63  CB       -14.8740  -24.5840  -20.5800 C.3   559  LYS559      0.0298
     64  CG       -15.6570  -25.3820  -19.5410 C.3   559  LYS559      0.0038
     65  CD       -16.2650  -24.4540  -18.5150 C.3   559  LYS559      0.0206
     66  CE       -17.0950  -25.2480  -17.4980 C.3   559  LYS559      0.1093
     67  NZ       -16.1930  -26.0180  -16.5990 N.3   559  LYS559     -0.1314
     68  N         -4.7380  -23.9250  -24.2380 N.3   619  THR619     -0.1203
     69  CA        -5.5570  -25.1150  -24.4070 C.3   619  THR619      0.1994
     70  C         -5.3300  -26.0890  -23.2630 C.2   619  THR619      0.2617
     71  O         -4.2490  -26.1250  -22.6690 O.2   619  THR619     -0.2717
     72  CB        -5.3190  -25.8050  -25.7790 C.3   619  THR619      0.1784
     73  OG1       -6.4110  -26.6960  -26.0650 O.3   619  THR619     -0.2211
     74  CG2       -3.9910  -26.5730  -25.7980 C.3   619  THR619      0.0376
     75  N         -6.3650  -26.8540  -22.9320 N.am  620  GLU620     -0.1979
     76  CA        -6.1860  -27.9560  -22.0030 C.3   620  GLU620      0.1602
     77  C         -5.6060  -29.1280  -22.7900 C.2   620  GLU620      0.2287
     78  O         -6.2220  -29.6280  -23.7350 O.2   620  GLU620     -0.2864
     79  CB        -7.5100  -28.3500  -21.3250 C.3   620  GLU620      0.0415
     80  CG        -7.3380  -29.4850  -20.3020 C.3   620  GLU620      0.1163
     81  CD        -8.6170  -29.8030  -19.5370 C.2   620  GLU620      0.3649
     82  OE1       -9.6400  -29.1230  -19.7630 O.co2 620  GLU620     -0.2457
     83  OE2       -8.5890  -30.7460  -18.7100 O.co2 620  GLU620     -0.2457
@<TRIPOS>BOND
     1    32    31    2
     2    22    23    2
     3    22    21    1
     4    29    30    1
     5     5     6    1
     6     5     2    1
     7    21    20    1
     8    21    24    1
     9    41    38    1
    10     6     7   ar
    11     6     8   ar
    12     7     9   ar
    13     8    10   ar
    14    31    37   am
    15    31    30    1
    16     9    11   ar
    17    38    37    1
    18    38    39    1
    19    10    11   ar
    20    11    12    1
    21     4     3    2
    22    30    33    1
    23     1     2    1
    24     2     3    1
    25    24    25    1
    26     3    13   am
    27    39    40    2
    28    33    34    1
    29    25    26    1
    30    15    16    2
    31    15    14    1
    32    13    14    1
    33    14    17    1
    34    34    36    1
    35    34    35    1
    36    26    28   am
    37    26    27    2
    38    17    19    1
    39    17    18    1
    40    42    43    1
    41    45    44    2
    42    44    43    1
    43    43    46    1
    44    73    72    1
    45    74    72    1
    46    72    69    1
    47    46    47    1
    48    47    48    1
    49    69    68    1
    50    69    70    1
    51    78    77    2
    52    57    55    1
    53    48    49    1
    54    50    49    1
    55    70    75   am
    56    70    71    2
    57    75    76    1
    58    77    76    1
    59    55    52    1
    60    55    56    1
    61    52    51    1
    62    52    53    1
    63    76    79    1
    64    79    80    1
    65    58    56    1
    66    59    53   am
    67    59    60    1
    68    53    54    2
    69    63    60    1
    70    63    64    1
    71    62    61    2
    72    80    81    1
    73    60    61    1
    74    82    81   ar
    75    64    65    1
    76    81    83   ar
    77    65    66    1
    78    66    67    1
