@<TRIPOS>MOLECULE
tmp/4xhcB00.pdb
 161 159 0 0 0
SMALL
GASTEIGER

@<TRIPOS>ATOM
      1  N         37.4500   72.6390   47.2900 N.3   116  LEU116     -0.1245
      2  CA        38.0610   71.7000   48.2150 C.3   116  LEU116      0.1561
      3  C         38.3280   70.3880   47.4890 C.2   116  LEU116      0.2260
      4  O         37.6900   70.0680   46.4960 O.2   116  LEU116     -0.2867
      5  CB        37.1970   71.4500   49.4380 C.3   116  LEU116      0.0270
      6  CG        37.0680   72.5930   50.4470 C.3   116  LEU116      0.0019
      7  CD1       36.1870   72.1190   51.5950 C.3   116  LEU116      0.0001
      8  CD2       38.4120   73.0660   50.9710 C.3   116  LEU116      0.0001
      9  N         37.3240   70.7150   64.0450 N.3   207  ASP207     -0.1239
     10  CA        36.2320   71.5670   63.5670 C.3   207  ASP207      0.1674
     11  C         35.0460   70.7420   63.0470 C.2   207  ASP207      0.2266
     12  O         33.8990   71.0400   63.3790 O.2   207  ASP207     -0.2867
     13  CB        36.7080   72.5920   62.5150 C.3   207  ASP207      0.1410
     14  CG        37.2480   71.9570   61.2270 C.2   207  ASP207      0.3668
     15  OD1       37.8020   70.8390   61.2660 O.co2 207  ASP207     -0.2456
     16  OD2       37.1380   72.6030   60.1660 O.co2 207  ASP207     -0.2456
     17  N         35.2940   66.4320   57.7980 N.3   211  ARG211     -0.1231
     18  CA        36.1780   67.4110   57.2030 C.3   211  ARG211      0.1694
     19  C         36.0780   68.6800   58.0750 C.2   211  ARG211      0.2592
     20  O         34.9560   69.0760   58.4020 O.2   211  ARG211     -0.2718
     21  CB        35.6640   67.6780   55.8000 C.3   211  ARG211      0.0321
     22  CG        36.4790   68.7000   55.0630 C.3   211  ARG211      0.0489
     23  CD        35.6840   69.4220   53.9920 C.3   211  ARG211      0.2205
     24  NE        34.5910   70.2150   54.5330 N.pl3 211  ARG211     -0.0865
     25  CZ        34.7260   71.3090   55.2760 C.cat 211  ARG211      0.5346
     26  NH1       35.9070   71.7710   55.6340 N.pl3 211  ARG211      0.1354
     27  NH2       33.6510   71.9350   55.6870 N.pl3 211  ARG211      0.1354
     28  N         37.1800   69.3360   58.4760 N.am  212  ASP212     -0.1974
     29  CA        38.5720   69.0960   58.0570 C.3   212  ASP212      0.1709
     30  C         39.3540   68.2180   59.0170 C.2   212  ASP212      0.2293
     31  O         40.5560   68.0550   58.8320 O.2   212  ASP212     -0.2864
     32  CB        39.3600   70.4270   58.0250 C.3   212  ASP212      0.1436
     33  CG        38.6950   71.5120   57.1960 C.2   212  ASP212      0.3671
     34  OD1       38.6540   71.3680   55.9570 O.co2 212  ASP212     -0.2456
     35  OD2       38.2480   72.5160   57.7890 O.co2 212  ASP212     -0.2456
     36  N         41.1300   74.4890   64.5500 N.3   216  TRP216     -0.1241
     37  CA        41.1460   75.9030   64.1370 C.3   216  TRP216      0.1605
     38  C         40.8450   76.8080   65.3420 C.2   216  TRP216      0.2264
     39  O         40.0820   76.4300   66.2350 O.2   216  TRP216     -0.2867
     40  CB        40.0830   76.1840   63.0630 C.3   216  TRP216      0.0550
     41  CG        40.3390   75.6330   61.6820 C.ar  216  TRP216      0.0003
     42  CD1       40.1760   74.3340   61.2720 C.ar  216  TRP216      0.0946
     43  CD2       40.7360   76.3710   60.5190 C.ar  216  TRP216      0.0152
     44  NE1       40.4750   74.2170   59.9360 N.ar  216  TRP216     -0.2442
     45  CE2       40.8220   75.4550   59.4510 C.ar  216  TRP216      0.0810
     46  CE3       41.0450   77.7110   60.2800 C.ar  216  TRP216      0.0012
     47  CZ2       41.1980   75.8450   58.1630 C.ar  216  TRP216      0.0191
     48  CZ3       41.4130   78.0960   58.9920 C.ar  216  TRP216      0.0001
     49  CH2       41.4870   77.1670   57.9560 C.ar  216  TRP216      0.0015
     50  N         37.0760   78.1220   65.8850 N.3   219  ASP219     -0.1239
     51  CA        36.2450   76.9920   66.2960 C.3   219  ASP219      0.1674
     52  C         36.5370   76.6170   67.7490 C.2   219  ASP219      0.2266
     53  O         35.6170   76.4860   68.5640 O.2   219  ASP219     -0.2867
     54  CB        36.4780   75.7920   65.3800 C.3   219  ASP219      0.1410
     55  CG        36.1120   76.0820   63.9280 C.2   219  ASP219      0.3668
     56  OD1       36.7570   76.9680   63.3190 O.co2 219  ASP219     -0.2456
     57  OD2       35.1790   75.4280   63.4000 O.co2 219  ASP219     -0.2456
     58  N         45.1150   84.6050   59.9640 N.3   271  LEU271     -0.1245
     59  CA        43.8940   85.4190   59.9920 C.3   271  LEU271      0.1561
     60  C         43.8870   86.4330   61.1570 C.2   271  LEU271      0.2260
     61  O         44.1320   86.0780   62.3030 O.2   271  LEU271     -0.2867
     62  CB        42.6690   84.5050   60.0720 C.3   271  LEU271      0.0270
     63  CG        42.3390   83.7040   58.8040 C.3   271  LEU271      0.0019
     64  CD1       41.3840   82.5560   59.1200 C.3   271  LEU271      0.0001
     65  CD2       41.7670   84.5880   57.7030 C.3   271  LEU271      0.0001
     66  N         41.3230   85.2800   64.0450 N.3   274  TYR274     -0.1241
     67  CA        41.7030   84.0310   64.7150 C.3   274  TYR274      0.1605
     68  C         42.9530   84.2100   65.5790 C.2   274  TYR274      0.2264
     69  O         43.0630   83.6030   66.6470 O.2   274  TYR274     -0.2867
     70  CB        41.9110   82.9050   63.6880 C.3   274  TYR274      0.0534
     71  CG        40.6290   82.2490   63.2200 C.ar  274  TYR274     -0.0201
     72  CD1       39.4200   82.9310   63.2530 C.ar  274  TYR274     -0.0009
     73  CD2       40.6280   80.9470   62.7270 C.ar  274  TYR274     -0.0009
     74  CE1       38.2490   82.3330   62.8360 C.ar  274  TYR274      0.0417
     75  CE2       39.4570   80.3440   62.3010 C.ar  274  TYR274      0.0417
     76  CZ        38.2700   81.0460   62.3630 C.ar  274  TYR274      0.1957
     77  OH        37.0970   80.4840   61.9330 O.3   274  TYR274     -0.2866
     78  N         42.0510   87.7450   51.8220 N.3   325  TRP325     -0.1241
     79  CA        41.3970   87.0130   52.9080 C.3   325  TRP325      0.1605
     80  C         42.2090   87.1640   54.2030 C.2   325  TRP325      0.2264
     81  O         42.7980   86.1990   54.7250 O.2   325  TRP325     -0.2867
     82  CB        41.2310   85.5360   52.5090 C.3   325  TRP325      0.0550
     83  CG        40.2400   84.7410   53.3380 C.ar  325  TRP325      0.0003
     84  CD1       38.9200   85.0500   53.5770 C.ar  325  TRP325      0.0946
     85  CD2       40.4760   83.4860   53.9880 C.ar  325  TRP325      0.0152
     86  NE1       38.3340   84.0760   54.3520 N.ar  325  TRP325     -0.2442
     87  CE2       39.2650   83.1040   54.6130 C.ar  325  TRP325      0.0810
     88  CE3       41.5880   82.6460   54.1020 C.ar  325  TRP325      0.0012
     89  CZ2       39.1470   81.9300   55.3480 C.ar  325  TRP325      0.0191
     90  CZ3       41.4660   81.4740   54.8270 C.ar  325  TRP325      0.0001
     91  CH2       40.2580   81.1290   55.4450 C.ar  325  TRP325      0.0015
     92  N         38.5760   86.4690   58.8940 N.3   328  PHE328     -0.1241
     93  CA        37.5100   85.5270   58.5140 C.3   328  PHE328      0.1605
     94  C         36.0940   86.0650   58.7100 C.2   328  PHE328      0.2264
     95  O         35.4000   86.3290   57.7250 O.2   328  PHE328     -0.2867
     96  CB        37.6440   84.1630   59.2010 C.3   328  PHE328      0.0534
     97  CG        36.4800   83.2550   58.9240 C.ar  328  PHE328     -0.0203
     98  CD1       36.2050   82.8520   57.6300 C.ar  328  PHE328     -0.0042
     99  CD2       35.6210   82.8670   59.9370 C.ar  328  PHE328     -0.0042
    100  CE1       35.1090   82.0590   57.3540 C.ar  328  PHE328     -0.0003
    101  CE2       34.5230   82.0720   59.6720 C.ar  328  PHE328     -0.0003
    102  CZ        34.2690   81.6680   58.3760 C.ar  328  PHE328     -0.0000
    103  N         31.5280   82.8830   56.4530 N.3   331  TRP331     -0.1241
    104  CA        31.6050   82.3990   55.0760 C.3   331  TRP331      0.1605
    105  C         30.6240   83.1730   54.1940 C.2   331  TRP331      0.2264
    106  O         29.5550   82.6820   53.8450 O.2   331  TRP331     -0.2867
    107  CB        31.3410   80.8770   54.9950 C.3   331  TRP331      0.0550
    108  CG        32.5430   80.0640   55.2990 C.ar  331  TRP331      0.0003
    109  CD1       32.7000   79.1790   56.3100 C.ar  331  TRP331      0.0946
    110  CD2       33.7690   80.0740   54.5740 C.ar  331  TRP331      0.0152
    111  NE1       33.9530   78.6240   56.2640 N.ar  331  TRP331     -0.2442
    112  CE2       34.6330   79.1630   55.2060 C.ar  331  TRP331      0.0810
    113  CE3       34.2260   80.7770   53.4470 C.ar  331  TRP331      0.0012
    114  CZ2       35.9390   78.9380   54.7570 C.ar  331  TRP331      0.0191
    115  CZ3       35.5180   80.5460   52.9970 C.ar  331  TRP331      0.0001
    116  CH2       36.3600   79.6320   53.6520 C.ar  331  TRP331      0.0015
    117  N         27.8630   72.9030   59.7630 N.3   476  GLU476     -0.1245
    118  CA        28.8540   73.9480   59.5350 C.3   476  GLU476      0.1567
    119  C         28.2400   75.1920   58.8990 C.2   476  GLU476      0.2260
    120  O         28.4830   76.3210   59.3400 O.2   476  GLU476     -0.2867
    121  CB        29.9490   73.3960   58.6280 C.3   476  GLU476      0.0388
    122  CG        31.0760   74.3630   58.3100 C.3   476  GLU476      0.1160
    123  CD        31.9690   73.8580   57.1920 C.2   476  GLU476      0.3649
    124  OE1       31.4950   72.9920   56.4240 O.co2 476  GLU476     -0.2457
    125  OE2       33.1380   74.3280   57.0610 O.co2 476  GLU476     -0.2457
    126  N         31.9990   76.1520   49.4200 N.3   488  TYR488     -0.1241
    127  CA        32.9440   75.2430   48.7550 C.3   488  TYR488      0.1605
    128  C         32.4800   74.7800   47.3580 C.2   488  TYR488      0.2264
    129  O         33.2740   74.2230   46.5910 O.2   488  TYR488     -0.2867
    130  CB        33.2030   74.0380   49.6580 C.3   488  TYR488      0.0534
    131  CG        33.4660   74.4300   51.1080 C.ar  488  TYR488     -0.0201
    132  CD1       34.5170   75.2770   51.4460 C.ar  488  TYR488     -0.0009
    133  CD2       32.6600   73.9640   52.1340 C.ar  488  TYR488     -0.0009
    134  CE1       34.7620   75.6420   52.7650 C.ar  488  TYR488      0.0417
    135  CE2       32.8950   74.3190   53.4580 C.ar  488  TYR488      0.0417
    136  CZ        33.9520   75.1600   53.7820 C.ar  488  TYR488      0.1957
    137  OH        34.1940   75.5340   55.1070 O.3   488  TYR488     -0.2866
    138  N         29.5210   70.1580   63.0500 N.3   498  HIS498     -0.1241
    139  CA        30.5390   71.1870   63.2020 C.3   498  HIS498      0.1621
    140  C         30.3130   71.8510   64.5380 C.2   498  HIS498      0.2264
    141  O         29.2680   72.4510   64.7670 O.2   498  HIS498     -0.2867
    142  CB        30.4500   72.2200   62.0650 C.3   498  HIS498      0.0745
    143  CG        31.7700   72.5370   61.4240 C.ar  498  HIS498      0.0817
    144  ND1       32.4480   71.6350   60.6340 N.ar  498  HIS498     -0.2268
    145  CD2       32.5350   73.6510   61.4560 C.ar  498  HIS498      0.1154
    146  CE1       33.5740   72.1760   60.2110 C.ar  498  HIS498      0.1986
    147  NE2       33.6490   73.4020   60.6930 N.ar  498  HIS498     -0.2212
    148  N         31.4420   74.4470   66.0720 N.3   500  TRP500     -0.1241
    149  CA        31.2440   75.8790   66.1930 C.3   500  TRP500      0.1605
    150  C         29.7560   76.2150   66.1270 C.2   500  TRP500      0.2264
    151  O         29.3690   77.3570   66.3590 O.2   500  TRP500     -0.2867
    152  CB        32.0940   76.6650   65.1760 C.3   500  TRP500      0.0550
    153  CG        31.6210   76.7500   63.7290 C.ar  500  TRP500      0.0003
    154  CD1       30.4750   76.2580   63.1930 C.ar  500  TRP500      0.0946
    155  CD2       32.2940   77.4320   62.6620 C.ar  500  TRP500      0.0152
    156  NE1       30.3990   76.5670   61.8550 N.ar  500  TRP500     -0.2442
    157  CE2       31.5070   77.2870   61.5060 C.ar  500  TRP500      0.0810
    158  CE3       33.4970   78.1450   62.5720 C.ar  500  TRP500      0.0012
    159  CZ2       31.8810   77.8250   60.2780 C.ar  500  TRP500      0.0191
    160  CZ3       33.8680   78.6810   61.3500 C.ar  500  TRP500      0.0001
    161  CH2       33.0630   78.5210   60.2210 C.ar  500  TRP500      0.0015
@<TRIPOS>BOND
     1     4     3    2
     2   129   128    2
     3     1     2    1
     4   128   127    1
     5     3     2    1
     6     2     5    1
     7   127   126    1
     8   127   130    1
     9     5     6    1
    10   130   131    1
    11     6     8    1
    12     6     7    1
    13   131   132   ar
    14   131   133   ar
    15   132   134   ar
    16    78    79    1
    17   133   135   ar
    18    82    79    1
    19    82    83    1
    20   134   136   ar
    21    79    80    1
    22   115   113   ar
    23   115   116   ar
    24    83    84   ar
    25    83    85   ar
    26   113   110   ar
    27   135   136   ar
    28    84    86   ar
    29   116   114   ar
    30   136   137    1
    31   106   105    2
    32    85    88   ar
    33    85    87   ar
    34    23    24    1
    35    23    22    1
    36    88    90   ar
    37   105   104    1
    38    80    81    2
    39    86    87   ar
    40    24    25    2
    41   110   112   ar
    42   110   108   ar
    43    87    89   ar
    44   114   112   ar
    45    90    91   ar
    46   107   104    1
    47   107   108    1
    48    22    21    1
    49   104   103    1
    50   112   111   ar
    51    25    26    1
    52    25    27    1
    53   108   109   ar
    54    89    91   ar
    55    21    18    1
    56    34    33   ar
    57   111   109   ar
    58   124   123   ar
    59   125   123   ar
    60   123   122    1
    61    33    35   ar
    62    33    32    1
    63    18    17    1
    64    18    19    1
    65   100    98   ar
    66   100   102   ar
    67    98    97   ar
    68    65    63    1
    69    95    94    2
    70    49    47   ar
    71    49    48   ar
    72    32    29    1
    73    29    28    1
    74    29    30    1
    75    19    20    2
    76    19    28   am
    77    47    45   ar
    78   122   121    1
    79   102   101   ar
    80    93    94    1
    81    93    92    1
    82    93    96    1
    83   121   118    1
    84    63    64    1
    85    63    62    1
    86    31    30    2
    87   119   120    2
    88   119   118    1
    89    97    96    1
    90    97    99   ar
    91    48    46   ar
    92    45    44   ar
    93    45    43   ar
    94   118   117    1
    95   101    99   ar
    96    44    42   ar
    97    58    59    1
    98    59    62    1
    99    59    60    1
   100    16    14   ar
   101   146   144   ar
   102   146   147   ar
   103   161   159   ar
   104   161   160   ar
   105   159   157   ar
   106    46    43   ar
   107    43    41   ar
   108   144   143   ar
   109   147   145   ar
   110    60    61    2
   111    14    15   ar
   112    14    13    1
   113    42    41   ar
   114   160   158   ar
   115   143   145   ar
   116   143   142    1
   117   157   156   ar
   118   157   155   ar
   119    41    40    1
   120   156   154   ar
   121    77    76    1
   122   142   139    1
   123    75    76   ar
   124    75    73   ar
   125    76    74   ar
   126    13    10    1
   127   158   155   ar
   128   155   153   ar
   129    73    71   ar
   130    74    72   ar
   131    11    12    2
   132    11    10    1
   133   138   139    1
   134    40    37    1
   135   154   153   ar
   136   139   140    1
   137    71    72   ar
   138    71    70    1
   139    56    55   ar
   140    57    55   ar
   141    10     9    1
   142    70    67    1
   143   153   152    1
   144    55    54    1
   145    66    67    1
   146    37    36    1
   147    37    38    1
   148   140   141    2
   149    67    68    1
   150   152   149    1
   151    38    39    2
   152    54    51    1
   153    68    69    2
   154    50    51    1
   155   148   149    1
   156   150   149    1
   157   150   151    2
   158    51    52    1
   159    52    53    2
