@<TRIPOS>MOLECULE
tmp/4xheC00.pdb
 120 119 0 0 0
SMALL
GASTEIGER

@<TRIPOS>ATOM
      1  N          0.0320  -29.9670   11.6830 N.3    96  TYR96      -0.1241
      2  CA         0.2520  -31.1920   12.4420 C.3    96  TYR96       0.1605
      3  C          1.5680  -31.2230   13.2350 C.2    96  TYR96       0.2264
      4  O          1.7090  -32.0390   14.1430 O.2    96  TYR96      -0.2867
      5  CB         0.1760  -32.3950   11.4820 C.3    96  TYR96       0.0534
      6  CG        -1.2300  -32.7010   10.9360 C.ar   96  TYR96      -0.0201
      7  CD1       -2.3600  -32.1260   11.4670 C.ar   96  TYR96      -0.0009
      8  CD2       -1.4010  -33.6400    9.9240 C.ar   96  TYR96      -0.0009
      9  CE1       -3.6330  -32.4330   10.9860 C.ar   96  TYR96       0.0417
     10  CE2       -2.6580  -33.9570    9.4380 C.ar   96  TYR96       0.0417
     11  CZ        -3.7670  -33.3630    9.9690 C.ar   96  TYR96       0.1957
     12  OH        -5.0100  -33.6960    9.4800 O.3    96  TYR96      -0.2866
     13  N          2.5900  -30.4970    7.4680 N.3   146  LYS146     -0.1245
     14  CA         1.2770  -30.9130    6.9730 C.3   146  LYS146      0.1561
     15  C          0.1570  -30.1230    7.6600 C.2   146  LYS146      0.2260
     16  O          0.2480  -29.8110    8.8440 O.2   146  LYS146     -0.2867
     17  CB         1.0660  -32.4130    7.2400 C.3   146  LYS146      0.0271
     18  CG         1.9810  -33.3210    6.4380 C.3   146  LYS146      0.0035
     19  CD         1.7980  -34.7900    6.7490 C.3   146  LYS146      0.0206
     20  CE         2.9790  -35.5980    6.1670 C.3   146  LYS146      0.1093
     21  NZ         2.9930  -37.0170    6.6580 N.3   146  LYS146     -0.1314
     22  N         -7.6150  -31.2950    8.7920 N.3   149  SER149     -0.1202
     23  CA        -8.5870  -31.3090    9.8450 C.3   149  SER149      0.2020
     24  C         -8.0250  -32.1530   10.9730 C.2   149  SER149      0.2619
     25  O         -7.4240  -33.2040   10.7170 O.2   149  SER149     -0.2717
     26  CB        -9.8990  -31.9490    9.3610 C.3   149  SER149      0.2103
     27  OG       -10.7690  -32.1560   10.4470 O.3   149  SER149     -0.2182
     28  N         -8.2120  -31.7010   12.2100 N.am  150  TRP150     -0.1961
     29  CA        -7.8180  -32.5230   13.3790 C.3   150  TRP150      0.1771
     30  C         -8.7270  -33.7360   13.6230 C.2   150  TRP150      0.2619
     31  O         -8.2430  -34.7830   14.0540 O.2   150  TRP150     -0.2715
     32  CB        -7.7520  -31.6630   14.6530 C.3   150  TRP150      0.0590
     33  CG        -7.0120  -32.2940   15.8000 C.ar  150  TRP150      0.0006
     34  CD1       -7.5220  -32.6390   17.0180 C.ar  150  TRP150      0.0946
     35  CD2       -5.5960  -32.5740   15.8710 C.ar  150  TRP150      0.0152
     36  NE1       -6.5400  -33.1600   17.8170 N.ar  150  TRP150     -0.2442
     37  CE2       -5.3450  -33.1260   17.1430 C.ar  150  TRP150      0.0810
     38  CE3       -4.5320  -32.4390   14.9730 C.ar  150  TRP150      0.0012
     39  CZ2       -4.0660  -33.5290   17.5430 C.ar  150  TRP150      0.0191
     40  CZ3       -3.2530  -32.8330   15.3800 C.ar  150  TRP150      0.0001
     41  CH2       -3.0430  -33.3780   16.6540 C.ar  150  TRP150      0.0015
     42  N        -10.0290  -33.5940   13.3670 N.am  151  VAL151     -0.1963
     43  CA       -11.0260  -34.5730   13.8380 C.3   151  VAL151      0.1727
     44  C        -11.9540  -35.1460   12.7570 C.2   151  VAL151      0.2616
     45  O        -12.8200  -35.9800   13.0760 O.2   151  VAL151     -0.2715
     46  CB       -11.9290  -33.9950   15.0000 C.3   151  VAL151      0.0290
     47  CG1      -11.0760  -33.5210   16.2180 C.3   151  VAL151      0.0023
     48  CG2      -12.8520  -32.8800   14.5050 C.3   151  VAL151      0.0023
     49  N        -11.8040  -34.7090   11.5060 N.am  152  TYR152     -0.1960
     50  CA       -12.6620  -35.1700   10.4060 C.3   152  TYR152      0.1771
     51  C        -11.8270  -35.8870    9.3350 C.2   152  TYR152      0.2620
     52  O        -10.7860  -35.3920    8.8870 O.2   152  TYR152     -0.2715
     53  CB       -13.4140  -34.0020    9.7540 C.3   152  TYR152      0.0574
     54  CG       -14.4750  -33.3370   10.6040 C.ar  152  TYR152     -0.0198
     55  CD1      -15.6470  -33.9940   10.9120 C.ar  152  TYR152     -0.0009
     56  CD2      -14.3130  -32.0210   11.0730 C.ar  152  TYR152     -0.0009
     57  CE1      -16.6400  -33.3700   11.6810 C.ar  152  TYR152      0.0417
     58  CE2      -15.2780  -31.4090   11.8450 C.ar  152  TYR152      0.0417
     59  CZ       -16.4440  -32.0920   12.1390 C.ar  152  TYR152      0.1957
     60  OH       -17.4270  -31.4970   12.8970 O.3   152  TYR152     -0.2866
     61  N        -12.2820  -37.0700    8.9300 N.am  153  SER153     -0.1950
     62  CA       -11.6790  -37.7880    7.8190 C.3   153  SER153      0.1924
     63  C        -12.0960  -37.1450    6.4830 C.2   153  SER153      0.2314
     64  O        -12.9260  -36.2230    6.4530 O.2   153  SER153     -0.2863
     65  CB       -12.1240  -39.2660    7.8230 C.3   153  SER153      0.2116
     66  OG       -13.4780  -39.4100    7.3810 O.3   153  SER153     -0.2180
     67  N        -15.7480  -36.7720    5.6320 N.3   156  GLU156     -0.1245
     68  CA       -16.4930  -35.7290    6.3420 C.3   156  GLU156      0.1567
     69  C        -16.0760  -34.3380    5.8340 C.2   156  GLU156      0.2260
     70  O        -16.9180  -33.5060    5.4750 O.2   156  GLU156     -0.2867
     71  CB       -16.2660  -35.8880    7.8460 C.3   156  GLU156      0.0388
     72  CG       -16.8650  -37.2100    8.4020 C.3   156  GLU156      0.1160
     73  CD       -16.1960  -37.7540    9.6740 C.2   156  GLU156      0.3649
     74  OE1      -14.9470  -37.6860    9.8160 O.co2 156  GLU156     -0.2457
     75  OE2      -16.9400  -38.2920   10.5400 O.co2 156  GLU156     -0.2457
     76  N         -5.2050  -45.7650    7.0480 N.3   191  TYR191     -0.1241
     77  CA        -4.7090  -46.4500    8.2510 C.3   191  TYR191      0.1605
     78  C         -5.2910  -47.8700    8.2830 C.2   191  TYR191      0.2264
     79  O         -6.4150  -48.0770    7.8240 O.2   191  TYR191     -0.2867
     80  CB        -5.1160  -45.6680    9.4970 C.3   191  TYR191      0.0534
     81  CG        -4.2990  -44.4130    9.7550 C.ar  191  TYR191     -0.0201
     82  CD1       -4.4570  -43.2730    8.9740 C.ar  191  TYR191     -0.0009
     83  CD2       -3.3740  -44.3640   10.8050 C.ar  191  TYR191     -0.0009
     84  CE1       -3.7100  -42.1280    9.2160 C.ar  191  TYR191      0.0417
     85  CE2       -2.6240  -43.2230   11.0600 C.ar  191  TYR191      0.0417
     86  CZ        -2.7960  -42.1130   10.2670 C.ar  191  TYR191      0.1957
     87  OH        -2.0610  -40.9880   10.5290 O.3   191  TYR191     -0.2866
     88  N         -6.4730  -49.6820   10.6270 N.3   193  CYS193     -0.1221
     89  CA        -7.6690  -49.7990   11.4510 C.3   193  CYS193      0.1808
     90  C         -8.9810  -49.5790   10.7040 C.2   193  CYS193      0.2601
     91  O        -10.0050  -50.1380   11.0890 O.2   193  CYS193     -0.2717
     92  CB        -7.6170  -48.7790   12.5930 C.3   193  CYS193      0.0970
     93  SG        -7.7810  -47.0370   12.0410 S.3   193  CYS193     -0.0800
     94  N         -8.9600  -48.7590    9.6550 N.am  194  CYS194     -0.1970
     95  CA       -10.1620  -48.0400    9.2470 C.3   194  CYS194      0.1712
     96  C        -10.2540  -47.8590    7.7290 C.2   194  CYS194      0.2296
     97  O         -9.2310  -47.7200    7.0820 O.2   194  CYS194     -0.2864
     98  CB       -10.1230  -46.6580    9.9290 C.3   194  CYS194      0.0983
     99  SG        -9.7990  -46.7410   11.7590 S.3   194  CYS194     -0.0798
    100  N        -11.7770  -45.2660    5.9540 N.3   196  GLU196     -0.1245
    101  CA       -11.8090  -43.8550    5.5200 C.3   196  GLU196      0.1567
    102  C        -10.4460  -43.3690    5.0550 C.2   196  GLU196      0.2260
    103  O         -9.4600  -43.6870    5.6620 O.2   196  GLU196     -0.2867
    104  CB       -12.1660  -42.8990    6.6790 C.3   196  GLU196      0.0388
    105  CG       -13.2230  -43.3410    7.6130 C.3   196  GLU196      0.1160
    106  CD       -12.7360  -44.3220    8.6650 C.2   196  GLU196      0.3649
    107  OE1      -11.8340  -44.0180    9.5010 O.co2 196  GLU196     -0.2457
    108  OE2      -13.2970  -45.4080    8.6560 O.co2 196  GLU196     -0.2457
    109  N         -7.7140  -40.2950    4.8380 N.3   198  TYR198     -0.1241
    110  CA        -7.3410  -39.1090    5.6140 C.3   198  TYR198      0.1605
    111  C         -6.5210  -38.2160    4.6860 C.2   198  TYR198      0.2264
    112  O         -5.6640  -38.7010    3.9340 O.2   198  TYR198     -0.2867
    113  CB        -6.5920  -39.5090    6.9010 C.3   198  TYR198      0.0534
    114  CG        -7.5860  -40.1360    7.8520 C.ar  198  TYR198     -0.0201
    115  CD1       -8.3330  -39.3500    8.7090 C.ar  198  TYR198     -0.0009
    116  CD2       -7.8470  -41.5030    7.8200 C.ar  198  TYR198     -0.0009
    117  CE1       -9.3130  -39.9000    9.5140 C.ar  198  TYR198      0.0417
    118  CE2       -8.8220  -42.0740    8.6550 C.ar  198  TYR198      0.0417
    119  CZ        -9.5430  -41.2680    9.4860 C.ar  198  TYR198      0.1957
    120  OH       -10.4970  -41.8100   10.3030 O.3   198  TYR198     -0.2866
@<TRIPOS>BOND
     1   112   111    2
     2   111   110    1
     3   109   110    1
     4   102   101    1
     5   102   103    2
     6    70    69    2
     7   101   100    1
     8   101   104    1
     9   110   113    1
    10    67    68    1
    11    69    68    1
    12    20    21    1
    13    20    19    1
    14    68    71    1
    15    18    19    1
    16    18    17    1
    17    64    63    2
    18    63    62    1
    19   104   105    1
    20   113   114    1
    21    14    17    1
    22    14    13    1
    23    14    15    1
    24    76    77    1
    25    97    96    2
    26    66    65    1
    27   105   106    1
    28    15    16    2
    29    96    95    1
    30    62    65    1
    31    62    61    1
    32   116   114   ar
    33   116   118   ar
    34    79    78    2
    35    71    72    1
    36   114   115   ar
    37    77    78    1
    38    77    80    1
    39    72    73    1
    40   118   119   ar
    41   108   106   ar
    42   106   107   ar
    43   115   117   ar
    44    22    23    1
    45    52    51    2
    46    61    51   am
    47    82    84   ar
    48    82    81   ar
    49    84    86   ar
    50    95    94    1
    51    95    98    1
    52    51    50    1
    53    26    23    1
    54    26    27    1
    55    10     8   ar
    56    10    11   ar
    57    12    11    1
    58   119   117   ar
    59   119   120    1
    60    80    81    1
    61    94    90   am
    62    73    74   ar
    63    73    75   ar
    64    53    50    1
    65    53    54    1
    66    81    83   ar
    67    23    24    1
    68     8     6   ar
    69    98    99    1
    70    11     9   ar
    71    86    87    1
    72    86    85   ar
    73    50    49    1
    74    54    55   ar
    75    54    56   ar
    76    88    89    1
    77    90    91    2
    78    90    89    1
    79    25    24    2
    80    83    85   ar
    81    55    57   ar
    82     6     7   ar
    83     6     5    1
    84    24    28   am
    85     9     7   ar
    86    56    58   ar
    87    89    92    1
    88     5     2    1
    89    49    44   am
    90    57    59   ar
    91     1     2    1
    92    99    93    1
    93    58    59   ar
    94    93    92    1
    95    59    60    1
    96    28    29    1
    97     2     3    1
    98    44    45    2
    99    44    43    1
   100     3     4    2
   101    42    30   am
   102    42    43    1
   103    29    30    1
   104    29    32    1
   105    30    31    2
   106    43    46    1
   107    48    46    1
   108    32    33    1
   109    38    40   ar
   110    38    35   ar
   111    46    47    1
   112    40    41   ar
   113    33    35   ar
   114    33    34   ar
   115    35    37   ar
   116    41    39   ar
   117    34    36   ar
   118    37    39   ar
   119    37    36   ar
