@<TRIPOS>MOLECULE
tmp/4xheC01.pdb
 107 96 0 0 0
SMALL
GASTEIGER

@<TRIPOS>ATOM
      1  N         -0.4430  -18.4470    1.0370 N.3    39  THR39      -0.1218
      2  CA         0.3120  -17.3250    0.5090 C.3    39  THR39       0.1862
      3  C          1.4310  -17.0000    1.5090 C.2    39  THR39       0.2287
      4  O          1.1720  -16.4760    2.6130 O.2    39  THR39      -0.2866
      5  CB        -0.5910  -16.1060    0.3070 C.3    39  THR39       0.1770
      6  OG1       -1.6300  -16.4180   -0.6250 O.3    39  THR39      -0.2211
      7  CG2        0.2190  -14.8720   -0.1870 C.3    39  THR39       0.0375
      8  N          4.2780  -15.1660    3.3020 N.3    41  GLN41      -0.1245
      9  CA         4.7420  -13.7780    3.4000 C.3    41  GLN41       0.1566
     10  C          6.1730  -13.6150    3.8810 C.2    41  GLN41       0.2260
     11  O          6.8980  -12.7320    3.4240 O.2    41  GLN41      -0.2867
     12  CB         3.8150  -12.9560    4.2890 C.3    41  GLN41       0.0367
     13  CG         3.9970  -11.4770    4.0710 C.3    41  GLN41       0.0905
     14  CD         2.9710  -10.6380    4.8160 C.2    41  GLN41       0.2608
     15  OE1        2.3840  -11.0710    5.8020 O.2    41  GLN41      -0.2717
     16  NE2        2.7580   -9.4240    4.3320 N.am   41  GLN41      -0.0878
     17  N         -0.6050  -16.1340    4.8320 N.3    58  TYR58      -0.1241
     18  CA        -2.0430  -16.0480    4.7920 C.3    58  TYR58       0.1605
     19  C         -2.5590  -17.4330    4.4120 C.2    58  TYR58       0.2264
     20  O         -2.1100  -18.0170    3.4350 O.2    58  TYR58      -0.2867
     21  CB        -2.5080  -15.0110    3.7500 C.3    58  TYR58       0.0534
     22  CG        -1.9950  -13.5880    3.8880 C.ar   58  TYR58      -0.0201
     23  CD1       -2.0640  -12.7180    2.8020 C.ar   58  TYR58      -0.0009
     24  CD2       -1.4590  -13.0860    5.0760 C.ar   58  TYR58      -0.0009
     25  CE1       -1.6160  -11.4300    2.8790 C.ar   58  TYR58       0.0417
     26  CE2       -1.0000  -11.7540    5.1520 C.ar   58  TYR58       0.0417
     27  CZ        -1.0900  -10.9420    4.0420 C.ar   58  TYR58       0.1957
     28  OH        -0.6840   -9.6240    4.0590 O.3    58  TYR58      -0.2866
     29  N         -5.7220  -19.2680    3.0960 N.3    60  GLN60      -0.1245
     30  CA        -7.0260  -19.1080    2.4660 C.3    60  GLN60       0.1566
     31  C         -7.8220  -20.3930    2.5940 C.2    60  GLN60       0.2260
     32  O         -7.3410  -21.4790    2.2270 O.2    60  GLN60      -0.2867
     33  CB        -6.8740  -18.6990    0.9800 C.3    60  GLN60       0.0367
     34  CG        -8.2170  -18.4870    0.2810 C.3    60  GLN60       0.0905
     35  CD        -8.0880  -17.9430   -1.1270 C.2    60  GLN60       0.2608
     36  OE1       -7.5040  -16.8950   -1.3350 O.2    60  GLN60      -0.2717
     37  NE2       -8.6480  -18.6600   -2.1010 N.am   60  GLN60      -0.0878
     38  N        -23.0600  -10.0630   -1.2000 N.3    80  ASP80      -0.1239
     39  CA       -22.1940  -10.6080   -0.1650 C.3    80  ASP80       0.1674
     40  C        -22.2900   -9.7930    1.1060 C.2    80  ASP80       0.2266
     41  O        -22.8070   -8.6810    1.0930 O.2    80  ASP80      -0.2867
     42  CB       -20.7280  -10.6580   -0.6260 C.3    80  ASP80       0.1410
     43  CG       -20.1990   -9.2930   -1.0270 C.2    80  ASP80       0.3668
     44  OD1      -20.0660   -8.4000   -0.1630 O.co2  80  ASP80      -0.2456
     45  OD2      -19.9250   -9.0970   -2.2200 O.co2  80  ASP80      -0.2456
     46  N        -20.2370   -9.6310    5.4360 N.3    82  ARG82      -0.1245
     47  CA       -19.1840  -10.0590    6.3310 C.3    82  ARG82       0.1563
     48  C        -19.7620  -10.5790    7.6420 C.2    82  ARG82       0.2260
     49  O        -20.8120  -10.1110    8.1080 O.2    82  ARG82      -0.2867
     50  CB       -18.2530   -8.8950    6.6260 C.3    82  ARG82       0.0307
     51  CG       -17.6710   -8.2410    5.3960 C.3    82  ARG82       0.0489
     52  CD       -16.8240   -9.1600    4.5190 C.3    82  ARG82       0.2205
     53  NE       -16.3780   -8.3820    3.3590 N.pl3  82  ARG82      -0.0865
     54  CZ       -17.1090   -8.1590    2.2710 C.cat  82  ARG82       0.5346
     55  NH1      -18.3140   -8.7130    2.1470 N.pl3  82  ARG82       0.1354
     56  NH2      -16.6330   -7.3970    1.2890 N.pl3  82  ARG82       0.1354
     57  N        -12.7180  -12.3590   10.5090 N.3   109  ILE109     -0.1245
     58  CA       -13.9170  -12.0130    9.7570 C.3   109  ILE109      0.1561
     59  C        -13.9170  -12.7940    8.4280 C.2   109  ILE109      0.2260
     60  O        -12.8920  -12.8590    7.7280 O.2   109  ILE109     -0.2867
     61  CB       -13.9410  -10.4920    9.4420 C.3   109  ILE109      0.0252
     62  CG1      -13.7610   -9.6550   10.7220 C.3   109  ILE109      0.0019
     63  CG2      -15.2410  -10.1040    8.7080 C.3   109  ILE109      0.0019
     64  CD1      -13.6260   -8.1690   10.4510 C.3   109  ILE109      0.0001
     65  N        -16.0440  -13.7450    4.6310 N.3   111  VAL111     -0.1245
     66  CA       -16.8240  -13.1660    3.5630 C.3   111  VAL111      0.1561
     67  C        -17.7740  -14.2450    3.0600 C.2   111  VAL111      0.2260
     68  O        -17.3450  -15.3370    2.6510 O.2   111  VAL111     -0.2867
     69  CB       -15.9410  -12.7060    2.3830 C.3   111  VAL111      0.0252
     70  CG1      -16.7920  -12.0710    1.3010 C.3   111  VAL111      0.0019
     71  CG2      -14.8560  -11.7150    2.8760 C.3   111  VAL111      0.0019
     72  N        -15.4910  -17.4200    2.4240 N.3   119  MET119     -0.1245
     73  CA       -14.0410  -17.2600    2.3080 C.3   119  MET119      0.1570
     74  C        -13.5010  -16.6920    3.6160 C.2   119  MET119      0.2261
     75  O        -14.0290  -15.7290    4.1610 O.2   119  MET119     -0.2867
     76  CB       -13.6510  -16.3660    1.1280 C.3   119  MET119      0.0387
     77  CG       -12.1340  -16.3090    0.9070 C.3   119  MET119      0.0595
     78  SD       -11.6190  -15.6910   -0.7060 S.3   119  MET119     -0.1393
     79  CE       -12.2620  -16.9520   -1.8140 C.3   119  MET119      0.0692
     80  N         -9.6750  -16.0000    5.4920 N.3   121  ILE121     -0.1245
     81  CA        -8.2500  -15.8650    5.1990 C.3   121  ILE121      0.1561
     82  C         -7.4650  -15.3270    6.4040 C.2   121  ILE121      0.2260
     83  O         -7.0360  -14.1700    6.4390 O.2   121  ILE121     -0.2867
     84  CB        -8.0010  -15.0130    3.9190 C.3   121  ILE121      0.0252
     85  CG1       -8.9150  -15.4860    2.7710 C.3   121  ILE121      0.0019
     86  CG2       -6.5130  -15.0850    3.5280 C.3   121  ILE121      0.0019
     87  CD1       -8.6710  -14.8350    1.4180 C.3   121  ILE121      0.0001
     88  N          1.5620  -19.4980   -3.2060 N.3   167  ASP167     -0.1239
     89  CA         1.5750  -18.1280   -3.7270 C.3   167  ASP167      0.1674
     90  C          2.7060  -17.3440   -3.0390 C.2   167  ASP167      0.2266
     91  O          2.7150  -17.1600   -1.7940 O.2   167  ASP167     -0.2867
     92  CB         0.2000  -17.4790   -3.5120 C.3   167  ASP167      0.1410
     93  CG         0.1300  -16.0240   -4.0050 C.2   167  ASP167      0.3668
     94  OD1        1.1010  -15.5100   -4.5900 O.co2 167  ASP167     -0.2456
     95  OD2       -0.9300  -15.3880   -3.8000 O.co2 167  ASP167     -0.2456
     96  N          3.7240  -14.2540   -4.3240 N.3   169  SER169     -0.1202
     97  CA         3.6910  -12.8960   -4.8640 C.3   169  SER169      0.2020
     98  C          3.6800  -11.8200   -3.7780 C.2   169  SER169      0.2619
     99  O          3.9180  -10.6500   -4.0930 O.2   169  SER169     -0.2717
    100  CB         2.4960  -12.7090   -5.7900 C.3   169  SER169      0.2103
    101  OG         1.2830  -12.7910   -5.0580 O.3   169  SER169     -0.2182
    102  N          3.3980  -12.2050   -2.5240 N.am  170  SER170     -0.1951
    103  CA         3.4780  -11.2820   -1.3820 C.3   170  SER170      0.1924
    104  C          4.6620  -11.5490   -0.4830 C.2   170  SER170      0.2314
    105  O          4.6670  -11.0800    0.6510 O.2   170  SER170     -0.2863
    106  CB         2.2250  -11.4050   -0.5040 C.3   170  SER170      0.2116
    107  OG         1.0470  -11.1890   -1.2390 O.3   170  SER170     -0.2180
@<TRIPOS>BOND
     1   100   101    1
     2   100    97    1
     3    97    96    1
     4    97    98    1
     5    94    93   ar
     6    99    98    2
     7    93    95   ar
     8    93    92    1
     9    98   102   am
    10    89    92    1
    11    89    88    1
    12    89    90    1
    13    90    91    2
    14   102   103    1
    15    45    43   ar
    16    37    35   am
    17    79    78    1
    18   103   106    1
    19   103   104    1
    20    36    35    2
    21   107   106    1
    22    38    39    1
    23    35    34    1
    24    43    42    1
    25    43    44   ar
    26    78    77    1
    27    42    39    1
    28     6     5    1
    29   104   105    2
    30     7     5    1
    31    39    40    1
    32    34    33    1
    33     5     2    1
    34     2     1    1
    35     2     3    1
    36    77    76    1
    37    33    30    1
    38    41    40    2
    39    76    73    1
    40    56    54    1
    41    70    69    1
    42    87    85    1
    43     3     4    2
    44    55    54    1
    45    32    31    2
    46    54    53    2
    47    73    72    1
    48    73    74    1
    49    69    71    1
    50    69    66    1
    51    30    31    1
    52    30    29    1
    53    68    67    2
    54    85    84    1
    55    23    25   ar
    56    23    22   ar
    57    25    27   ar
    58    67    66    1
    59     8     9    1
    60    53    52    1
    61     9    10    1
    62     9    12    1
    63    11    10    2
    64    20    19    2
    65    86    84    1
    66    66    65    1
    67    74    75    2
    68    21    22    1
    69    21    18    1
    70    22    24   ar
    71    84    81    1
    72    27    28    1
    73    27    26   ar
    74    13    12    1
    75    13    14    1
    76    16    14   am
    77    19    18    1
    78    52    51    1
    79    18    17    1
    80    14    15    2
    81    24    26   ar
    82    81    80    1
    83    81    82    1
    84    51    50    1
    85    46    47    1
    86    47    50    1
    87    47    48    1
    88    82    83    2
    89    48    49    2
    90    60    59    2
    91    59    58    1
    92    63    61    1
    93    61    58    1
    94    61    62    1
    95    58    57    1
    96    64    62    1
