@<TRIPOS>MOLECULE
tmp/4xhfB00.pdb
 103 100 0 0 0
SMALL
GASTEIGER

@<TRIPOS>ATOM
      1  N         23.4110   -5.5040   56.8710 N.3   117  LEU117     -0.1231
      2  CA        22.8200   -6.4100   55.8960 C.3   117  LEU117      0.1693
      3  C         21.8430   -7.3660   56.5720 C.2   117  LEU117      0.2592
      4  O         20.7100   -7.5280   56.1220 O.2   117  LEU117     -0.2718
      5  CB        23.9150   -7.1920   55.1660 C.3   117  LEU117      0.0284
      6  CG        23.4730   -8.2950   54.2010 C.3   117  LEU117      0.0019
      7  CD1       22.4440   -7.7950   53.2080 C.3   117  LEU117      0.0001
      8  CD2       24.6860   -8.8250   53.4740 C.3   117  LEU117      0.0001
      9  N         22.2890   -7.9880   57.6590 N.am  118  TRP118     -0.1976
     10  CA        21.4830   -8.9700   58.3750 C.3   118  TRP118      0.1640
     11  C         20.8360   -8.3840   59.6240 C.2   118  TRP118      0.2290
     12  O         19.7240   -8.7660   59.9920 O.2   118  TRP118     -0.2864
     13  CB        22.3380  -10.1730   58.7780 C.3   118  TRP118      0.0576
     14  CG        22.9600  -10.9090   57.6320 C.ar  118  TRP118      0.0006
     15  CD1       24.2070  -10.7140   57.1140 C.ar  118  TRP118      0.0946
     16  CD2       22.3700  -11.9690   56.8670 C.ar  118  TRP118      0.0152
     17  NE1       24.4280  -11.5820   56.0740 N.ar  118  TRP118     -0.2442
     18  CE2       23.3160  -12.3640   55.9020 C.ar  118  TRP118      0.0810
     19  CE3       21.1330  -12.6210   56.9050 C.ar  118  TRP118      0.0012
     20  CZ2       23.0660  -13.3800   54.9850 C.ar  118  TRP118      0.0191
     21  CZ3       20.8850  -13.6290   55.9900 C.ar  118  TRP118      0.0001
     22  CH2       21.8460  -13.9970   55.0430 C.ar  118  TRP118      0.0015
     23  N         26.0910   -9.6410   61.6520 N.3   144  GLU144     -0.1231
     24  CA        26.5620   -9.8600   60.2910 C.3   144  GLU144      0.1699
     25  C         27.2640  -11.2130   60.1930 C.2   144  GLU144      0.2592
     26  O         27.5660  -11.8360   61.2090 O.2   144  GLU144     -0.2718
     27  CB        27.5040   -8.7320   59.8670 C.3   144  GLU144      0.0402
     28  CG        26.9260   -7.3280   60.0440 C.3   144  GLU144      0.1161
     29  CD        25.7640   -7.0440   59.1100 C.2   144  GLU144      0.3649
     30  OE1       25.9960   -6.4550   58.0330 O.co2 144  GLU144     -0.2457
     31  OE2       24.6170   -7.4010   59.4530 O.co2 144  GLU144     -0.2457
     32  N         27.5220  -11.6610   58.9680 N.am  145  THR145     -0.1953
     33  CA        28.1070  -12.9810   58.7440 C.3   145  THR145      0.1897
     34  C         29.5550  -13.0540   59.2270 C.2   145  THR145      0.2313
     35  O         30.3860  -12.2460   58.8080 O.2   145  THR145     -0.2863
     36  CB        28.0730  -13.3660   57.2500 C.3   145  THR145      0.1794
     37  OG1       26.7290  -13.2880   56.7590 O.3   145  THR145     -0.2208
     38  CG2       28.6000  -14.7800   57.0440 C.3   145  THR145      0.0378
     39  N         32.8160  -12.2760   56.8590 N.3   148  ILE148     -0.1231
     40  CA        32.5690  -11.1680   55.9370 C.3   148  ILE148      0.1692
     41  C         32.2960   -9.8680   56.6960 C.2   148  ILE148      0.2592
     42  O         33.1800   -9.0250   56.8250 O.2   148  ILE148     -0.2718
     43  CB        31.3750  -11.4670   54.9940 C.3   148  ILE148      0.0266
     44  CG1       31.6290  -12.7480   54.2000 C.3   148  ILE148      0.0019
     45  CG2       31.1360  -10.3140   54.0220 C.3   148  ILE148      0.0020
     46  CD1       30.5750  -13.8100   54.4100 C.3   148  ILE148      0.0001
     47  N         31.0750   -9.7160   57.2020 N.am  149  GLY149     -0.1957
     48  CA        30.6470   -8.4630   57.8010 C.3   149  GLY149      0.1869
     49  C         31.2400   -8.1770   59.1670 C.2   149  GLY149      0.2309
     50  O         31.1660   -7.0500   59.6520 O.2   149  GLY149     -0.2863
     51  N         36.4700    2.5620   47.9730 N.3   179  LYS179     -0.1245
     52  CA        37.1690    1.4480   47.3470 C.3   179  LYS179      0.1561
     53  C         38.4200    1.9570   46.6420 C.2   179  LYS179      0.2260
     54  O         38.4630    3.0990   46.1850 O.2   179  LYS179     -0.2867
     55  CB        36.2590    0.7250   46.3510 C.3   179  LYS179      0.0271
     56  CG        35.0990   -0.0300   46.9890 C.3   179  LYS179      0.0035
     57  CD        34.2410   -0.7370   45.9450 C.3   179  LYS179      0.0206
     58  CE        33.4830    0.2510   45.0660 C.3   179  LYS179      0.1093
     59  NZ        32.6120   -0.4330   44.0680 N.3   179  LYS179     -0.1314
     60  N         35.6780   -2.6170   52.7760 N.3   193  VAL193     -0.1231
     61  CA        36.1840   -3.9790   52.6810 C.3   193  VAL193      0.1692
     62  C         35.5920   -4.6610   51.4540 C.2   193  VAL193      0.2593
     63  O         34.3900   -4.5800   51.2050 O.2   193  VAL193     -0.2718
     64  CB        35.8590   -4.7840   53.9560 C.3   193  VAL193      0.0266
     65  CG1       36.1680   -6.2680   53.7730 C.3   193  VAL193      0.0020
     66  CG2       36.6410   -4.2280   55.1270 C.3   193  VAL193      0.0020
     67  N         36.4470   -5.3240   50.6840 N.am  194  SER194     -0.1938
     68  CA        36.0050   -6.0390   49.4960 C.3   194  SER194      0.2055
     69  C         35.1210   -7.2210   49.8650 C.2   194  SER194      0.2644
     70  O         35.4600   -8.0160   50.7420 O.2   194  SER194     -0.2714
     71  CB        37.2080   -6.5170   48.6850 C.3   194  SER194      0.2130
     72  OG        37.8540   -5.4240   48.0550 O.3   194  SER194     -0.2179
     73  N         33.9830   -7.3250   49.1900 N.am  195  GLY195     -0.1939
     74  CA        33.0400   -8.3970   49.4400 C.3   195  GLY195      0.2014
     75  C         32.2080   -8.1590   50.6860 C.2   195  GLY195      0.2639
     76  O         31.3670   -8.9860   51.0400 O.2   195  GLY195     -0.2714
     77  N         32.4470   -7.0300   51.3500 N.am  196  ALA196     -0.1963
     78  CA        31.7140   -6.6660   52.5580 C.3   196  ALA196      0.1728
     79  C         31.2240   -5.2230   52.4700 C.2   196  ALA196      0.2617
     80  O         31.2450   -4.4850   53.4550 O.2   196  ALA196     -0.2715
     81  CB        32.5880   -6.8570   53.7870 C.3   196  ALA196      0.0334
     82  N         30.7770   -4.8360   51.2810 N.am  197  THR197     -0.1937
     83  CA        30.3370   -3.4720   51.0230 C.3   197  THR197      0.2028
     84  C         29.0330   -3.1440   51.7420 C.2   197  THR197      0.2642
     85  O         28.8300   -2.0160   52.1830 O.2   197  THR197     -0.2714
     86  CB        30.1430   -3.2310   49.5170 C.3   197  THR197      0.1808
     87  OG1       31.2870   -3.7130   48.8010 O.3   197  THR197     -0.2208
     88  CG2       29.9550   -1.7530   49.2310 C.3   197  THR197      0.0379
     89  N         28.1560   -4.1340   51.8630 N.am  198  MET198     -0.1962
     90  CA        26.8330   -3.9160   52.4360 C.3   198  MET198      0.1736
     91  C         26.9040   -3.5780   53.9230 C.2   198  MET198      0.2617
     92  O         26.2080   -2.6770   54.3920 O.2   198  MET198     -0.2715
     93  CB        25.9550   -5.1490   52.2180 C.3   198  MET198      0.0427
     94  CG        25.6720   -5.4480   50.7520 C.3   198  MET198      0.0599
     95  SD        24.8910   -4.0700   49.8880 S.3   198  MET198     -0.1393
     96  CE        24.9770   -4.6340   48.1890 C.3   198  MET198      0.0692
     97  N         27.7390   -4.2950   54.6650 N.am  199  THR199     -0.1951
     98  CA        27.9410   -3.9790   56.0730 C.3   199  THR199      0.1897
     99  C         28.5650   -2.5930   56.1940 C.2   199  THR199      0.2313
    100  O         28.2500   -1.8350   57.1120 O.2   199  THR199     -0.2863
    101  CB        28.8380   -5.0190   56.7710 C.3   199  THR199      0.1794
    102  OG1       28.2370   -6.3130   56.6670 O.3   199  THR199     -0.2208
    103  CG2       29.0170   -4.6790   58.2450 C.3   199  THR199      0.0378
@<TRIPOS>BOND
     1    59    58    1
     2    58    57    1
     3    57    56    1
     4    54    53    2
     5    55    56    1
     6    55    52    1
     7    53    52    1
     8    52    51    1
     9    72    71    1
    10    96    95    1
    11    71    68    1
    12    87    86    1
    13    73    74    1
    14    73    69   am
    15    88    86    1
    16    74    75    1
    17    68    69    1
    18    68    67    1
    19    86    83    1
    20    69    70    2
    21    95    94    1
    22    67    62   am
    23    75    76    2
    24    75    77   am
    25    94    93    1
    26    83    82    1
    27    83    84    1
    28    63    62    2
    29    82    79   am
    30    77    78    1
    31    62    61    1
    32    84    89   am
    33    84    85    2
    34    89    90    1
    35    93    90    1
    36    90    91    1
    37    79    78    1
    38    79    80    2
    39    78    81    1
    40    61    60    1
    41    61    64    1
    42     7     6    1
    43     8     6    1
    44    65    64    1
    45    91    92    2
    46    91    97   am
    47    64    66    1
    48    45    43    1
    49    44    46    1
    50    44    43    1
    51     6     5    1
    52    97    98    1
    53    20    22   ar
    54    20    18   ar
    55    43    40    1
    56    22    21   ar
    57     5     2    1
    58     2     3    1
    59     2     1    1
    60    18    17   ar
    61    18    16   ar
    62    40    41    1
    63    40    39    1
    64    21    19   ar
    65    98    99    1
    66    98   101    1
    67    17    15   ar
    68     4     3    2
    69    99   100    2
    70     3     9   am
    71   102   101    1
    72    41    42    2
    73    41    47   am
    74    37    36    1
    75   101   103    1
    76    16    19   ar
    77    16    14   ar
    78    38    36    1
    79    15    14   ar
    80    47    48    1
    81    36    33    1
    82    14    13    1
    83     9    10    1
    84    48    49    1
    85    30    29   ar
    86    10    13    1
    87    10    11    1
    88    33    32    1
    89    33    34    1
    90    35    34    2
    91    32    25   am
    92    29    31   ar
    93    29    28    1
    94    49    50    2
    95    11    12    2
    96    27    28    1
    97    27    24    1
    98    25    24    1
    99    25    26    2
   100    24    23    1
