@<TRIPOS>MOLECULE
tmp/4xhgA00.pdb
 152 143 0 0 0
SMALL
GASTEIGER

@<TRIPOS>ATOM
      1  N          9.8350  -14.8900    3.9550 N.3    14  ILE14      -0.1231
      2  CA        10.7960  -14.8260    2.8470 C.3    14  ILE14       0.1696
      3  C         10.2880  -15.1900    1.4130 C.2    14  ILE14       0.2632
      4  O         10.5950  -14.4390    0.4850 O.2    14  ILE14      -0.2714
      5  CB        12.0380  -15.7000    3.1780 C.3    14  ILE14       0.0266
      6  CG1       12.8730  -15.0100    4.2510 C.3    14  ILE14       0.0019
      7  CG2       12.9070  -15.9080    1.9560 C.3    14  ILE14       0.0020
      8  CD1       14.0580  -15.8240    4.7310 C.3    14  ILE14       0.0001
      9  N          9.5020  -16.2570    1.2020 N.am   15  GLY15      -0.1718
     10  CA         8.8740  -17.0220    2.2550 C.2    15  GLY15       0.1480
     11  C          8.0320  -18.2520    1.9850 C.2    15  GLY15       0.2821
     12  O          8.1730  -19.2330    2.6990 O.2    15  GLY15      -0.2669
     13  N          7.1400  -18.2260    1.0030 N.am   16  SER16      -0.1901
     14  CA         6.1460  -19.3160    0.8920 C.3    16  SER16       0.2058
     15  C          6.5540  -20.4490   -0.0620 C.2    16  SER16       0.2644
     16  O          7.4770  -20.2910   -0.8650 O.2    16  SER16      -0.2714
     17  CB         4.7910  -18.7510    0.4710 C.3    16  SER16       0.2130
     18  OG         3.8890  -18.7350    1.5800 O.3    16  SER16      -0.2179
     19  N          5.8840  -21.5990    0.0510 N.am   17  GLY17      -0.1939
     20  CA         6.2400  -22.7770   -0.7310 C.3    17  GLY17       0.2014
     21  C          5.1940  -23.8870   -0.6490 C.2    17  GLY17       0.2640
     22  O          4.1410  -23.7290   -0.0120 O.2    17  GLY17      -0.2714
     23  N          5.4700  -25.0230   -1.2900 N.am   18  SER18      -0.1935
     24  CA         4.5120  -26.1410   -1.2910 C.3    18  SER18       0.2055
     25  C          4.5740  -26.9720   -0.0050 C.2    18  SER18       0.2643
     26  O          3.5670  -27.5580    0.4380 O.2    18  SER18      -0.2714
     27  CB         4.7710  -27.0410   -2.4930 C.3    18  SER18       0.2130
     28  OG         6.1290  -27.4880   -2.4610 O.3    18  SER18      -0.2179
     29  N          5.7660  -27.0420    0.5800 N.am   19  PHE19      -0.1973
     30  CA         5.9750  -27.8060    1.8040 C.3    19  PHE19       0.1639
     31  C          6.0280  -26.8790    3.0150 C.2    19  PHE19       0.2290
     32  O          6.5760  -27.2400    4.0580 O.2    19  PHE19      -0.2864
     33  CB         7.2600  -28.6400    1.6960 C.3    19  PHE19       0.0560
     34  CG         7.2220  -29.6560    0.5840 C.ar   19  PHE19      -0.0200
     35  CD1        6.7550  -30.9370    0.8180 C.ar   19  PHE19      -0.0042
     36  CD2        7.6130  -29.3130   -0.7100 C.ar   19  PHE19      -0.0042
     37  CE1        6.7000  -31.8850   -0.2150 C.ar   19  PHE19      -0.0003
     38  CE2        7.5560  -30.2570   -1.7650 C.ar   19  PHE19      -0.0003
     39  CZ         7.0930  -31.5400   -1.5110 C.ar   19  PHE19      -0.0000
     40  N          9.0260  -20.2340    4.6630 N.3    22  ILE22      -0.1245
     41  CA        10.3430  -19.9770    5.2310 C.3    22  ILE22       0.1561
     42  C         10.4110  -18.5210    5.6960 C.2    22  ILE22       0.2260
     43  O          9.9480  -17.6210    5.0020 O.2    22  ILE22      -0.2867
     44  CB        11.4840  -20.3020    4.2190 C.3    22  ILE22       0.0252
     45  CG1       12.8410  -19.8690    4.7730 C.3    22  ILE22       0.0019
     46  CG2       11.2310  -19.6630    2.8700 C.3    22  ILE22       0.0019
     47  CD1       14.0060  -20.6230    4.1730 C.3    22  ILE22       0.0001
     48  N         17.5430  -18.6310    9.3590 N.3    35  ALA35      -0.1245
     49  CA        16.3430  -18.9220    8.5880 C.3    35  ALA35       0.1562
     50  C         15.5070  -19.9480    9.3380 C.2    35  ALA35       0.2260
     51  O         16.0420  -20.8750    9.9420 O.2    35  ALA35      -0.2867
     52  CB        16.6970  -19.4230    7.1770 C.3    35  ALA35       0.0290
     53  N         12.1170  -22.4720    8.8600 N.3    37  ARG37      -0.1245
     54  CA        11.1460  -23.0790    7.9740 C.3    37  ARG37       0.1563
     55  C         10.0090  -23.6800    8.7880 C.2    37  ARG37       0.2260
     56  O         10.2540  -24.3020    9.8260 O.2    37  ARG37      -0.2867
     57  CB        11.8180  -24.1490    7.1130 C.3    37  ARG37       0.0307
     58  CG        10.9050  -24.7730    6.0940 C.3    37  ARG37       0.0489
     59  CD        11.5940  -24.8690    4.7440 C.3    37  ARG37       0.2205
     60  NE        10.6410  -25.1450    3.6790 N.pl3  37  ARG37      -0.0865
     61  CZ        10.3630  -24.3120    2.6770 C.cat  37  ARG37       0.5346
     62  NH1       10.9800  -23.1400    2.5720 N.pl3  37  ARG37       0.1354
     63  NH2        9.4730  -24.6600    1.7570 N.pl3  37  ARG37       0.1354
     64  N         24.2620  -25.9170    4.3970 N.3    65  PRO65      -0.2116
     65  CA        23.6640  -25.0440    5.4150 C.3    65  PRO65       0.1372
     66  C         23.5850  -25.7840    6.7360 C.2    65  PRO65       0.2244
     67  O         23.1800  -26.9380    6.7530 O.2    65  PRO65      -0.2868
     68  CB        22.2610  -24.7350    4.8700 C.3    65  PRO65       0.0268
     69  CG        22.3000  -25.0980    3.4550 C.3    65  PRO65       0.0207
     70  CD        23.3720  -26.1190    3.2460 C.3    65  PRO65       0.0892
     71  N         17.9470  -22.9500   10.5480 N.3    81  ILE81      -0.1231
     72  CA        19.1030  -23.2520    9.7210 C.3    81  ILE81       0.1692
     73  C         19.7450  -21.9410    9.2820 C.2    81  ILE81       0.2592
     74  O         19.1440  -20.8770    9.4370 O.2    81  ILE81      -0.2718
     75  CB        18.6810  -24.1210    8.5040 C.3    81  ILE81       0.0266
     76  CG1       19.8870  -24.7490    7.8000 C.3    81  ILE81       0.0019
     77  CG2       17.8150  -23.3190    7.5330 C.3    81  ILE81       0.0020
     78  CD1       19.5400  -26.0020    7.0150 C.3    81  ILE81       0.0001
     79  N         20.9720  -22.0180    8.7690 N.am   82  ASP82      -0.1960
     80  CA        21.6870  -20.8500    8.2540 C.3    82  ASP82       0.1840
     81  C         20.8430  -20.0180    7.3020 C.2    82  ASP82       0.2622
     82  O         20.1840  -20.5560    6.4220 O.2    82  ASP82      -0.2715
     83  CB        22.9570  -21.2800    7.5180 C.3    82  ASP82       0.1450
     84  CG        24.0520  -21.7480    8.4500 C.2    82  ASP82       0.3671
     85  OD1       24.0270  -21.3960    9.6460 O.co2  82  ASP82      -0.2456
     86  OD2       24.9550  -22.4540    7.9700 O.co2  82  ASP82      -0.2456
     87  N         20.8710  -18.7040    7.4760 N.am   83  LEU83      -0.1963
     88  CA        20.2850  -17.8050    6.4980 C.3    83  LEU83       0.1728
     89  C         21.2200  -17.7870    5.2980 C.2    83  LEU83       0.2616
     90  O         22.4300  -17.7100    5.4670 O.2    83  LEU83      -0.2715
     91  CB        20.1000  -16.3970    7.0770 C.3    83  LEU83       0.0311
     92  CG        19.4910  -15.3410    6.1460 C.3    83  LEU83       0.0022
     93  CD1       18.0740  -15.7290    5.7230 C.3    83  LEU83       0.0001
     94  CD2       19.4940  -13.9660    6.8010 C.3    83  LEU83       0.0001
     95  N         20.6630  -17.8840    4.0950 N.am   84  LEU84      -0.1963
     96  CA        21.4650  -17.8700    2.8750 C.3    84  LEU84       0.1728
     97  C         21.0610  -16.7070    1.9810 C.2    84  LEU84       0.2616
     98  O         20.0910  -16.0140    2.2670 O.2    84  LEU84      -0.2715
     99  CB        21.3180  -19.1890    2.1140 C.3    84  LEU84       0.0311
    100  CG        21.8180  -20.4350    2.8400 C.3    84  LEU84       0.0022
    101  CD1       21.4350  -21.6980    2.0770 C.3    84  LEU84       0.0001
    102  CD2       23.3160  -20.3620    3.0360 C.3    84  LEU84       0.0001
    103  N         21.8120  -16.5030    0.9000 N.am   85  GLY85      -0.1955
    104  CA        21.5350  -15.4410   -0.0470 C.3    85  GLY85       0.1869
    105  C         20.7810  -15.9140   -1.2750 C.2    85  GLY85       0.2309
    106  O         20.0680  -16.9180   -1.2250 O.2    85  GLY85      -0.2863
    107  N         19.6090  -17.4390   -4.9330 N.3    87  SER87      -0.1217
    108  CA        19.8640  -18.6530   -5.6710 C.3    87  SER87       0.1889
    109  C         20.6060  -18.3250   -6.9650 C.2    87  SER87       0.2288
    110  O         20.6840  -17.1670   -7.3780 O.2    87  SER87      -0.2866
    111  CB        18.5590  -19.3610   -5.9860 C.3    87  SER87       0.2089
    112  OG        17.9330  -18.7210   -7.0790 O.3    87  SER87      -0.2183
    113  N         18.1110  -16.8310   -9.3230 N.3    90  ASP90      -0.1239
    114  CA        17.9900  -15.4020   -8.9990 C.3    90  ASP90       0.1674
    115  C         19.1160  -14.5790   -9.6370 C.2    90  ASP90       0.2266
    116  O         18.8940  -13.5180  -10.2130 O.2    90  ASP90      -0.2867
    117  CB        18.0220  -15.1590   -7.4730 C.3    90  ASP90       0.1410
    118  CG        16.7790  -15.6550   -6.7610 C.2    90  ASP90       0.3668
    119  OD1       15.7140  -15.7720   -7.4070 O.co2  90  ASP90      -0.2456
    120  OD2       16.8740  -15.9130   -5.5410 O.co2  90  ASP90      -0.2456
    121  N         17.8010  -23.3760   -8.7900 N.3   131  ASP131     -0.1239
    122  CA        17.0720  -22.8700   -7.6290 C.3   131  ASP131      0.1674
    123  C         17.5860  -23.4500   -6.3300 C.2   131  ASP131      0.2266
    124  O         17.3820  -22.8590   -5.2690 O.2   131  ASP131     -0.2867
    125  CB        15.5770  -23.1700   -7.7490 C.3   131  ASP131      0.1410
    126  CG        14.8740  -22.2450   -8.7170 C.2   131  ASP131      0.3668
    127  OD1       15.0670  -21.0150   -8.6260 O.co2 131  ASP131     -0.2456
    128  OD2       14.1300  -22.7520   -9.5780 O.co2 131  ASP131     -0.2456
    129  N         22.4490  -21.8320   -3.5850 N.3   134  LEU134     -0.1245
    130  CA        22.3460  -20.4610   -3.0970 C.3   134  LEU134      0.1561
    131  C         23.7040  -19.9600   -2.6600 C.2   134  LEU134      0.2260
    132  O         24.4940  -20.7370   -2.1120 O.2   134  LEU134     -0.2867
    133  CB        21.3540  -20.3760   -1.9190 C.3   134  LEU134      0.0270
    134  CG        19.8330  -20.2670   -2.1020 C.3   134  LEU134      0.0019
    135  CD1       19.2740  -21.3510   -2.9800 C.3   134  LEU134      0.0001
    136  CD2       19.1110  -20.2540   -0.7220 C.3   134  LEU134      0.0001
    137  N         20.7670  -26.6500   -1.2010 N.3   147  ILE147     -0.1231
    138  CA        19.5660  -26.7690   -0.3660 C.3   147  ILE147      0.1692
    139  C         18.5730  -27.7910   -0.9070 C.2   147  ILE147      0.2592
    140  O         18.8250  -28.4320   -1.9370 O.2   147  ILE147     -0.2718
    141  CB        18.8060  -25.4300   -0.2220 C.3   147  ILE147      0.0266
    142  CG1       18.1080  -25.0400   -1.5280 C.3   147  ILE147      0.0019
    143  CG2       19.7260  -24.3410    0.2820 C.3   147  ILE147      0.0020
    144  CD1       17.2060  -23.8180   -1.4030 C.3   147  ILE147      0.0001
    145  N         17.4410  -27.9180   -0.2140 N.am  148  ASP148     -0.1974
    146  CA        16.3010  -28.7050   -0.6910 C.3   148  ASP148      0.1709
    147  C         16.6090  -30.1990   -0.7860 C.2   148  ASP148      0.2293
    148  O         16.7470  -30.7540   -1.8840 O.2   148  ASP148     -0.2864
    149  CB        15.8370  -28.1730   -2.0580 C.3   148  ASP148      0.1436
    150  CG        14.3620  -27.8230   -2.0920 C.2   148  ASP148      0.3671
    151  OD1       13.5300  -28.7550   -2.0490 O.co2 148  ASP148     -0.2456
    152  OD2       14.0420  -26.6130   -2.1720 O.co2 148  ASP148     -0.2456
@<TRIPOS>BOND
     1   116   115    2
     2   115   114    1
     3   128   126   ar
     4   113   114    1
     5   114   117    1
     6   121   122    1
     7   126   127   ar
     8   126   125    1
     9   125   122    1
    10   122   123    1
    11   117   118    1
    12   119   118   ar
    13   110   109    2
    14   112   111    1
    15   109   108    1
    16   118   120   ar
    17   123   124    2
    18   111   108    1
    19   108   107    1
    20   129   130    1
    21   130   131    1
    22   130   133    1
    23   135   134    1
    24   131   132    2
    25    27    28    1
    26    27    24    1
    27   152   150   ar
    28   134   133    1
    29   134   136    1
    30   150   149    1
    31   150   151   ar
    32   149   146    1
    33   140   139    2
    34   148   147    2
    35    38    39   ar
    36    38    36   ar
    37   142   144    1
    38   142   141    1
    39    39    37   ar
    40    24    23    1
    41    24    25    1
    42    23    21   am
    43   105   106    2
    44   105   104    1
    45   137   138    1
    46   139   138    1
    47   139   145   am
    48    16    15    2
    49   147   146    1
    50    20    21    1
    51    20    19    1
    52    36    34   ar
    53   146   145    1
    54    21    22    2
    55   138   141    1
    56   141   143    1
    57    37    35   ar
    58    15    19   am
    59    15    14    1
    60   104   103    1
    61    25    26    2
    62    25    29   am
    63    17    14    1
    64    17    18    1
    65     4     3    2
    66    29    30    1
    67    34    35   ar
    68    34    33    1
    69    14    13    1
    70   103    97   am
    71    13    11   am
    72     9     3    1
    73     9    10    2
    74     3     2    1
    75    33    30    1
    76    63    61    1
    77    30    31    1
    78     7     5    1
    79    97    98    2
    80    97    96    1
    81    11    10    1
    82    11    12    2
    83   101   100    1
    84    99   100    1
    85    99    96    1
    86    62    61    1
    87    61    60    2
    88   100   102    1
    89     2     5    1
    90     2     1    1
    91    46    44    1
    92    96    95    1
    93    31    32    2
    94     5     6    1
    95    70    69    1
    96    70    64    1
    97    69    68    1
    98    60    59    1
    99    95    89   am
   100    47    45    1
   101    44    45    1
   102    44    41    1
   103     6     8    1
   104    64    65    1
   105    40    41    1
   106    59    58    1
   107    68    65    1
   108    43    42    2
   109    41    42    1
   110    89    90    2
   111    89    88    1
   112    65    66    1
   113    93    92    1
   114    58    57    1
   115    92    94    1
   116    92    91    1
   117    82    81    2
   118    88    91    1
   119    88    87    1
   120    66    67    2
   121    78    76    1
   122    57    54    1
   123    52    49    1
   124    81    87   am
   125    81    80    1
   126    83    80    1
   127    83    84    1
   128    77    75    1
   129    76    75    1
   130    86    84   ar
   131    54    55    1
   132    54    53    1
   133    80    79    1
   134    84    85   ar
   135    75    72    1
   136    49    50    1
   137    49    48    1
   138    79    73   am
   139    55    56    2
   140    73    74    2
   141    73    72    1
   142    50    51    2
   143    72    71    1
