@<TRIPOS>MOLECULE
tmp/4xhkA00.pdb
 161 151 0 0 0
SMALL
GASTEIGER

@<TRIPOS>ATOM
      1  N        -24.7900   33.5280   -3.8200 N.3    13  LEU13      -0.1231
      2  CA       -23.8630   34.6250   -4.2010 C.3    13  LEU13       0.1693
      3  C        -22.6060   34.0960   -4.9220 C.2    13  LEU13       0.2592
      4  O        -22.0110   34.8040   -5.7580 O.2    13  LEU13      -0.2718
      5  CB       -23.5020   35.3900   -2.9110 C.3    13  LEU13       0.0284
      6  CG       -24.6120   36.1280   -2.2130 C.3    13  LEU13       0.0019
      7  CD1      -24.2560   36.6630   -0.8500 C.3    13  LEU13       0.0001
      8  CD2      -25.1670   37.2810   -3.0580 C.3    13  LEU13       0.0001
      9  N        -22.1600   32.8900   -4.6000 N.am   14  GLY14      -0.1957
     10  CA       -21.0050   32.1990   -5.2570 C.3    14  GLY14       0.1869
     11  C        -20.6320   30.8920   -4.5540 C.2    14  GLY14       0.2309
     12  O        -21.1310   30.6610   -3.4100 O.2    14  GLY14      -0.2863
     13  N        -13.7080   27.6090   -1.3410 N.3    18  PHE18      -0.1241
     14  CA       -14.1620   27.9880    0.0090 C.3    18  PHE18       0.1605
     15  C        -15.5080   27.3370    0.5010 C.2    18  PHE18       0.2264
     16  O        -15.8470   27.4030    1.6870 O.2    18  PHE18      -0.2867
     17  CB       -14.3210   29.5070    0.0340 C.3    18  PHE18       0.0534
     18  CG       -15.2340   30.0470   -1.0470 C.ar   18  PHE18      -0.0203
     19  CD1      -16.6600   29.9990   -0.9120 C.ar   18  PHE18      -0.0042
     20  CD2      -14.6780   30.5960   -2.2310 C.ar   18  PHE18      -0.0042
     21  CE1      -17.4670   30.5060   -1.9590 C.ar   18  PHE18      -0.0003
     22  CE2      -15.4960   31.1050   -3.2470 C.ar   18  PHE18      -0.0003
     23  CZ       -16.8990   31.0390   -3.0980 C.ar   18  PHE18      -0.0000
     24  N        -22.0010   30.1220   -0.7720 N.3    21  VAL21      -0.1245
     25  CA       -22.4210   31.2540   -0.0110 C.3    21  VAL21       0.1561
     26  C        -23.7150   31.8310   -0.5530 C.2    21  VAL21       0.2260
     27  O        -23.7860   32.2060   -1.7260 O.2    21  VAL21      -0.2867
     28  CB       -21.3560   32.3600    0.0140 C.3    21  VAL21       0.0252
     29  CG1      -21.8730   33.4990    0.8480 C.3    21  VAL21       0.0019
     30  CG2      -20.0910   31.8180    0.5990 C.3    21  VAL21       0.0019
     31  N        -25.1630   36.9050    5.0600 N.3    34  ALA34      -0.1245
     32  CA       -24.6860   35.9530    4.0870 C.3    34  ALA34       0.1562
     33  C        -24.5630   34.6550    4.8690 C.2    34  ALA34       0.2260
     34  O        -24.1740   34.6540    6.0200 O.2    34  ALA34      -0.2867
     35  CB       -23.2970   36.3780    3.4460 C.3    34  ALA34       0.0290
     36  N        -22.8110   30.9490    4.7220 N.3    36  LYS36      -0.1245
     37  CA       -21.7500   30.1840    4.1170 C.3    36  LYS36       0.1561
     38  C        -21.7180   28.7690    4.6250 C.2    36  LYS36       0.2260
     39  O        -21.6180   28.5370    5.8330 O.2    36  LYS36      -0.2867
     40  CB       -20.3880   30.8790    4.4470 C.3    36  LYS36       0.0271
     41  CG       -19.1890   30.1720    3.8800 C.3    36  LYS36       0.0035
     42  CD       -17.8760   30.8390    4.1290 C.3    36  LYS36       0.0206
     43  CE       -16.7030   30.0930    3.4770 C.3    36  LYS36       0.1093
     44  NZ       -15.4460   30.8980    3.7190 N.3    36  LYS36      -0.1314
     45  N        -11.2610   28.3150   10.3470 N.3    54  GLU54      -0.1245
     46  CA       -11.9430   29.5160    9.8720 C.3    54  GLU54       0.1567
     47  C        -12.8310   30.1860   10.9230 C.2    54  GLU54       0.2260
     48  O        -12.9230   31.4300   11.0020 O.2    54  GLU54      -0.2867
     49  CB       -12.7320   29.2250    8.5900 C.3    54  GLU54       0.0388
     50  CG       -13.5320   30.3850    8.0620 C.3    54  GLU54       0.1160
     51  CD       -14.2610   30.1180    6.7590 C.2    54  GLU54       0.3649
     52  OE1      -14.1070   29.0250    6.1780 O.co2  54  GLU54      -0.2457
     53  OE2      -14.8840   31.0540    6.2670 O.co2  54  GLU54      -0.2457
     54  N        -15.7940   41.6690    7.3280 N.3    69  ILE69      -0.1245
     55  CA       -17.1200   41.0750    7.4480 C.3    69  ILE69       0.1561
     56  C        -17.1170   40.1810    8.6890 C.2    69  ILE69       0.2260
     57  O        -16.3460   39.1970    8.8030 O.2    69  ILE69      -0.2867
     58  CB       -17.4780   40.3210    6.1680 C.3    69  ILE69       0.0252
     59  CG1      -17.7750   41.2440    5.0080 C.3    69  ILE69       0.0019
     60  CG2      -18.6330   39.3360    6.3340 C.3    69  ILE69       0.0019
     61  CD1      -19.0410   42.0460    5.1280 C.3    69  ILE69       0.0001
     62  N        -22.7900   35.4630    8.3170 N.3    85  LEU85      -0.1231
     63  CA       -21.8540   36.5970    8.1570 C.3    85  LEU85       0.1693
     64  C        -22.6520   37.8680    7.8330 C.2    85  LEU85       0.2592
     65  O        -23.7140   37.8060    7.1920 O.2    85  LEU85      -0.2718
     66  CB       -20.8800   36.2650    6.9960 C.3    85  LEU85       0.0284
     67  CG       -20.0020   35.0660    7.3240 C.3    85  LEU85       0.0019
     68  CD1      -19.6520   34.2580    6.0990 C.3    85  LEU85       0.0001
     69  CD2      -18.7430   35.5520    8.0100 C.3    85  LEU85       0.0001
     70  N        -22.0690   39.0480    8.1150 N.am   86  GLU86      -0.1966
     71  CA       -22.5870   40.3180    7.6760 C.3    86  GLU86       0.1733
     72  C        -22.7570   40.4190    6.2290 C.2    86  GLU86       0.2616
     73  O        -21.9680   39.8670    5.4930 O.2    86  GLU86      -0.2715
     74  CB       -21.6780   41.4870    8.0780 C.3    86  GLU86       0.0429
     75  CG       -21.5360   41.6280    9.5500 C.3    86  GLU86       0.1163
     76  CD       -20.7930   42.9440    9.8900 C.2    86  GLU86       0.3649
     77  OE1      -19.5950   43.0760    9.5260 O.co2  86  GLU86      -0.2457
     78  OE2      -21.4610   43.8510   10.4540 O.co2  86  GLU86      -0.2457
     79  N        -23.7760   41.1770    5.8190 N.am   87  ARG87      -0.1964
     80  CA       -23.9610   41.4830    4.4410 C.3    87  ARG87       0.1714
     81  C        -24.3100   42.9690    4.2960 C.2    87  ARG87       0.2458
     82  O        -25.4650   43.3760    4.5970 O.2    87  ARG87      -0.2730
     83  CB       -25.0480   40.6060    3.7860 C.3    87  ARG87       0.0347
     84  CG       -25.4360   41.1310    2.3950 C.3    87  ARG87       0.0492
     85  CD       -26.2350   40.1260    1.5900 C.3    87  ARG87       0.2205
     86  NE       -27.5410   39.8570    2.2110 N.pl3  87  ARG87      -0.0865
     87  CZ       -28.6320   40.5260    1.8390 C.cat  87  ARG87       0.5346
     88  NH1      -28.5570   41.4570    0.8790 N.pl3  87  ARG87       0.1354
     89  NH2      -29.7960   40.2510    2.3930 N.pl3  87  ARG87       0.1354
     90  N        -23.3610   43.8010    3.7470 N.am   88  PRO88      -0.2727
     91  CA       -23.7810   45.1620    3.3980 C.3    88  PRO88       0.1402
     92  C        -24.6430   45.1440    2.1860 C.2    88  PRO88       0.2269
     93  O        -24.5570   44.2260    1.3470 O.2    88  PRO88      -0.2865
     94  CB       -22.4280   45.9040    3.1150 C.3    88  PRO88       0.0296
     95  CG       -21.3300   44.9580    3.5480 C.3    88  PRO88       0.0237
     96  CD       -21.9460   43.5820    3.3690 C.3    88  PRO88       0.0939
     97  N        -23.7490   46.2650   -2.1860 N.3    91  VAL91      -0.1231
     98  CA       -22.3570   45.8090   -2.0460 C.3    91  VAL91       0.1692
     99  C        -21.8660   45.3690   -3.3960 C.2    91  VAL91       0.2592
    100  O        -22.6690   44.9930   -4.2850 O.2    91  VAL91      -0.2718
    101  CB       -22.2530   44.7170   -0.9670 C.3    91  VAL91       0.0266
    102  CG1      -22.9040   43.4110   -1.4390 C.3    91  VAL91       0.0020
    103  CG2      -20.8150   44.4600   -0.5890 C.3    91  VAL91       0.0020
    104  N        -20.5540   45.4560   -3.6160 N.am   92  GLN92      -0.1966
    105  CA       -19.9500   44.8890   -4.7930 C.3    92  GLN92       0.1733
    106  C        -18.5160   44.4500   -4.4680 C.2    92  GLN92       0.2616
    107  O        -17.8630   45.1950   -3.7410 O.2    92  GLN92      -0.2715
    108  CB       -19.9720   45.8840   -5.9470 C.3    92  GLN92       0.0408
    109  CG       -19.4180   45.2680   -7.2370 C.3    92  GLN92       0.0908
    110  CD       -19.3950   46.2160   -8.4310 C.2    92  GLN92       0.2608
    111  OE1      -19.0500   47.3760   -8.3150 O.2    92  GLN92      -0.2717
    112  NE2      -19.8700   45.7270   -9.5550 N.am   92  GLN92      -0.0878
    113  N        -18.0700   43.2820   -4.9480 N.am   93  ASP93      -0.1971
    114  CA       -16.6710   42.8820   -4.6710 C.3    93  ASP93       0.1709
    115  C        -15.7390   43.7270   -5.5410 C.2    93  ASP93       0.2293
    116  O        -16.1080   44.2840   -6.6120 O.2    93  ASP93      -0.2864
    117  CB       -16.4220   41.3830   -4.6860 C.3    93  ASP93       0.1436
    118  CG       -16.2980   40.7660   -6.0660 C.2    93  ASP93       0.3671
    119  OD1      -15.7620   41.3520   -7.0180 O.co2  93  ASP93      -0.2456
    120  OD2      -16.6110   39.5400   -6.1110 O.co2  93  ASP93      -0.2456
    121  N        -11.0380   39.7060   -5.2130 N.3   136  GLU136     -0.1231
    122  CA       -12.2460   38.9150   -4.9770 C.3   136  GLU136      0.1699
    123  C        -12.6250   38.7910   -3.5480 C.2   136  GLU136      0.2592
    124  O        -13.8190   38.5390   -3.1670 O.2   136  GLU136     -0.2718
    125  CB       -12.0790   37.4560   -5.5230 C.3   136  GLU136      0.0402
    126  CG       -11.9680   37.3070   -6.9860 C.3   136  GLU136      0.1161
    127  CD       -11.4450   35.8950   -7.3380 C.2   136  GLU136      0.3649
    128  OE1      -11.9020   34.9160   -6.7270 O.co2 136  GLU136     -0.2457
    129  OE2      -10.4740   35.8170   -8.0850 O.co2 136  GLU136     -0.2457
    130  N        -11.6800   38.9930   -2.6490 N.am  137  ASN137     -0.1974
    131  CA       -11.9580   38.8780   -1.2160 C.3   137  ASN137      0.1688
    132  C        -12.0970   40.2250   -0.5020 C.2   137  ASN137      0.2292
    133  O        -11.8820   40.2990    0.6960 O.2   137  ASN137     -0.2864
    134  CB       -10.8800   38.0170   -0.5550 C.3   137  ASN137      0.1181
    135  CG       -11.0270   36.5370   -0.8980 C.2   137  ASN137      0.2629
    136  OD1      -12.1130   36.1010   -1.2760 O.2   137  ASN137     -0.2716
    137  ND2       -9.9510   35.8070   -0.8700 N.am  137  ASN137     -0.0877
    138  N        -14.8830   43.4320   -0.2770 N.3   139  LEU139     -0.1245
    139  CA       -16.2480   43.9000   -0.5860 C.3   139  LEU139      0.1561
    140  C        -16.2980   45.3800   -0.3500 C.2   139  LEU139      0.2260
    141  O        -15.6500   45.8870    0.6130 O.2   139  LEU139     -0.2867
    142  CB       -17.2800   43.2490    0.3160 C.3   139  LEU139      0.0270
    143  CG       -17.4790   41.7100    0.2040 C.3   139  LEU139      0.0019
    144  CD1      -18.7260   41.3120    1.0190 C.3   139  LEU139      0.0001
    145  CD2      -17.5440   41.3160   -1.2470 C.3   139  LEU139      0.0001
    146  N        -13.2970   39.4760    3.2800 N.3   150  ILE150     -0.1231
    147  CA       -13.9880   38.2180    3.3740 C.3   150  ILE150      0.1692
    148  C        -13.0230   37.0830    3.1000 C.2   150  ILE150      0.2592
    149  O        -11.9040   37.2500    2.5830 O.2   150  ILE150     -0.2718
    150  CB       -15.1460   38.1260    2.3880 C.3   150  ILE150      0.0266
    151  CG1      -14.6930   38.3410    0.9390 C.3   150  ILE150      0.0019
    152  CG2      -16.2110   39.1640    2.8010 C.3   150  ILE150      0.0020
    153  CD1      -15.6980   37.8970   -0.1320 C.3   150  ILE150      0.0001
    154  N        -13.5380   35.9180    3.4310 N.am  151  ASP151     -0.1974
    155  CA       -12.9070   34.6600    3.2340 C.3   151  ASP151      0.1709
    156  C        -11.6060   34.3420    3.9350 C.2   151  ASP151      0.2293
    157  O        -10.5960   34.3180    3.3540 O.2   151  ASP151     -0.2864
    158  CB       -12.7850   34.3130    1.7680 C.3   151  ASP151      0.1436
    159  CG       -12.4760   32.8470    1.5380 C.2   151  ASP151      0.3671
    160  OD1      -12.4360   32.0840    2.4670 O.co2 151  ASP151     -0.2456
    161  OD2      -12.2930   32.4870    0.4030 O.co2 151  ASP151     -0.2456
@<TRIPOS>BOND
     1   112   110   am
     2   110   111    2
     3   110   109    1
     4   129   127   ar
     5   127   126    1
     6   127   128   ar
     7   109   108    1
     8   119   118   ar
     9   126   125    1
    10   116   115    2
    11   120   118   ar
    12   118   117    1
    13   108   105    1
    14     4     3    2
    15   115   114    1
    16   125   122    1
    17    10     9    1
    18    10    11    1
    19   121   122    1
    20   122   123    1
    21   113   114    1
    22   113   106   am
    23     3     9   am
    24     3     2    1
    25   105   106    1
    26   105   104    1
    27   117   114    1
    28    11    12    2
    29   106   107    2
    30   100    99    2
    31     2     1    1
    32     2     5    1
    33   104    99   am
    34   123   124    2
    35   123   130   am
    36    99    98    1
    37    22    23   ar
    38    22    20   ar
    39    23    21   ar
    40     8     6    1
    41     5     6    1
    42   130   131    1
    43    20    18   ar
    44     6     7    1
    45    97    98    1
    46    98   101    1
    47    21    19   ar
    48    27    26    2
    49   102   101    1
    50    13    14    1
    51   136   135    2
    52   145   143    1
    53   131   134    1
    54   131   132    1
    55    18    19   ar
    56    18    17    1
    57   101   103    1
    58   135   137   am
    59   135   134    1
    60    24    25    1
    61   139   140    1
    62   139   138    1
    63   139   142    1
    64    26    25    1
    65   132   133    2
    66   140   141    2
    67   153   151    1
    68    25    28    1
    69    14    17    1
    70    14    15    1
    71    28    30    1
    72    28    29    1
    73   143   142    1
    74   143   144    1
    75   161   159   ar
    76    15    16    2
    77    88    87    1
    78   151   150    1
    79    93    92    2
    80   159   158    1
    81   159   160   ar
    82    85    86    1
    83    85    84    1
    84   158   155    1
    85    87    86    2
    86    87    89    1
    87    92    91    1
    88   150   152    1
    89   150   147    1
    90    84    83    1
    91   149   148    2
    92   148   147    1
    93   148   154   am
    94    94    91    1
    95    94    95    1
    96   155   154    1
    97   155   156    1
    98   146   147    1
    99   157   156    2
   100    96    95    1
   101    96    90    1
   102    91    90    1
   103    35    32    1
   104    43    44    1
   105    43    42    1
   106    90    81   am
   107    83    80    1
   108    41    42    1
   109    41    40    1
   110    32    33    1
   111    32    31    1
   112    37    40    1
   113    37    38    1
   114    37    36    1
   115    81    80    1
   116    81    82    2
   117    80    79    1
   118    38    39    2
   119    33    34    2
   120    59    61    1
   121    59    58    1
   122    73    72    2
   123    79    72   am
   124    68    67    1
   125    58    60    1
   126    58    55    1
   127    52    51   ar
   128    72    71    1
   129    53    51   ar
   130    51    50    1
   131    66    67    1
   132    66    63    1
   133    65    64    2
   134    67    69    1
   135    54    55    1
   136    55    56    1
   137    71    74    1
   138    71    70    1
   139    64    70   am
   140    64    63    1
   141    50    49    1
   142    74    75    1
   143    63    62    1
   144    49    46    1
   145    56    57    2
   146    77    76   ar
   147    75    76    1
   148    46    45    1
   149    46    47    1
   150    76    78   ar
   151    47    48    2
