@<TRIPOS>MOLECULE
tmp/4xhlA00.pdb
 138 130 0 0 0
SMALL
GASTEIGER

@<TRIPOS>ATOM
      1  N         23.2250   42.5740   -1.5100 N.3    11  ILE11      -0.1245
      2  CA        24.6590   42.3140   -1.4190 C.3    11  ILE11       0.1561
      3  C         25.0000   40.9110   -1.9090 C.2    11  ILE11       0.2260
      4  O         25.6810   40.7480   -2.9220 O.2    11  ILE11      -0.2867
      5  CB        25.1780   42.4810    0.0230 C.3    11  ILE11       0.0252
      6  CG1       24.4550   41.5200    0.9670 C.3    11  ILE11       0.0019
      7  CG2       25.0030   43.9190    0.4930 C.3    11  ILE11       0.0019
      8  CD1       24.9200   41.6150    2.4070 C.3    11  ILE11       0.0001
      9  N         21.3810   37.2230   -2.3790 N.3    14  ILE14      -0.1245
     10  CA        21.8000   37.6400   -1.0440 C.3    14  ILE14       0.1561
     11  C         21.4910   39.1150   -0.8110 C.2    14  ILE14       0.2260
     12  O         21.8680   39.9710   -1.6130 O.2    14  ILE14      -0.2867
     13  CB        23.3050   37.4070   -0.8190 C.3    14  ILE14       0.0252
     14  CG1       23.6520   35.9240   -0.9660 C.3    14  ILE14       0.0019
     15  CG2       23.7190   37.9120    0.5560 C.3    14  ILE14       0.0019
     16  CD1       23.4580   35.1190    0.2990 C.3    14  ILE14       0.0001
     17  N         22.9540   38.6320    7.0640 N.3    27  ALA27      -0.1245
     18  CA        23.0060   38.2680    5.6590 C.3    27  ALA27       0.1562
     19  C         21.9430   37.2130    5.3850 C.2    27  ALA27       0.2260
     20  O         21.9890   36.1160    5.9390 O.2    27  ALA27      -0.2867
     21  CB        24.3850   37.7600    5.2850 C.3    27  ALA27       0.0290
     22  N         21.1430   22.8230    2.5400 N.3    43  GLU43      -0.1245
     23  CA        22.3190   23.5780    2.9570 C.3    43  GLU43       0.1567
     24  C         22.1710   24.0560    4.3970 C.2    43  GLU43       0.2260
     25  O         23.1290   24.0400    5.1680 O.2    43  GLU43      -0.2867
     26  CB        22.5550   24.7690    2.0260 C.3    43  GLU43       0.0388
     27  CG        23.8060   25.5700    2.3500 C.3    43  GLU43       0.1160
     28  CD        24.0200   26.7300    1.4000 C.2    43  GLU43       0.3649
     29  OE1       23.2570   26.8410    0.4160 O.co2  43  GLU43      -0.2457
     30  OE2       24.9500   27.5290    1.6380 O.co2  43  GLU43      -0.2457
     31  N         24.6160   23.3030    7.6510 N.3    47  TYR47      -0.1241
     32  CA        25.0660   24.3220    8.5940 C.3    47  TYR47       0.1605
     33  C         24.7650   23.9190   10.0350 C.2    47  TYR47       0.2264
     34  O         25.6110   24.0520   10.9220 O.2    47  TYR47      -0.2867
     35  CB        24.3980   25.6640    8.2900 C.3    47  TYR47       0.0534
     36  CG        25.0980   26.5230    7.2580 C.ar   47  TYR47      -0.0201
     37  CD1       26.2310   27.2520    7.5910 C.ar   47  TYR47      -0.0009
     38  CD2       24.6040   26.6360    5.9640 C.ar   47  TYR47      -0.0009
     39  CE1       26.8680   28.0520    6.6580 C.ar   47  TYR47       0.0417
     40  CE2       25.2340   27.4330    5.0230 C.ar   47  TYR47       0.0417
     41  CZ        26.3650   28.1390    5.3760 C.ar   47  TYR47       0.1957
     42  OH        26.9950   28.9340    4.4440 O.3    47  TYR47      -0.2866
     43  N         29.5120   29.7400    9.9600 N.3    57  PRO57      -0.2116
     44  CA        28.4240   30.7230    9.9880 C.3    57  PRO57       0.1372
     45  C         27.2330   30.2170   10.7900 C.2    57  PRO57       0.2244
     46  O         26.9050   29.0340   10.7130 O.2    57  PRO57      -0.2868
     47  CB        28.0620   30.8900    8.5070 C.3    57  PRO57       0.0268
     48  CG        29.2920   30.4870    7.7730 C.3    57  PRO57       0.0207
     49  CD        29.8900   29.3810    8.5840 C.3    57  PRO57       0.0892
     50  N         16.9520   31.6540    4.2140 N.3    71  MET71      -0.1245
     51  CA        17.9720   31.3050    5.1930 C.3    71  MET71       0.1570
     52  C         18.6300   32.5750    5.7100 C.2    71  MET71       0.2261
     53  O         18.8610   33.5170    4.9540 O.2    71  MET71      -0.2867
     54  CB        19.0160   30.3650    4.5900 C.3    71  MET71       0.0387
     55  CG        20.0170   29.8270    5.5960 C.3    71  MET71       0.0595
     56  SD        21.1330   28.6150    4.8740 S.3    71  MET71      -0.1393
     57  CE        21.9330   29.6100    3.6190 C.3    71  MET71       0.0692
     58  N         21.7730   34.2850    8.0100 N.3    73  ILE73      -0.1231
     59  CA        23.0710   34.2100    8.6740 C.3    73  ILE73       0.1692
     60  C         23.5050   35.6070    9.1040 C.2    73  ILE73       0.2592
     61  O         23.1320   36.5960    8.4750 O.2    73  ILE73      -0.2718
     62  CB        24.1620   33.5970    7.7580 C.3    73  ILE73       0.0266
     63  CG1       23.6450   32.3430    7.0530 C.3    73  ILE73       0.0019
     64  CG2       25.4120   33.2710    8.5550 C.3    73  ILE73       0.0020
     65  CD1       23.2470   32.5650    5.6040 C.3    73  ILE73       0.0001
     66  N         24.2750   35.6890   10.1840 N.am   74  ASP74      -0.1960
     67  CA        24.8820   36.9500   10.5840 C.3    74  ASP74       0.1840
     68  C         25.9370   37.3600    9.5590 C.2    74  ASP74       0.2622
     69  O         26.5260   36.5110    8.8930 O.2    74  ASP74      -0.2715
     70  CB        25.4990   36.8380   11.9780 C.3    74  ASP74       0.1450
     71  CG        24.4620   36.5770   13.0540 C.2    74  ASP74       0.3671
     72  OD1       23.2650   36.8300   12.8010 O.co2  74  ASP74      -0.2456
     73  OD2       24.8440   36.1240   14.1530 O.co2  74  ASP74      -0.2456
     74  N         26.1670   38.6630    9.4360 N.am   75  LEU75      -0.1963
     75  CA        27.0870   39.2010    8.4390 C.3    75  LEU75       0.1728
     76  C         28.5160   38.7140    8.6850 C.2    75  LEU75       0.2616
     77  O         28.9290   38.5320    9.8300 O.2    75  LEU75      -0.2715
     78  CB        27.0260   40.7300    8.4430 C.3    75  LEU75       0.0311
     79  CG        27.1870   41.4540    7.1050 C.3    75  LEU75       0.0022
     80  CD1       26.2330   40.8880    6.0670 C.3    75  LEU75       0.0001
     81  CD2       26.9560   42.9460    7.2880 C.3    75  LEU75       0.0001
     82  N         29.2640   38.5010    7.6040 N.am   76  LEU76      -0.1963
     83  CA        30.5890   37.8920    7.6990 C.3    76  LEU76       0.1728
     84  C         31.6720   38.6190    6.9040 C.2    76  LEU76       0.2617
     85  O         32.6630   38.0100    6.5010 O.2    76  LEU76      -0.2715
     86  CB        30.5340   36.4370    7.2340 C.3    76  LEU76       0.0311
     87  CG        29.9900   35.4070    8.2190 C.3    76  LEU76       0.0022
     88  CD1       30.0990   34.0150    7.6210 C.3    76  LEU76       0.0001
     89  CD2       30.7370   35.4910    9.5370 C.3    76  LEU76       0.0001
     90  N         31.4870   39.9150    6.6810 N.am   77  GLY77      -0.1941
     91  CA        32.4880   40.7190    6.0030 C.3    77  GLY77       0.1998
     92  C         32.7900   40.2740    4.5840 C.2    77  GLY77       0.2481
     93  O         31.9610   39.6260    3.9430 O.2    77  GLY77      -0.2729
     94  N         33.9870   40.6220    4.0840 N.am   78  PRO78      -0.2715
     95  CA        34.3810   40.3560    2.6960 C.3    78  PRO78       0.1536
     96  C         34.9920   38.9730    2.4850 C.2    78  PRO78       0.2599
     97  O         35.5810   38.4040    3.4060 O.2    78  PRO78      -0.2715
     98  CB        35.4210   41.4430    2.4260 C.3    78  PRO78       0.0310
     99  CG        36.0900   41.6190    3.7540 C.3    78  PRO78       0.0237
    100  CD        35.0150   41.3980    4.8020 C.3    78  PRO78       0.0939
    101  N         34.8510   38.4470    1.2720 N.am   79  SER79      -0.1950
    102  CA        35.4840   37.1890    0.9060 C.3    79  SER79       0.1924
    103  C         36.9810   37.4020    0.7410 C.2    79  SER79       0.2314
    104  O         37.4530   38.5390    0.7080 O.2    79  SER79      -0.2863
    105  CB        34.8830   36.6270   -0.3840 C.3    79  SER79       0.2116
    106  OG        35.1800   37.4580   -1.4920 O.3    79  SER79      -0.2180
    107  N         37.7010   39.2800   -2.4590 N.3    82  ASP82      -0.1239
    108  CA        37.5080   40.7240   -2.3760 C.3    82  ASP82       0.1674
    109  C         38.7230   41.3870   -1.7420 C.2    82  ASP82       0.2266
    110  O         39.0840   42.5110   -2.0910 O.2    82  ASP82      -0.2867
    111  CB        36.2460   41.0570   -1.5800 C.3    82  ASP82       0.1410
    112  CG        34.9840   40.5790   -2.2690 C.2    82  ASP82       0.3668
    113  OD1       34.9280   40.6390   -3.5160 O.co2  82  ASP82      -0.2456
    114  OD2       34.0500   40.1410   -1.5640 O.co2  82  ASP82      -0.2456
    115  N         35.0260   33.7320    3.7840 N.3   126  LEU126     -0.1245
    116  CA        34.7340   35.0760    4.2790 C.3   126  LEU126      0.1561
    117  C         35.3200   35.2790    5.6760 C.2   126  LEU126      0.2260
    118  O         35.3600   34.3450    6.4830 O.2   126  LEU126     -0.2867
    119  CB        33.2250   35.3300    4.2970 C.3   126  LEU126      0.0270
    120  CG        32.5580   35.8060    3.0030 C.3   126  LEU126      0.0019
    121  CD1       32.6810   34.7880    1.8760 C.3   126  LEU126      0.0001
    122  CD2       31.0960   36.1390    3.2640 C.3   126  LEU126      0.0001
    123  N         31.5890   29.1180    3.5580 N.3   139  ILE139     -0.1231
    124  CA        30.1940   29.2280    3.1320 C.3   139  ILE139      0.1692
    125  C         29.8380   28.3380    1.9420 C.2   139  ILE139      0.2592
    126  O         30.6910   27.6400    1.3950 O.2   139  ILE139     -0.2718
    127  CB        29.8350   30.6780    2.7560 C.3   139  ILE139      0.0266
    128  CG1       30.5100   31.0720    1.4420 C.3   139  ILE139      0.0019
    129  CG2       30.2160   31.6340    3.8720 C.3   139  ILE139      0.0020
    130  CD1       30.0900   32.4240    0.9130 C.3   139  ILE139      0.0001
    131  N         28.5640   28.3840    1.5570 N.am  140  ASP140     -0.1974
    132  CA        28.0420   27.6550    0.4010 C.3   140  ASP140      0.1709
    133  C         28.3100   26.1530    0.4690 C.2   140  ASP140      0.2293
    134  O         29.2370   25.6460   -0.1600 O.2   140  ASP140     -0.2864
    135  CB        28.6200   28.2270   -0.8980 C.3   140  ASP140      0.1436
    136  CG        27.5860   28.9770   -1.7140 C.2   140  ASP140      0.3671
    137  OD1       27.5480   30.2230   -1.6330 O.co2 140  ASP140     -0.2456
    138  OD2       26.8080   28.3170   -2.4330 O.co2 140  ASP140     -0.2456
@<TRIPOS>BOND
     1   113   112   ar
     2     4     3    2
     3   107   108    1
     4   138   136   ar
     5     9    10    1
     6   108   109    1
     7   108   111    1
     8   112   111    1
     9   112   114   ar
    10   110   109    2
    11     3     2    1
    12   136   137   ar
    13   136   135    1
    14    12    11    2
    15     1     2    1
    16   106   105    1
    17     2     5    1
    18    10    13    1
    19    10    11    1
    20    14    13    1
    21    14    16    1
    22   135   132    1
    23    13    15    1
    24   105   102    1
    25   134   133    2
    26     5     7    1
    27     5     6    1
    28   132   133    1
    29   132   131    1
    30    29    28   ar
    31   104   103    2
    32   103   102    1
    33   102   101    1
    34   130   128    1
    35     6     8    1
    36   101    96   am
    37   126   125    2
    38    28    30   ar
    39    28    27    1
    40   128   127    1
    41   131   125   am
    42   121   120    1
    43   125   124    1
    44    26    27    1
    45    26    23    1
    46    98    95    1
    47    98    99    1
    48    96    95    1
    49    96    97    2
    50    22    23    1
    51    95    94    1
    52   127   124    1
    53   127   129    1
    54    23    24    1
    55   120   122    1
    56   120   119    1
    57   124   123    1
    58    57    56    1
    59    99   100    1
    60   115   116    1
    61    93    92    2
    62    94    92   am
    63    94   100    1
    64    50    51    1
    65   116   119    1
    66   116   117    1
    67    24    25    2
    68    42    41    1
    69    92    91    1
    70    54    51    1
    71    54    55    1
    72    56    55    1
    73    53    52    2
    74    40    41   ar
    75    40    38   ar
    76    51    52    1
    77    21    18    1
    78    41    39   ar
    79    19    18    1
    80    19    20    2
    81    65    63    1
    82    18    17    1
    83   117   118    2
    84    38    36   ar
    85    91    90    1
    86    80    79    1
    87    85    84    2
    88    39    37   ar
    89    90    84   am
    90    84    83    1
    91    63    62    1
    92    79    81    1
    93    79    78    1
    94    86    83    1
    95    86    87    1
    96    36    37   ar
    97    36    35    1
    98    82    83    1
    99    82    76   am
   100    88    87    1
   101    31    32    1
   102    62    64    1
   103    62    59    1
   104    48    47    1
   105    48    49    1
   106    58    59    1
   107    87    89    1
   108    35    32    1
   109    75    78    1
   110    75    76    1
   111    75    74    1
   112    61    60    2
   113    47    44    1
   114    49    43    1
   115    32    33    1
   116    59    60    1
   117    76    77    2
   118    69    68    2
   119    60    66   am
   120    74    68   am
   121    68    67    1
   122    43    44    1
   123    44    45    1
   124    33    34    2
   125    66    67    1
   126    67    70    1
   127    46    45    2
   128    70    71    1
   129    72    71   ar
   130    71    73   ar
