@<TRIPOS>MOLECULE
tmp/4xhnA00.pdb
 196 184 0 0 0
SMALL
GASTEIGER

@<TRIPOS>ATOM
      1  N         70.1790   88.9860  128.0500 N.3     9  ASP9       -0.1225
      2  CA        71.1330   90.0760  127.9290 C.3     9  ASP9        0.1805
      3  C         70.6560   91.0660  126.8730 C.2     9  ASP9        0.2598
      4  O         70.7380   90.7990  125.6740 O.2     9  ASP9       -0.2718
      5  CB        72.5180   89.5260  127.5780 C.3     9  ASP9        0.1424
      6  CG        73.5750   90.6070  127.4790 C.2     9  ASP9        0.3668
      7  OD1       73.3540   91.7150  128.0150 O.co2   9  ASP9       -0.2456
      8  OD2       74.6340   90.3410  126.8680 O.co2   9  ASP9       -0.2456
      9  N         70.1500   92.2080  127.3240 N.am   10  THR10      -0.1939
     10  CA        69.5470   93.1780  126.4210 C.3    10  THR10       0.2028
     11  C         70.3860   94.4430  126.2800 C.2    10  THR10       0.2643
     12  O         71.1160   94.8260  127.1940 O.2    10  THR10      -0.2714
     13  CB        68.1310   93.5660  126.8880 C.3    10  THR10       0.1808
     14  OG1       68.1570   93.8830  128.2840 O.3    10  THR10      -0.2208
     15  CG2       67.1650   92.4120  126.6590 C.3    10  THR10       0.0379
     16  N         70.2750   95.0790  125.1190 N.am   11  GLY11      -0.1939
     17  CA        70.9820   96.3140  124.8410 C.3    11  GLY11       0.2014
     18  C         70.3000   97.0800  123.7260 C.2    11  GLY11       0.2639
     19  O         69.1720   96.7640  123.3490 O.2    11  GLY11      -0.2714
     20  N         70.9810   98.0890  123.1950 N.am   12  ASN12      -0.1958
     21  CA        70.4240   98.8870  122.1090 C.3    12  ASN12       0.1819
     22  C         70.6610   98.2480  120.7470 C.2    12  ASN12       0.2621
     23  O         70.0580   98.6470  119.7520 O.2    12  ASN12      -0.2715
     24  CB        71.0090  100.2990  122.1280 C.3    12  ASN12       0.1195
     25  CG        70.6200  101.0720  123.3710 C.2    12  ASN12       0.2630
     26  OD1       69.6370  100.7480  124.0350 O.2    12  ASN12      -0.2716
     27  ND2       71.3890  102.1060  123.6900 N.am   12  ASN12      -0.0877
     28  N         71.5420   97.2550  120.7070 N.am   13  ILE13      -0.1963
     29  CA        71.8330   96.5550  119.4640 C.3    13  ILE13       0.1727
     30  C         70.9720   95.3060  119.3400 C.2    13  ILE13       0.2616
     31  O         70.1490   95.1930  118.4310 O.2    13  ILE13      -0.2715
     32  CB        73.3190   96.1530  119.3700 C.3    13  ILE13       0.0290
     33  CG1       74.2160   97.3760  119.5680 C.3    13  ILE13       0.0022
     34  CG2       73.6060   95.4860  118.0340 C.3    13  ILE13       0.0023
     35  CD1       73.9260   98.5090  118.6040 C.3    13  ILE13       0.0001
     36  N         71.1670   94.3720  120.2660 N.am   14  LYS14      -0.1977
     37  CA        70.4680   93.0960  120.2260 C.3    14  LYS14       0.1596
     38  C         69.8650   92.7310  121.5770 C.2    14  LYS14       0.2287
     39  O         70.2870   93.2310  122.6200 O.2    14  LYS14      -0.2864
     40  CB        71.4180   91.9780  119.7740 C.3    14  LYS14       0.0298
     41  CG        72.1070   92.2240  118.4390 C.3    14  LYS14       0.0038
     42  CD        72.8180   90.9760  117.9270 C.3    14  LYS14       0.0206
     43  CE        74.2070   90.8150  118.5240 C.3    14  LYS14       0.1093
     44  NZ        75.1470   91.8690  118.0490 N.3    14  LYS14      -0.1314
     45  N         69.9120   89.4580  123.5660 N.3    16  LYS16      -0.1245
     46  CA        70.5450   88.1450  123.5600 C.3    16  LYS16       0.1561
     47  C         69.9160   87.2100  124.5860 C.2    16  LYS16       0.2260
     48  O         69.5680   87.6220  125.6930 O.2    16  LYS16      -0.2867
     49  CB        72.0520   88.2760  123.8040 C.3    16  LYS16       0.0271
     50  CG        72.8240   88.7050  122.5620 C.3    16  LYS16       0.0035
     51  CD        74.3180   88.8140  122.8100 C.3    16  LYS16       0.0206
     52  CE        74.6730   90.1390  123.4580 C.3    16  LYS16       0.1093
     53  NZ        76.1380   90.4040  123.4000 N.3    16  LYS16      -0.1314
     54  N         82.8900   93.4990  128.9410 N.3   193  ASP193     -0.1225
     55  CA        82.0390   92.9690  127.8890 C.3   193  ASP193      0.1805
     56  C         82.1760   93.8580  126.6610 C.2   193  ASP193      0.2598
     57  O         81.7270   95.0040  126.6670 O.2   193  ASP193     -0.2718
     58  CB        80.5840   92.9020  128.3590 C.3   193  ASP193      0.1424
     59  CG        79.7450   91.9360  127.5430 C.2   193  ASP193      0.3668
     60  OD1       80.1570   91.5750  126.4230 O.co2 193  ASP193     -0.2456
     61  OD2       78.6640   91.5370  128.0250 O.co2 193  ASP193     -0.2456
     62  N         82.8060   93.3350  125.6130 N.am  194  LEU194     -0.1966
     63  CA        83.0840   94.1350  124.4240 C.3   194  LEU194      0.1728
     64  C         81.9970   93.9340  123.3720 C.2   194  LEU194      0.2617
     65  O         81.9470   92.9000  122.7050 O.2   194  LEU194     -0.2715
     66  CB        84.4610   93.7840  123.8540 C.3   194  LEU194      0.0311
     67  CG        85.6450   93.7990  124.8330 C.3   194  LEU194      0.0022
     68  CD1       86.9640   93.8580  124.0780 C.3   194  LEU194      0.0001
     69  CD2       85.5510   94.9450  125.8340 C.3   194  LEU194      0.0001
     70  N         81.1310   94.9340  123.2260 N.am  195  GLY195     -0.1940
     71  CA        79.9560   94.8130  122.3790 C.3   195  GLY195      0.2014
     72  C         79.9890   95.6030  121.0840 C.2   195  GLY195      0.2639
     73  O         81.0140   96.1770  120.7110 O.2   195  GLY195     -0.2714
     74  N         78.8460   95.6390  120.4040 N.am  196  ALA196     -0.1963
     75  CA        78.7400   96.2380  119.0750 C.3   196  ALA196      0.1728
     76  C         78.7740   97.7640  119.1050 C.2   196  ALA196      0.2617
     77  O         79.5440   98.3850  118.3740 O.2   196  ALA196     -0.2715
     78  CB        77.4690   95.7610  118.3900 C.3   196  ALA196      0.0334
     79  N         77.9310   98.3650  119.9380 N.am  197  GLY197     -0.1940
     80  CA        77.8710   99.8100  120.0330 C.3   197  GLY197      0.2014
     81  C         78.4680  100.3450  121.3120 C.2   197  GLY197      0.2639
     82  O         78.7740  101.5330  121.4220 O.2   197  GLY197     -0.2714
     83  N         78.6290   99.4660  122.2930 N.am  198  THR198     -0.1950
     84  CA        79.1580   99.8670  123.5960 C.3   198  THR198      0.1897
     85  C         80.2560   98.9230  124.0810 C.2   198  THR198      0.2313
     86  O         80.5210   97.8920  123.4560 O.2   198  THR198     -0.2863
     87  CB        78.0570   99.9000  124.6620 C.3   198  THR198      0.1794
     88  OG1       77.5900   98.5630  124.8910 O.3   198  THR198     -0.2208
     89  CG2       76.8940  100.7800  124.2290 C.3   198  THR198      0.0378
     90  N         82.4190   97.7070  118.4260 N.3   221  THR221     -0.1203
     91  CA        83.0040   97.2260  117.1830 C.3   221  THR221      0.1994
     92  C         82.4300   97.9450  115.9670 C.2   221  THR221      0.2617
     93  O         83.0810   98.0290  114.9260 O.2   221  THR221     -0.2717
     94  CB        82.7800   95.7120  117.0060 C.3   221  THR221      0.1784
     95  OG1       81.3740   95.4350  117.0070 O.3   221  THR221     -0.2211
     96  CG2       83.4440   94.9330  118.1310 C.3   221  THR221      0.0376
     97  N         81.2150   98.4690  116.1110 N.am  222  ASN222     -0.1974
     98  CA        80.4600   99.0160  114.9830 C.3   222  ASN222      0.1688
     99  C         81.1640  100.1180  114.1930 C.2   222  ASN222      0.2292
    100  O         81.2060  100.0650  112.9640 O.2   222  ASN222     -0.2864
    101  CB        79.1070   99.5380  115.4680 C.3   222  ASN222      0.1181
    102  CG        78.0680   98.4380  115.5800 C.2   222  ASN222      0.2629
    103  OD1       78.3670   97.2620  115.3650 O.2   222  ASN222     -0.2716
    104  ND2       76.8400   98.8150  115.9170 N.am  222  ASN222     -0.0877
    105  N         83.8030   98.6260  112.1580 N.3   225  ILE225     -0.1245
    106  CA        83.2000   97.8840  111.0590 C.3   225  ILE225      0.1561
    107  C         82.7840   98.8380  109.9430 C.2   225  ILE225      0.2260
    108  O         83.0600   98.5880  108.7680 O.2   225  ILE225     -0.2867
    109  CB        81.9820   97.0680  111.5360 C.3   225  ILE225      0.0252
    110  CG1       82.4370   95.9500  112.4780 C.3   225  ILE225      0.0019
    111  CG2       81.2220   96.4890  110.3520 C.3   225  ILE225      0.0019
    112  CD1       81.3000   95.1850  113.1190 C.3   225  ILE225      0.0001
    113  N         75.9080   92.6680  110.6550 N.3   243  GLU243     -0.1245
    114  CA        75.8870   91.2750  111.0710 C.3   243  GLU243      0.1567
    115  C         76.1070   90.3760  109.8650 C.2   243  GLU243      0.2260
    116  O         76.6780   89.2940  109.9820 O.2   243  GLU243     -0.2867
    117  CB        74.5680   90.9350  111.7650 C.3   243  GLU243      0.0388
    118  CG        74.6480   89.7090  112.6570 C.3   243  GLU243      0.1160
    119  CD        75.6990   89.8490  113.7450 C.2   243  GLU243      0.3649
    120  OE1       75.8920   90.9760  114.2500 O.co2 243  GLU243     -0.2457
    121  OE2       76.3350   88.8320  114.0940 O.co2 243  GLU243     -0.2457
    122  N         79.8240   90.5020  109.2900 N.3   246  ILE246     -0.1245
    123  CA        80.4740   89.6760  110.2970 C.3   246  ILE246      0.1561
    124  C         80.2760   88.1950  110.0020 C.2   246  ILE246      0.2260
    125  O         81.2360   87.4260  109.9600 O.2   246  ILE246     -0.2867
    126  CB        79.9400   89.9890  111.7070 C.3   246  ILE246      0.0252
    127  CG1       80.3550   91.4000  112.1280 C.3   246  ILE246      0.0019
    128  CG2       80.4540   88.9690  112.7070 C.3   246  ILE246      0.0019
    129  CD1       81.8330   91.6840  111.9360 C.3   246  ILE246      0.0001
    130  N         83.5700   87.6160  108.0730 N.3   250  VAL250     -0.1231
    131  CA        84.4860   87.6570  109.2080 C.3   250  VAL250      0.1692
    132  C         84.4980   86.3820  110.0610 C.2   250  VAL250      0.2591
    133  O         85.5680   85.8600  110.3770 O.2   250  VAL250     -0.2718
    134  CB        84.1610   88.8680  110.1100 C.3   250  VAL250      0.0266
    135  CG1       84.9370   88.8010  111.4080 C.3   250  VAL250      0.0020
    136  CG2       84.4550   90.1650  109.3740 C.3   250  VAL250      0.0020
    137  N         83.3180   85.8840  110.4260 N.am  251  MET251     -0.1979
    138  CA        83.2070   84.7200  111.3140 C.3   251  MET251      0.1605
    139  C         83.9370   83.4440  110.8430 C.2   251  MET251      0.2287
    140  O         84.6040   82.7980  111.6540 O.2   251  MET251     -0.2864
    141  CB        81.7300   84.3860  111.5660 C.3   251  MET251      0.0413
    142  CG        81.0500   85.2600  112.6120 C.3   251  MET251      0.0598
    143  SD        79.3000   84.8580  112.8170 S.3   251  MET251     -0.1393
    144  CE        78.8320   85.9910  114.1260 C.3   251  MET251      0.0692
    145  N         87.7920   84.1870  111.3990 N.3   254  VAL254     -0.1245
    146  CA        88.1060   84.3470  112.8200 C.3   254  VAL254      0.1561
    147  C         88.1550   82.9710  113.5030 C.2   254  VAL254      0.2260
    148  O         88.8810   82.7590  114.4710 O.2   254  VAL254     -0.2867
    149  CB        87.0720   85.2720  113.5020 C.3   254  VAL254      0.0252
    150  CG1       87.0990   85.1210  115.0140 C.3   254  VAL254      0.0019
    151  CG2       87.3040   86.7250  113.1000 C.3   254  VAL254      0.0019
    152  N         82.6470   89.1320  125.2850 N.3   313  GLY313     -0.1210
    153  CA        81.8560   89.8040  124.2700 C.3   313  GLY313      0.1956
    154  C         82.3450   89.4950  122.8680 C.2   313  GLY313      0.2612
    155  O         83.4490   88.9830  122.6880 O.2   313  GLY313     -0.2717
    156  N         81.5250   89.8110  121.8710 N.am  314  GLY314     -0.1942
    157  CA        81.8740   89.5380  120.4890 C.3   314  GLY314      0.2014
    158  C         83.1080   90.2840  120.0130 C.2   314  GLY314      0.2639
    159  O         83.7420   89.8830  119.0370 O.2   314  GLY314     -0.2714
    160  N         83.4460   91.3740  120.6970 N.am  315  GLY315     -0.1954
    161  CA        84.6260   92.1520  120.3630 C.3   315  GLY315      0.1869
    162  C         85.9050   91.3540  120.5160 C.2   315  GLY315      0.2309
    163  O         86.8950   91.6120  119.8320 O.2   315  GLY315     -0.2863
    164  N         86.1020   88.4390  119.5770 N.3   317  LEU317     -0.1231
    165  CA        86.1420   87.6800  118.3350 C.3   317  LEU317      0.1693
    166  C         86.4700   88.5580  117.1290 C.2   317  LEU317      0.2592
    167  O         87.3210   88.2020  116.3120 O.2   317  LEU317     -0.2718
    168  CB        84.8110   86.9640  118.1220 C.3   317  LEU317      0.0284
    169  CG        84.5030   85.8550  119.1290 C.3   317  LEU317      0.0019
    170  CD1       83.0330   85.4690  119.0800 C.3   317  LEU317      0.0001
    171  CD2       85.3850   84.6490  118.8600 C.3   317  LEU317      0.0001
    172  N         85.7930   89.6990  117.0160 N.am  318  PHE318     -0.1976
    173  CA        86.0530   90.6310  115.9230 C.3   318  PHE318      0.1639
    174  C         87.5080   91.0850  115.9280 C.2   318  PHE318      0.2290
    175  O         88.1440   91.1700  114.8790 O.2   318  PHE318     -0.2864
    176  CB        85.1270   91.8460  116.0090 C.3   318  PHE318      0.0560
    177  CG        85.4480   92.9270  115.0100 C.ar  318  PHE318     -0.0200
    178  CD1       85.0980   92.7860  113.6770 C.ar  318  PHE318     -0.0042
    179  CD2       86.0980   94.0860  115.4070 C.ar  318  PHE318     -0.0042
    180  CE1       85.3940   93.7820  112.7580 C.ar  318  PHE318     -0.0003
    181  CE2       86.3960   95.0840  114.4940 C.ar  318  PHE318     -0.0003
    182  CZ        86.0440   94.9320  113.1690 C.ar  318  PHE318     -0.0000
    183  N         84.8340   80.6520  121.5870 N.3   339  GLN339     -0.1245
    184  CA        83.8660   80.8250  120.5070 C.3   339  GLN339      0.1566
    185  C         82.4730   81.1720  121.0370 C.2   339  GLN339      0.2260
    186  O         81.5580   81.4430  120.2600 O.2   339  GLN339     -0.2867
    187  CB        83.8050   79.5720  119.6310 C.3   339  GLN339      0.0367
    188  CG        84.3180   79.8050  118.2150 C.3   339  GLN339      0.0905
    189  CD        84.4280   78.5270  117.4040 C.2   339  GLN339      0.2608
    190  OE1       83.4330   78.0190  116.8860 O.2   339  GLN339     -0.2717
    191  NE2       85.6430   78.0040  117.2870 N.am  339  GLN339     -0.0878
    192  N         80.7390   85.9060  122.7110 N.3   342  ALA342     -0.1245
    193  CA        79.6880   86.8760  122.4010 C.3   342  ALA342      0.1562
    194  C         78.5080   86.7610  123.3600 C.2   342  ALA342      0.2260
    195  O         77.9130   87.7680  123.7500 O.2   342  ALA342     -0.2867
    196  CB        79.2120   86.7060  120.9640 C.3   342  ALA342      0.0290
@<TRIPOS>BOND
     1   130   131    1
     2   108   107    2
     3   131   132    1
     4   131   134    1
     5   122   123    1
     6   136   134    1
     7   115   116    2
     8   115   114    1
     9   107   106    1
    10   125   124    2
    11   124   123    1
    12   132   133    2
    13   132   137   am
    14   134   135    1
    15   123   126    1
    16   111   109    1
    17   137   138    1
    18   113   114    1
    19   139   138    1
    20   139   140    2
    21   106   109    1
    22   106   105    1
    23   114   117    1
    24   138   141    1
    25   145   146    1
    26   109   110    1
    27   141   142    1
    28   126   127    1
    29   126   128    1
    30   117   118    1
    31   129   127    1
    32   110   112    1
    33   142   143    1
    34   118   119    1
    35   180   182   ar
    36   180   178   ar
    37   143   144    1
    38   146   149    1
    39   146   147    1
    40   100    99    2
    41   151   149    1
    42   182   181   ar
    43   149   150    1
    44   147   148    2
    45   178   177   ar
    46   119   121   ar
    47   119   120   ar
    48    99    98    1
    49   181   179   ar
    50   175   174    2
    51    93    92    2
    52    98   101    1
    53    98    97    1
    54   177   179   ar
    55   177   176    1
    56   103   102    2
    57   101   102    1
    58   102   104   am
    59   173   174    1
    60   173   176    1
    61   173   172    1
    62    92    97   am
    63    92    91    1
    64   167   166    2
    65   190   189    2
    66    94    95    1
    67    94    91    1
    68    94    96    1
    69   172   166   am
    70   166   165    1
    71    91    90    1
    72   191   189   am
    73   189   188    1
    74    42    41    1
    75    42    43    1
    76    34    32    1
    77    44    43    1
    78   168   165    1
    79   168   169    1
    80   188   187    1
    81   165   164    1
    82    77    76    2
    83    78    75    1
    84    31    30    2
    85    41    40    1
    86    35    33    1
    87   171   169    1
    88   159   158    2
    89    75    76    1
    90    75    74    1
    91   170   169    1
    92    76    79   am
    93    30    29    1
    94    30    36   am
    95    32    29    1
    96    32    33    1
    97    29    28    1
    98   187   184    1
    99    23    22    2
   100    40    37    1
   101   163   162    2
   102    79    80    1
   103   158   157    1
   104   158   160   am
   105    80    81    1
   106    37    36    1
   107    37    38    1
   108   186   185    2
   109   161   162    1
   110   161   160    1
   111    74    72   am
   112   157   156    1
   113   184   185    1
   114   184   183    1
   115    28    22   am
   116    73    72    2
   117    22    21    1
   118   196   193    1
   119    72    71    1
   120    81    82    2
   121    81    83   am
   122    38    39    2
   123   156   154   am
   124    21    24    1
   125    21    20    1
   126    24    25    1
   127    83    84    1
   128    71    70    1
   129   193   192    1
   130   193   194    1
   131    50    51    1
   132    50    49    1
   133   155   154    2
   134    65    64    2
   135    51    52    1
   136   154   153    1
   137    20    18   am
   138    70    64   am
   139    19    18    2
   140   194   195    2
   141    25    27   am
   142    25    26    2
   143    64    63    1
   144    53    52    1
   145    86    85    2
   146    46    45    1
   147    46    49    1
   148    46    47    1
   149    84    85    1
   150    84    87    1
   151    18    17    1
   152    66    63    1
   153    66    67    1
   154    68    67    1
   155    89    87    1
   156   153   152    1
   157    63    62    1
   158    47    48    2
   159    87    88    1
   160    67    69    1
   161    17    16    1
   162    16    11   am
   163    62    56   am
   164     4     3    2
   165    11    10    1
   166    11    12    2
   167    10    13    1
   168    10     9    1
   169    60    59   ar
   170    15    13    1
   171    56    57    2
   172    56    55    1
   173     8     6   ar
   174     3     9   am
   175     3     2    1
   176    13    14    1
   177     6     5    1
   178     6     7   ar
   179    59    61   ar
   180    59    58    1
   181     5     2    1
   182    55    58    1
   183    55    54    1
   184     2     1    1
