@<TRIPOS>MOLECULE
tmp/4xhoA00.pdb
 189 176 0 0 0
SMALL
GASTEIGER

@<TRIPOS>ATOM
      1  N        -42.9440  -54.6210  241.1330 N.3     9  ASP9       -0.1239
      2  CA       -43.9000  -55.7250  241.1150 C.3     9  ASP9        0.1674
      3  C        -43.4370  -56.7930  240.1140 C.2     9  ASP9        0.2266
      4  O        -43.8270  -56.7930  238.9570 O.2     9  ASP9       -0.2867
      5  CB       -45.3010  -55.1950  240.7840 C.3     9  ASP9        0.1410
      6  CG       -46.3380  -56.3020  240.5790 C.2     9  ASP9        0.3668
      7  OD1      -46.1330  -57.4510  241.0370 O.co2   9  ASP9       -0.2456
      8  OD2      -47.3850  -56.0050  239.9600 O.co2   9  ASP9       -0.2456
      9  N        -43.3000  -60.3040  238.4210 N.3    11  GLY11      -0.1210
     10  CA       -43.8660  -61.6230  238.2130 C.3    11  GLY11       0.1956
     11  C        -43.1120  -62.3610  237.1330 C.2    11  GLY11       0.2612
     12  O        -42.0250  -61.9470  236.7320 O.2    11  GLY11      -0.2717
     13  N        -43.6840  -63.4430  236.6260 N.am   12  ASN12      -0.1960
     14  CA       -42.9600  -64.2340  235.6380 C.3    12  ASN12       0.1819
     15  C        -43.3740  -63.9420  234.2080 C.2    12  ASN12       0.2621
     16  O        -42.6840  -64.3410  233.2750 O.2    12  ASN12      -0.2715
     17  CB       -43.1110  -65.7160  235.9550 C.3    12  ASN12       0.1195
     18  CG       -42.8020  -66.0170  237.4090 C.2    12  ASN12       0.2630
     19  OD1      -42.3450  -65.1400  238.1460 O.2    12  ASN12      -0.2716
     20  ND2      -43.0220  -67.2580  237.8230 N.am   12  ASN12      -0.0877
     21  N        -44.4870  -63.2420  234.0220 N.am   13  ILE13      -0.1963
     22  CA       -44.7260  -62.6040  232.7320 C.3    13  ILE13       0.1727
     23  C        -43.7820  -61.3970  232.6440 C.2    13  ILE13       0.2616
     24  O        -42.8430  -61.4020  231.8380 O.2    13  ILE13      -0.2715
     25  CB       -46.1930  -62.1450  232.5330 C.3    13  ILE13       0.0290
     26  CG1      -47.1550  -63.2880  232.8210 C.3    13  ILE13       0.0022
     27  CG2      -46.4080  -61.6480  231.1020 C.3    13  ILE13       0.0023
     28  CD1      -46.9370  -64.4530  231.9280 C.3    13  ILE13       0.0001
     29  N        -44.0040  -60.3820  233.4920 N.am   14  LYS14      -0.1977
     30  CA       -43.1730  -59.1810  233.4330 C.3    14  LYS14       0.1596
     31  C        -42.6640  -58.6490  234.7630 C.2    14  LYS14       0.2287
     32  O        -43.1080  -59.0280  235.8490 O.2    14  LYS14      -0.2864
     33  CB       -43.9210  -58.0660  232.7020 C.3    14  LYS14       0.0298
     34  CG       -45.4420  -58.1730  232.7140 C.3    14  LYS14       0.0038
     35  CD       -46.0500  -57.2240  231.6660 C.3    14  LYS14       0.0206
     36  CE       -47.5840  -57.1690  231.7240 C.3    14  LYS14       0.1093
     37  NZ       -48.2460  -58.4460  231.3180 N.3    14  LYS14      -0.1314
     38  N        -42.6930  -55.2840  236.6250 N.3    16  LYS16      -0.1245
     39  CA       -43.2800  -53.9470  236.5940 C.3    16  LYS16       0.1561
     40  C        -42.6640  -52.9930  237.6180 C.2    16  LYS16       0.2260
     41  O        -42.3570  -53.3790  238.7550 O.2    16  LYS16      -0.2867
     42  CB       -44.7700  -54.0310  236.8150 C.3    16  LYS16       0.0271
     43  CG       -45.4630  -55.0340  235.9100 C.3    16  LYS16       0.0035
     44  CD       -46.9210  -54.6620  235.7290 C.3    16  LYS16       0.0206
     45  CE       -47.8080  -55.7880  236.1540 C.3    16  LYS16       0.1093
     46  NZ       -49.2110  -55.3470  236.1480 N.3    16  LYS16      -0.1314
     47  N        -56.2010  -59.2740  242.0260 N.3   200  ASP200     -0.1225
     48  CA       -55.3240  -58.7450  240.9970 C.3   200  ASP200      0.1805
     49  C        -55.4640  -59.6690  239.8070 C.2   200  ASP200      0.2598
     50  O        -54.9640  -60.7790  239.8290 O.2   200  ASP200     -0.2718
     51  CB       -53.8760  -58.6440  241.4830 C.3   200  ASP200      0.1424
     52  CG       -52.9890  -57.8260  240.5420 C.2   200  ASP200      0.3668
     53  OD1      -53.1810  -57.9110  239.3120 O.co2 200  ASP200     -0.2456
     54  OD2      -52.0920  -57.0960  241.0170 O.co2 200  ASP200     -0.2456
     55  N        -56.1590  -59.2080  238.7730 N.am  201  LEU201     -0.1966
     56  CA       -56.3820  -60.0020  237.5670 C.3   201  LEU201      0.1728
     57  C        -55.2120  -59.8410  236.5810 C.2   201  LEU201      0.2617
     58  O        -55.0240  -58.7730  235.9700 O.2   201  LEU201     -0.2715
     59  CB       -57.7120  -59.6040  236.9190 C.3   201  LEU201      0.0311
     60  CG       -58.9130  -59.3830  237.8840 C.3   201  LEU201      0.0022
     61  CD1      -60.2260  -59.2340  237.1450 C.3   201  LEU201      0.0001
     62  CD2      -59.0200  -60.4690  238.9330 C.3   201  LEU201      0.0001
     63  N        -54.4100  -60.8940  236.4340 N.am  202  GLY202     -0.1940
     64  CA       -53.1860  -60.7860  235.6510 C.3   202  GLY202      0.2014
     65  C        -53.1800  -61.5720  234.3470 C.2   202  GLY202      0.2639
     66  O        -54.1810  -62.2190  233.9660 O.2   202  GLY202     -0.2714
     67  N        -52.0320  -61.5160  233.6660 N.am  203  ALA203     -0.1963
     68  CA       -51.8330  -62.1840  232.3750 C.3   203  ALA203      0.1728
     69  C        -51.9540  -63.7120  232.4650 C.2   203  ALA203      0.2617
     70  O        -52.7780  -64.3060  231.7660 O.2   203  ALA203     -0.2715
     71  CB       -50.4910  -61.8030  231.7980 C.3   203  ALA203      0.0334
     72  N        -51.1540  -64.3400  233.3340 N.am  204  GLY204     -0.1940
     73  CA       -51.2450  -65.7810  233.5580 C.3   204  GLY204      0.2014
     74  C        -51.9220  -66.2200  234.8470 C.2   204  GLY204      0.2639
     75  O        -52.1950  -67.4010  235.0550 O.2   204  GLY204     -0.2714
     76  N        -52.1950  -65.2730  235.7320 N.am  205  THR205     -0.1950
     77  CA       -52.6460  -65.6160  237.0810 C.3   205  THR205      0.1897
     78  C        -53.7010  -64.6480  237.5800 C.2   205  THR205      0.2313
     79  O        -53.6800  -63.4710  237.2380 O.2   205  THR205     -0.2863
     80  CB       -51.4870  -65.5870  238.1090 C.3   205  THR205      0.1794
     81  OG1      -51.1520  -64.2230  238.4080 O.3   205  THR205     -0.2208
     82  CG2      -50.2410  -66.3050  237.5980 C.3   205  THR205      0.0378
     83  N        -55.7010  -63.7220  231.6950 N.3   228  THR228     -0.1203
     84  CA       -56.1120  -63.3250  230.3940 C.3   228  THR228      0.1994
     85  C        -55.5310  -64.1590  229.2500 C.2   228  THR228      0.2617
     86  O        -56.1280  -64.3540  228.2740 O.2   228  THR228     -0.2717
     87  CB       -55.8310  -61.8360  230.1220 C.3   228  THR228      0.1784
     88  OG1      -54.4600  -61.5430  230.2530 O.3   228  THR228     -0.2211
     89  CG2      -56.5520  -61.0160  231.0020 C.3   228  THR228      0.0376
     90  N        -54.3150  -64.5680  229.3800 N.am  229  ASN229     -0.1974
     91  CA       -53.5360  -65.0980  228.2610 C.3   229  ASN229      0.1688
     92  C        -54.2460  -66.1880  227.4780 C.2   229  ASN229      0.2292
     93  O        -54.1960  -66.2100  226.2500 O.2   229  ASN229     -0.2864
     94  CB       -52.1950  -65.6310  228.7460 C.3   229  ASN229      0.1181
     95  CG       -51.1600  -64.5440  228.9060 C.2   229  ASN229      0.2629
     96  OD1      -51.4470  -63.3540  228.7330 O.2   229  ASN229     -0.2716
     97  ND2      -49.9380  -64.9450  229.2460 N.am  229  ASN229     -0.0877
     98  N        -56.8880  -64.5550  225.4270 N.3   232  ILE232     -0.1245
     99  CA       -56.1770  -63.8840  224.3420 C.3   232  ILE232      0.1561
    100  C        -55.7430  -64.8910  223.2900 C.2   232  ILE232      0.2260
    101  O        -55.9310  -64.6600  222.0980 O.2   232  ILE232     -0.2867
    102  CB       -54.9510  -63.1130  224.8610 C.3   232  ILE232      0.0252
    103  CG1      -55.4180  -62.0680  225.8810 C.3   232  ILE232      0.0019
    104  CG2      -54.1410  -62.5260  223.6910 C.3   232  ILE232      0.0019
    105  CD1      -54.3670  -61.1080  226.3440 C.3   232  ILE232      0.0001
    106  N        -48.6260  -58.9000  223.6640 N.3   253  GLU253     -0.1245
    107  CA       -48.5670  -57.4900  224.0260 C.3   253  GLU253      0.1567
    108  C        -48.7450  -56.6080  222.8060 C.2   253  GLU253      0.2260
    109  O        -49.2720  -55.5030  222.9040 O.2   253  GLU253     -0.2867
    110  CB       -47.2600  -57.1650  224.7440 C.3   253  GLU253      0.0388
    111  CG       -47.3050  -57.5410  226.2320 C.3   253  GLU253      0.1160
    112  CD       -48.3060  -56.7020  227.0340 C.2   253  GLU253      0.3649
    113  OE1      -48.4810  -55.5050  226.7050 O.co2 253  GLU253     -0.2457
    114  OE2      -48.9140  -57.2400  227.9940 O.co2 253  GLU253     -0.2457
    115  N        -52.3290  -56.6070  222.3800 N.3   256  ILE256     -0.1245
    116  CA       -52.9270  -55.7500  223.3910 C.3   256  ILE256      0.1561
    117  C        -52.6480  -54.2860  223.0560 C.2   256  ILE256      0.2260
    118  O        -53.5510  -53.4520  223.0880 O.2   256  ILE256     -0.2867
    119  CB       -52.4140  -56.1000  224.8260 C.3   256  ILE256      0.0252
    120  CG1      -52.9560  -57.4620  225.2720 C.3   256  ILE256      0.0019
    121  CG2      -52.8780  -55.0740  225.8380 C.3   256  ILE256      0.0019
    122  CD1      -54.4850  -57.5140  225.3830 C.3   256  ILE256      0.0001
    123  N        -56.0330  -53.6700  220.9170 N.3   260  VAL260     -0.1231
    124  CA       -57.0190  -53.6520  221.9830 C.3   260  VAL260      0.1692
    125  C        -57.0050  -52.3940  222.8590 C.2   260  VAL260      0.2591
    126  O        -58.0620  -51.8160  223.1070 O.2   260  VAL260     -0.2718
    127  CB       -56.8500  -54.9040  222.8500 C.3   260  VAL260      0.0266
    128  CG1      -57.7140  -54.8260  224.1010 C.3   260  VAL260      0.0020
    129  CG2      -57.2100  -56.1330  222.0220 C.3   260  VAL260      0.0020
    130  N        -55.8310  -51.9590  223.3140 N.am  261  MET261     -0.1979
    131  CA       -55.7470  -50.7990  224.2040 C.3   261  MET261      0.1605
    132  C        -56.4620  -49.5100  223.7250 C.2   261  MET261      0.2287
    133  O        -57.1470  -48.8660  224.5140 O.2   261  MET261     -0.2864
    134  CB       -54.2850  -50.4780  224.4940 C.3   261  MET261      0.0413
    135  CG       -53.6310  -51.4090  225.4960 C.3   261  MET261      0.0598
    136  SD       -51.8930  -50.9990  225.7770 S.3   261  MET261     -0.1393
    137  CE       -51.4610  -52.0480  227.1830 C.3   261  MET261      0.0692
    138  N        -60.2030  -49.8450  224.2820 N.3   264  VAL264     -0.1245
    139  CA       -60.5270  -49.8290  225.7020 C.3   264  VAL264      0.1561
    140  C        -60.4230  -48.4110  226.2610 C.2   264  VAL264      0.2260
    141  O        -61.3340  -47.9570  226.9550 O.2   264  VAL264     -0.2867
    142  CB       -59.6220  -50.7820  226.5070 C.3   264  VAL264      0.0252
    143  CG1      -59.6750  -50.4430  227.9830 C.3   264  VAL264      0.0019
    144  CG2      -60.0410  -52.2350  226.2820 C.3   264  VAL264      0.0019
    145  N        -55.5150  -54.8820  238.3430 N.3   323  GLY323     -0.1210
    146  CA       -54.7440  -55.6390  237.3710 C.3   323  GLY323      0.1956
    147  C        -55.1580  -55.3510  235.9340 C.2   323  GLY323      0.2612
    148  O        -56.1610  -54.6700  235.6650 O.2   323  GLY323     -0.2717
    149  N        -54.3990  -55.8680  234.9880 N.am  324  GLY324     -0.1942
    150  CA       -54.7000  -55.5930  233.6070 C.3   324  GLY324      0.2014
    151  C        -55.9790  -56.2500  233.1340 C.2   324  GLY324      0.2639
    152  O        -56.5630  -55.8070  232.1580 O.2   324  GLY324     -0.2714
    153  N        -56.4160  -57.3130  233.7990 N.am  325  GLY325     -0.1954
    154  CA       -57.6280  -58.0140  233.4040 C.3   325  GLY325      0.1869
    155  C        -58.8530  -57.1140  233.4340 C.2   325  GLY325      0.2309
    156  O        -59.7850  -57.2990  232.6610 O.2   325  GLY325     -0.2863
    157  N        -58.9380  -54.0800  232.5040 N.3   327  LEU327     -0.1231
    158  CA       -58.9290  -53.3340  231.2580 C.3   327  LEU327      0.1693
    159  C        -59.2480  -54.2450  230.0760 C.2   327  LEU327      0.2592
    160  O        -60.0750  -53.9070  229.2220 O.2   327  LEU327     -0.2718
    161  CB       -57.5820  -52.6560  231.0610 C.3   327  LEU327      0.0284
    162  CG       -57.3010  -51.5510  232.0880 C.3   327  LEU327      0.0019
    163  CD1      -55.8050  -51.1930  232.1220 C.3   327  LEU327      0.0001
    164  CD2      -58.1740  -50.3190  231.8010 C.3   327  LEU327      0.0001
    165  N        -58.6020  -55.4090  230.0500 N.am  328  PHE328     -0.1976
    166  CA       -58.7900  -56.3380  228.9700 C.3   328  PHE328      0.1639
    167  C        -60.2430  -56.7490  228.8730 C.2   328  PHE328      0.2290
    168  O        -60.8050  -56.7520  227.7900 O.2   328  PHE328     -0.2864
    169  CB       -57.9220  -57.5860  229.1330 C.3   328  PHE328      0.0560
    170  CG       -58.3140  -58.7080  228.1940 C.ar  328  PHE328     -0.0200
    171  CD1      -58.0170  -58.6250  226.8250 C.ar  328  PHE328     -0.0042
    172  CD2      -59.0220  -59.8150  228.6620 C.ar  328  PHE328     -0.0042
    173  CE1      -58.4010  -59.6300  225.9400 C.ar  328  PHE328     -0.0003
    174  CE2      -59.4040  -60.8300  227.7790 C.ar  328  PHE328     -0.0003
    175  CZ       -59.0910  -60.7270  226.4080 C.ar  328  PHE328     -0.0000
    176  N        -57.2620  -46.5360  234.0720 N.3   349  GLN349     -0.1245
    177  CA       -56.1580  -46.7540  233.1210 C.3   349  GLN349      0.1566
    178  C        -54.8980  -47.2470  233.8260 C.2   349  GLN349      0.2260
    179  O        -54.0810  -47.9480  233.2240 O.2   349  GLN349     -0.2867
    180  CB       -55.8070  -45.4880  232.3240 C.3   349  GLN349      0.0367
    181  CG       -56.9190  -44.8790  231.5080 C.3   349  GLN349      0.0905
    182  CD       -57.7500  -43.9100  232.3300 C.2   349  GLN349      0.2608
    183  OE1      -57.7820  -43.9940  233.5680 O.2   349  GLN349     -0.2717
    184  NE2      -58.4060  -42.9660  231.6530 N.am  349  GLN349     -0.0878
    185  N        -53.4600  -51.8300  235.6880 N.3   352  ALA352     -0.1245
    186  CA       -52.4080  -52.8470  235.5830 C.3   352  ALA352      0.1562
    187  C        -51.2320  -52.5980  236.5450 C.2   352  ALA352      0.2260
    188  O        -50.6450  -53.5510  237.0610 O.2   352  ALA352     -0.2867
    189  CB       -51.9040  -52.9440  234.1520 C.3   352  ALA352      0.0290
@<TRIPOS>BOND
     1   123   124    1
     2   124   127    1
     3   124   125    1
     4   129   127    1
     5   101   100    2
     6   115   116    1
     7   108   109    2
     8   108   107    1
     9   127   128    1
    10   125   126    2
    11   125   130   am
    12   117   118    2
    13   117   116    1
    14   100    99    1
    15   130   131    1
    16   116   119    1
    17   106   107    1
    18   104   102    1
    19   132   131    1
    20   132   133    2
    21   107   110    1
    22   131   134    1
    23   138   139    1
    24    99   102    1
    25    99    98    1
    26   134   135    1
    27   110   111    1
    28   119   120    1
    29   119   121    1
    30   102   103    1
    31   120   122    1
    32   135   136    1
    33   139   140    1
    34   139   142    1
    35   136   137    1
    36   103   105    1
    37   173   175   ar
    38   173   171   ar
    39   111   112    1
    40    93    92    2
    41   140   141    2
    42   144   142    1
    43   175   174   ar
    44   142   143    1
    45   113   112   ar
    46   171   170   ar
    47   112   114   ar
    48    92    91    1
    49   174   172   ar
    50   168   167    2
    51   170   172   ar
    52   170   169    1
    53    91    94    1
    54    91    90    1
    55    86    85    2
    56    96    95    2
    57    94    95    1
    58   167   166    1
    59    95    97   am
    60   166   169    1
    61   166   165    1
    62   160   159    2
    63    85    90   am
    64    85    84    1
    65   165   159   am
    66   159   158    1
    67    87    88    1
    68    87    84    1
    69    87    89    1
    70    84    83    1
    71   161   158    1
    72   161   162    1
    73    27    25    1
    74   158   157    1
    75    37    36    1
    76   181   180    1
    77   181   182    1
    78   184   182   am
    79    35    36    1
    80    35    34    1
    81    70    69    2
    82    71    68    1
    83   164   162    1
    84    24    23    2
    85    28    26    1
    86   162   163    1
    87   152   151    2
    88   180   177    1
    89   182   183    2
    90    68    69    1
    91    68    67    1
    92    69    72   am
    93    25    22    1
    94    25    26    1
    95    23    22    1
    96    23    29   am
    97   156   155    2
    98    33    34    1
    99    33    30    1
   100    22    21    1
   101   177   178    1
   102   177   176    1
   103   151   150    1
   104   151   153   am
   105   179   178    2
   106    16    15    2
   107    72    73    1
   108   154   155    1
   109   154   153    1
   110    30    29    1
   111    30    31    1
   112    73    74    1
   113   150   149    1
   114    67    65   am
   115    66    65    2
   116    21    15   am
   117   189   186    1
   118    15    14    1
   119    65    64    1
   120    31    32    2
   121    74    75    2
   122    74    76   am
   123   149   147   am
   124   186   185    1
   125   186   187    1
   126    14    17    1
   127    14    13    1
   128    64    63    1
   129   148   147    2
   130    44    43    1
   131    44    45    1
   132    76    77    1
   133    43    42    1
   134   147   146    1
   135    17    18    1
   136    58    57    2
   137    46    45    1
   138    63    57   am
   139   187   188    2
   140    57    56    1
   141    39    38    1
   142    39    42    1
   143    39    40    1
   144    13    11   am
   145    12    11    2
   146    59    56    1
   147    59    60    1
   148    77    78    1
   149    77    80    1
   150    11    10    1
   151    61    60    1
   152    79    78    2
   153   146   145    1
   154    18    20   am
   155    18    19    2
   156    56    55    1
   157    82    80    1
   158    40    41    2
   159    60    62    1
   160    80    81    1
   161    10     9    1
   162    55    49   am
   163     4     3    2
   164    53    52   ar
   165    49    50    2
   166    49    48    1
   167     8     6   ar
   168     3     2    1
   169    52    54   ar
   170    52    51    1
   171     6     5    1
   172     6     7   ar
   173     5     2    1
   174    48    51    1
   175    48    47    1
   176     2     1    1
