@<TRIPOS>MOLECULE
tmp/4xhpA01.pdb
 189 176 0 0 0
SMALL
GASTEIGER

@<TRIPOS>ATOM
      1  N         -9.6920  -36.7080  -16.2580 N.3   373  ASP373     -0.1239
      2  CA        -8.8720  -36.4200  -15.0890 C.3   373  ASP373      0.1674
      3  C         -9.4430  -35.2130  -14.3540 C.2   373  ASP373      0.2266
      4  O         -8.9400  -34.0990  -14.4870 O.2   373  ASP373     -0.2867
      5  CB        -7.4160  -36.1650  -15.4910 C.3   373  ASP373      0.1410
      6  CG        -6.5050  -35.9670  -14.2930 C.2   373  ASP373      0.3668
      7  OD1       -6.8880  -36.3770  -13.1770 O.co2 373  ASP373     -0.2456
      8  OD2       -5.4050  -35.4020  -14.4680 O.co2 373  ASP373     -0.2456
      9  N         -9.9430  -32.8210  -11.4080 N.3   375  GLY375     -0.1210
     10  CA        -9.1100  -32.4410  -10.2820 C.3   375  GLY375      0.1956
     11  C         -9.6350  -31.2700   -9.4800 C.2   375  GLY375      0.2612
     12  O        -10.7900  -30.8760   -9.6120 O.2   375  GLY375     -0.2717
     13  N         -8.7720  -30.7040   -8.6440 N.am  376  ASN376     -0.1960
     14  CA        -9.1850  -29.6450   -7.7280 C.3   376  ASN376      0.1819
     15  C         -9.0750  -28.2640   -8.3590 C.2   376  ASN376      0.2621
     16  O         -9.6030  -27.2860   -7.8340 O.2   376  ASN376     -0.2715
     17  CB        -8.3480  -29.7110   -6.4440 C.3   376  ASN376      0.1195
     18  CG        -7.9620  -31.1330   -6.0770 C.2   376  ASN376      0.2630
     19  OD1       -6.8910  -31.6110   -6.4590 O.2   376  ASN376     -0.2716
     20  ND2       -8.8200  -31.8100   -5.3200 N.am  376  ASN376     -0.0877
     21  N         -8.3830  -28.1940   -9.4900 N.am  377  ILE377     -0.1963
     22  CA        -8.1340  -26.9210  -10.1550 C.3   377  ILE377      0.1727
     23  C         -8.6360  -26.9500  -11.5930 C.2   377  ILE377      0.2616
     24  O         -9.4180  -26.0960  -12.0100 O.2   377  ILE377     -0.2715
     25  CB        -6.6350  -26.5700  -10.1440 C.3   377  ILE377      0.0290
     26  CG1       -6.0630  -26.7550   -8.7380 C.3   377  ILE377      0.0022
     27  CG2       -6.4100  -25.1550  -10.6600 C.3   377  ILE377      0.0023
     28  CD1       -4.6700  -26.2020   -8.5540 C.3   377  ILE377      0.0001
     29  N         -8.1860  -27.9480  -12.3460 N.am  378  LYS378     -0.1977
     30  CA        -8.6420  -28.1350  -13.7180 C.3   378  LYS378      0.1596
     31  C         -9.4530  -29.4160  -13.8610 C.2   378  LYS378      0.2287
     32  O         -9.1300  -30.4390  -13.2560 O.2   378  LYS378     -0.2864
     33  CB        -7.4590  -28.1720  -14.6900 C.3   378  LYS378      0.0298
     34  CG        -6.5180  -26.9850  -14.6060 C.3   378  LYS378      0.0038
     35  CD        -5.7410  -26.8440  -15.9050 C.3   378  LYS378      0.0206
     36  CE        -4.2420  -26.8140  -15.6770 C.3   378  LYS378      0.1093
     37  NZ        -3.5030  -26.8000  -16.9700 N.3   378  LYS378     -0.1314
     38  N         -9.6330  -31.7390  -16.4090 N.3   380  LYS380     -0.1245
     39  CA        -8.9440  -32.1290  -17.6320 C.3   380  LYS380      0.1561
     40  C         -9.6210  -33.3160  -18.3090 C.2   380  LYS380      0.2260
     41  O         -9.9840  -34.2930  -17.6530 O.2   380  LYS380     -0.2867
     42  CB        -7.4830  -32.4540  -17.3220 C.3   380  LYS380      0.0271
     43  CG        -6.7580  -31.3290  -16.5990 C.3   380  LYS380      0.0035
     44  CD        -5.6710  -31.8620  -15.6860 C.3   380  LYS380      0.0206
     45  CE        -4.5960  -32.5760  -16.4770 C.3   380  LYS380      0.1093
     46  NZ        -3.5080  -33.0860  -15.5990 N.3   380  LYS380     -0.1314
     47  N          3.6520  -37.4580  -11.0800 N.3   552  ASP552     -0.1225
     48  CA         2.8160  -36.4150  -11.6590 C.3   552  ASP552      0.1805
     49  C          3.0910  -35.0840  -10.9740 C.2   552  ASP552      0.2598
     50  O          2.7920  -34.9060   -9.7930 O.2   552  ASP552     -0.2718
     51  CB         1.3340  -36.7720  -11.5480 C.3   552  ASP552      0.1424
     52  CG         0.4470  -35.8190  -12.3270 C.2   552  ASP552      0.3668
     53  OD1        0.3140  -35.9990  -13.5550 O.co2 552  ASP552     -0.2456
     54  OD2       -0.1130  -34.8870  -11.7120 O.co2 552  ASP552     -0.2456
     55  N          3.6690  -34.1520  -11.7230 N.am  553  LEU553     -0.1966
     56  CA         4.0050  -32.8400  -11.1880 C.3   553  LEU553      0.1728
     57  C          2.8440  -31.8720  -11.3890 C.2   553  LEU553      0.2617
     58  O          2.6680  -31.3190  -12.4740 O.2   553  LEU553     -0.2715
     59  CB         5.2710  -32.3010  -11.8540 C.3   553  LEU553      0.0311
     60  CG         6.4140  -33.2950  -12.0750 C.3   553  LEU553      0.0022
     61  CD1        7.5920  -32.6140  -12.7570 C.3   553  LEU553      0.0001
     62  CD2        6.8460  -33.9350  -10.7660 C.3   553  LEU553      0.0001
     63  N          2.0540  -31.6720  -10.3390 N.am  554  GLY554     -0.1940
     64  CA         0.8680  -30.8400  -10.4310 C.3   554  GLY554      0.2014
     65  C          1.0750  -29.4180   -9.9510 C.2   554  GLY554      0.2639
     66  O          2.1830  -29.0280   -9.5810 O.2   554  GLY554     -0.2714
     67  N         -0.0020  -28.6390   -9.9610 N.am  555  ALA555     -0.1963
     68  CA         0.0460  -27.2560   -9.5050 C.3   555  ALA555      0.1728
     69  C          0.2290  -27.1950   -7.9950 C.2   555  ALA555      0.2617
     70  O          1.1100  -26.4980   -7.4920 O.2   555  ALA555     -0.2715
     71  CB        -1.2170  -26.5160   -9.9180 C.3   555  ALA555      0.0334
     72  N         -0.6080  -27.9360   -7.2770 N.am  556  GLY556     -0.1940
     73  CA        -0.5610  -27.9480   -5.8290 C.3   556  GLY556      0.2014
     74  C          0.4060  -28.9710   -5.2690 C.2   556  GLY556      0.2639
     75  O          1.1730  -28.6700   -4.3590 O.2   556  GLY556     -0.2714
     76  N          0.3760  -30.1840   -5.8110 N.am  557  THR557     -0.1950
     77  CA         1.1810  -31.2710   -5.2650 C.3   557  THR557      0.1897
     78  C          1.9430  -32.0610   -6.3250 C.2   557  THR557      0.2313
     79  O          1.5420  -32.1180   -7.4870 O.2   557  THR557     -0.2863
     80  CB         0.3090  -32.2660   -4.4700 C.3   557  THR557      0.1794
     81  OG1       -0.7210  -32.7860   -5.3200 O.3   557  THR557     -0.2208
     82  CG2       -0.3230  -31.5910   -3.2620 C.3   557  THR557      0.0378
     83  N          3.9960  -26.6590   -8.5000 N.3   578  THR578     -0.1203
     84  CA         4.5240  -25.5230   -9.2440 C.3   578  THR578      0.1994
     85  C          4.0520  -24.1910   -8.6690 C.2   578  THR578      0.2617
     86  O          4.6900  -23.1600   -8.8800 O.2   578  THR578     -0.2717
     87  CB         4.1140  -25.5810  -10.7300 C.3   578  THR578      0.1784
     88  OG1        2.6860  -25.6580  -10.8320 O.3   578  THR578     -0.2211
     89  CG2        4.7270  -26.7910  -11.4120 C.3   578  THR578      0.0376
     90  N          2.9380  -24.2230   -7.9410 N.am  579  ASN579     -0.1974
     91  CA         2.2790  -23.0060   -7.4680 C.3   579  ASN579      0.1688
     92  C          3.1670  -22.0770   -6.6390 C.2   579  ASN579      0.2292
     93  O          3.2080  -20.8740   -6.8920 O.2   579  ASN579     -0.2864
     94  CB         1.0310  -23.3700   -6.6590 C.3   579  ASN579      0.1181
     95  CG        -0.1700  -23.6650   -7.5410 C.2   579  ASN579      0.2629
     96  OD1       -0.1860  -23.3180   -8.7220 O.2   579  ASN579     -0.2716
     97  ND2       -1.1840  -24.3030   -6.9680 N.am  579  ASN579     -0.0877
     98  N          5.9810  -20.6650   -8.9030 N.3   582  ILE582     -0.1245
     99  CA         5.4570  -19.6180   -9.7720 C.3   582  ILE582      0.1561
    100  C          5.2200  -18.3370   -8.9820 C.2   582  ILE582      0.2260
    101  O          5.5830  -17.2450   -9.4230 O.2   582  ILE582     -0.2867
    102  CB         4.1380  -20.0460  -10.4510 C.3   582  ILE582      0.0252
    103  CG1        4.3870  -21.1930  -11.4320 C.3   582  ILE582      0.0019
    104  CG2        3.4970  -18.8690  -11.1720 C.3   582  ILE582      0.0019
    105  CD1        3.1690  -21.5740  -12.2480 C.3   582  ILE582      0.0001
    106  N         -2.4730  -18.5340  -14.0030 N.3   607  GLU607     -0.1245
    107  CA        -2.6960  -19.0120  -15.3620 C.3   607  GLU607      0.1567
    108  C         -2.1990  -18.0180  -16.4080 C.2   607  GLU607      0.2260
    109  O         -1.6210  -18.4060  -17.4250 O.2   607  GLU607     -0.2867
    110  CB        -4.1870  -19.3080  -15.5650 C.3   607  GLU607      0.0388
    111  CG        -4.6650  -19.1690  -16.9970 C.3   607  GLU607      0.1160
    112  CD        -5.1990  -17.7830  -17.2890 C.2   607  GLU607      0.3649
    113  OE1       -5.5320  -17.0650  -16.3250 O.co2 607  GLU607     -0.2457
    114  OE2       -5.2700  -17.4080  -18.4760 O.co2 607  GLU607     -0.2457
    115  N          1.3870  -18.1610  -17.1910 N.3   610  ILE610     -0.1245
    116  CA         1.7570  -19.3670  -17.9280 C.3   610  ILE610      0.1561
    117  C          1.3360  -19.3060  -19.3940 C.2   610  ILE610      0.2260
    118  O          2.1520  -19.5140  -20.2920 O.2   610  ILE610     -0.2867
    119  CB         1.1410  -20.6250  -17.2830 C.3   610  ILE610      0.0252
    120  CG1        1.8960  -20.9830  -16.0030 C.3   610  ILE610      0.0019
    121  CG2        1.1730  -21.8010  -18.2490 C.3   610  ILE610      0.0019
    122  CD1        3.3510  -21.3300  -16.2330 C.3   610  ILE610      0.0001
    123  N          4.9810  -17.8590  -20.4770 N.3   614  VAL614     -0.1231
    124  CA         5.8010  -19.0560  -20.3370 C.3   614  VAL614      0.1692
    125  C          5.6280  -20.0600  -21.4730 C.2   614  VAL614      0.2591
    126  O          6.5660  -20.2960  -22.2330 O.2   614  VAL614     -0.2718
    127  CB         5.5100  -19.7590  -18.9960 C.3   614  VAL614      0.0266
    128  CG1        6.2030  -21.1100  -18.9340 C.3   614  VAL614      0.0020
    129  CG2        5.9530  -18.8770  -17.8460 C.3   614  VAL614      0.0020
    130  N          4.4370  -20.6410  -21.6040 N.am  615  MET615     -0.1979
    131  CA         4.2540  -21.7540  -22.5380 C.3   615  MET615      0.1605
    132  C          4.4820  -21.4210  -24.0270 C.2   615  MET615      0.2287
    133  O          4.6550  -22.3410  -24.8270 O.2   615  MET615     -0.2864
    134  CB         2.8650  -22.3880  -22.3580 C.3   615  MET615      0.0413
    135  CG         1.6660  -21.5050  -22.6480 C.3   615  MET615      0.0598
    136  SD         0.1310  -22.3020  -22.1280 S.3   615  MET615     -0.1393
    137  CE        -0.5380  -22.8270  -23.7040 C.3   615  MET615      0.0692
    138  N          8.3110  -22.2780  -24.0830 N.3   618  VAL618     -0.1245
    139  CA         8.4800  -23.7130  -23.8920 C.3   618  VAL618      0.1561
    140  C          8.2800  -24.4580  -25.2090 C.2   618  VAL618      0.2260
    141  O          8.9820  -25.4280  -25.4990 O.2   618  VAL618     -0.2867
    142  CB         7.4990  -24.2580  -22.8330 C.3   618  VAL618      0.0252
    143  CG1        7.6780  -25.7590  -22.6520 C.3   618  VAL618      0.0019
    144  CG2        7.6920  -23.5320  -21.5100 C.3   618  VAL618      0.0019
    145  N          2.5030  -34.8920  -16.0860 N.3   677  GLY677     -0.1210
    146  CA         1.8390  -33.7260  -15.5380 C.3   677  GLY677      0.1956
    147  C          2.3030  -32.4460  -16.2020 C.2   677  GLY677      0.2612
    148  O          3.1080  -32.4720  -17.1330 O.2   677  GLY677     -0.2717
    149  N          1.7940  -31.3200  -15.7160 N.am  678  GLY678     -0.1942
    150  CA         2.1220  -30.0290  -16.2880 C.3   678  GLY678      0.2014
    151  C          3.4470  -29.4740  -15.8030 C.2   678  GLY678      0.2639
    152  O          4.0260  -28.5940  -16.4400 O.2   678  GLY678     -0.2714
    153  N          3.9270  -29.9830  -14.6720 N.am  679  GLY679     -0.1954
    154  CA         5.1980  -29.5480  -14.1210 C.3   679  GLY679      0.1869
    155  C          6.3540  -29.8850  -15.0410 C.2   679  GLY679      0.2309
    156  O          7.4130  -29.2590  -14.9840 O.2   679  GLY679     -0.2863
    157  N          6.2980  -29.4670  -18.3130 N.3   681  LEU681     -0.1231
    158  CA         6.3950  -28.3640  -19.2610 C.3   681  LEU681      0.1693
    159  C          6.9190  -27.0850  -18.6120 C.2   681  LEU681      0.2592
    160  O          7.6020  -26.2900  -19.2570 O.2   681  LEU681     -0.2718
    161  CB         5.0330  -28.1040  -19.9060 C.3   681  LEU681      0.0284
    162  CG         4.5480  -29.1960  -20.8610 C.3   681  LEU681      0.0019
    163  CD1        3.0660  -29.0450  -21.1610 C.3   681  LEU681      0.0001
    164  CD2        5.3610  -29.1590  -22.1430 C.3   681  LEU681      0.0001
    165  N          6.5960  -26.8900  -17.3380 N.am  682  PHE682     -0.1976
    166  CA         7.0520  -25.7090  -16.6120 C.3   682  PHE682      0.1639
    167  C          8.5560  -25.7610  -16.3690 C.2   682  PHE682      0.2290
    168  O          9.2960  -24.8800  -16.8060 O.2   682  PHE682     -0.2864
    169  CB         6.3090  -25.5710  -15.2810 C.3   682  PHE682      0.0560
    170  CG         6.7650  -24.4030  -14.4520 C.ar  682  PHE682     -0.0200
    171  CD1        6.2690  -23.1320  -14.6920 C.ar  682  PHE682     -0.0042
    172  CD2        7.6870  -24.5750  -13.4310 C.ar  682  PHE682     -0.0042
    173  CE1        6.6870  -22.0550  -13.9340 C.ar  682  PHE682     -0.0003
    174  CE2        8.1080  -23.5020  -12.6700 C.ar  682  PHE682     -0.0003
    175  CZ         7.6060  -22.2400  -12.9210 C.ar  682  PHE682     -0.0000
    176  N          4.2000  -31.9590  -25.3710 N.3   703  GLN703     -0.1245
    177  CA         3.3300  -30.7950  -25.2520 C.3   703  GLN703      0.1566
    178  C          2.0360  -31.1770  -24.5400 C.2   703  GLN703      0.2260
    179  O          1.4050  -30.3490  -23.8830 O.2   703  GLN703     -0.2867
    180  CB         3.0200  -30.1990  -26.6270 C.3   703  GLN703      0.0367
    181  CG         4.2400  -29.7350  -27.4130 C.3   703  GLN703      0.0905
    182  CD         4.8950  -30.8530  -28.2040 C.2   703  GLN703      0.2608
    183  OE1        4.6320  -32.0330  -27.9710 O.2   703  GLN703     -0.2717
    184  NE2        5.7460  -30.4830  -29.1540 N.am  703  GLN703     -0.0878
    185  N          0.5650  -32.6910  -19.7620 N.3   706  ALA706     -0.1245
    186  CA        -0.3940  -32.3790  -18.7100 C.3   706  ALA706      0.1562
    187  C         -1.5540  -33.3680  -18.7020 C.2   706  ALA706      0.2260
    188  O         -1.9720  -33.8400  -17.6460 O.2   706  ALA706     -0.2867
    189  CB        -0.9120  -30.9580  -18.8730 C.3   706  ALA706      0.0290
@<TRIPOS>BOND
     1   184   182   am
     2   182   183    2
     3   182   181    1
     4   181   180    1
     5   180   177    1
     6   141   140    2
     7   176   177    1
     8   177   178    1
     9   140   139    1
    10   133   132    2
    11   178   179    2
    12   138   139    1
    13   132   131    1
    14   139   142    1
    15   137   136    1
    16   142   143    1
    17   142   144    1
    18   135   134    1
    19   135   136    1
    20   131   134    1
    21   131   130    1
    22   126   125    2
    23   164   162    1
    24   130   125   am
    25   125   124    1
    26   163   162    1
    27   162   161    1
    28   123   124    1
    29   124   127    1
    30   118   117    2
    31   161   158    1
    32   185   186    1
    33   117   116    1
    34   158   159    1
    35   158   157    1
    36   160   159    2
    37   127   128    1
    38   127   129    1
    39   189   186    1
    40   186   187    1
    41   187   188    2
    42   159   165   am
    43   114   112   ar
    44    40    41    2
    45    40    39    1
    46   121   119    1
    47   116   119    1
    48   116   115    1
    49    39    42    1
    50    39    38    1
    51   109   108    2
    52   165   166    1
    53    42    43    1
    54   112   111    1
    55   112   113   ar
    56   119   120    1
    57   148   147    2
    58   111   110    1
    59    37    36    1
    60   168   167    2
    61   166   167    1
    62   166   169    1
    63    43    44    1
    64    45    44    1
    65    45    46    1
    66   152   151    2
    67   108   107    1
    68   150   151    1
    69   150   149    1
    70     1     2    1
    71   122   120    1
    72   147   149   am
    73   147   146    1
    74   145   146    1
    75    35    36    1
    76    35    34    1
    77   151   153   am
    78   110   107    1
    79     5     2    1
    80     5     6    1
    81   107   106    1
    82   169   170    1
    83     2     3    1
    84   155   156    2
    85   155   154    1
    86   171   170   ar
    87   171   173   ar
    88    33    34    1
    89    33    30    1
    90   153   154    1
    91     4     3    2
    92     8     6   ar
    93   170   172   ar
    94     6     7   ar
    95   173   175   ar
    96    31    30    1
    97    31    32    2
    98    30    29    1
    99    53    52   ar
   100   172   174   ar
   101   175   174   ar
   102    61    60    1
   103    58    57    2
   104    29    23   am
   105    52    54   ar
   106    52    51    1
   107   105   103    1
   108    60    59    1
   109    60    62    1
   110    24    23    2
   111    59    56    1
   112    55    56    1
   113    55    49   am
   114    48    51    1
   115    48    47    1
   116    48    49    1
   117    23    22    1
   118   103   102    1
   119    89    87    1
   120     9    10    1
   121    57    56    1
   122    57    63   am
   123   104   102    1
   124    49    50    2
   125    88    87    1
   126    87    84    1
   127    27    25    1
   128   102    99    1
   129    64    63    1
   130    64    65    1
   131    10    11    1
   132    22    25    1
   133    22    21    1
   134    25    26    1
   135    67    65   am
   136    67    68    1
   137    65    66    2
   138    71    68    1
   139    99   100    1
   140    99    98    1
   141    12    11    2
   142    68    69    1
   143    21    15   am
   144    11    13   am
   145   101   100    2
   146    84    85    1
   147    84    83    1
   148    86    85    2
   149    26    28    1
   150    96    95    2
   151    85    90   am
   152    13    14    1
   153    15    16    2
   154    15    14    1
   155    69    70    2
   156    69    72   am
   157    90    91    1
   158    14    17    1
   159    95    97   am
   160    95    94    1
   161    79    78    2
   162    91    94    1
   163    91    92    1
   164    72    73    1
   165    93    92    2
   166    19    18    2
   167    17    18    1
   168    78    77    1
   169    18    20   am
   170    73    74    1
   171    76    74   am
   172    76    77    1
   173    81    80    1
   174    74    75    2
   175    77    80    1
   176    80    82    1
