@<TRIPOS>MOLECULE
tmp/4xhpA00.pdb
 190 176 0 0 0
SMALL
GASTEIGER

@<TRIPOS>ATOM
      1  N        -26.5230   10.1180  -22.4760 N.3    13  ASP13      -0.1239
      2  CA       -25.7210    9.8370  -21.2920 C.3    13  ASP13       0.1674
      3  C        -26.2630   10.5930  -20.0850 C.2    13  ASP13       0.2266
      4  O        -25.9020   11.7460  -19.8470 O.2    13  ASP13      -0.2867
      5  CB       -24.2540   10.2000  -21.5270 C.3    13  ASP13       0.1410
      6  CG       -23.3680    9.8230  -20.3540 C.2    13  ASP13       0.3668
      7  OD1      -23.7540    8.9200  -19.5820 O.co2  13  ASP13      -0.2456
      8  OD2      -22.2820   10.4200  -20.2060 O.co2  13  ASP13      -0.2456
      9  N        -26.3970   11.3710  -16.3170 N.3    15  GLY15      -0.1225
     10  CA       -25.6190   11.2850  -15.0960 C.3    15  GLY15       0.1811
     11  C        -26.3100   11.9990  -13.9520 C.2    15  GLY15       0.2280
     12  O        -27.4880   12.3430  -14.0480 O.2    15  GLY15      -0.2866
     13  N        -25.3820   14.9560  -12.7500 N.3    17  ILE17      -0.1231
     14  CA       -25.2430   16.4080  -12.8230 C.3    17  ILE17       0.1692
     15  C        -25.6590   17.0030  -14.1760 C.2    17  ILE17       0.2591
     16  O        -26.2220   18.0950  -14.2200 O.2    17  ILE17      -0.2718
     17  CB       -23.7920   16.8470  -12.4840 C.3    17  ILE17       0.0266
     18  CG1      -22.8070   16.4350  -13.5770 C.3    17  ILE17       0.0019
     19  CG2      -23.3600   16.2830  -11.1360 C.3    17  ILE17       0.0020
     20  CD1      -22.2040   17.6060  -14.3100 C.3    17  ILE17       0.0001
     21  N        -25.3980   16.2930  -15.2700 N.am   18  LYS18      -0.1980
     22  CA       -25.8210   16.7540  -16.5920 C.3    18  LYS18       0.1596
     23  C        -26.4330   15.6190  -17.4030 C.2    18  LYS18       0.2287
     24  O        -26.2070   14.4430  -17.1160 O.2    18  LYS18      -0.2864
     25  CB       -24.6490   17.3750  -17.3650 C.3    18  LYS18       0.0298
     26  CG       -24.2630   18.7760  -16.9060 C.3    18  LYS18       0.0038
     27  CD       -24.0250   19.7200  -18.0810 C.3    18  LYS18       0.0206
     28  CE       -22.6190   19.5850  -18.6480 C.3    18  LYS18       0.1093
     29  NZ       -22.3190   20.6550  -19.6430 N.3    18  LYS18      -0.1314
     30  N        -26.2540   14.4950  -21.0970 N.3    20  LYS20      -0.1245
     31  CA       -25.6230   14.6650  -22.3990 C.3    20  LYS20       0.1561
     32  C        -26.3420   13.8690  -23.4810 C.2    20  LYS20       0.2260
     33  O        -26.7140   12.7130  -23.2770 O.2    20  LYS20      -0.2867
     34  CB       -24.1520   14.2590  -22.3290 C.3    20  LYS20       0.0271
     35  CG       -23.3120   15.1950  -21.4770 C.3    20  LYS20       0.0035
     36  CD       -21.8520   14.7880  -21.4690 C.3    20  LYS20       0.0206
     37  CE       -21.6670   13.4160  -20.8520 C.3    20  LYS20       0.1093
     38  NZ       -20.2320   13.1120  -20.5940 N.3    20  LYS20      -0.1314
     39  N        -13.6860    8.2370  -18.5270 N.3   193  ASP193     -0.1225
     40  CA       -14.5640    9.3920  -18.6400 C.3   193  ASP193      0.1805
     41  C        -14.3530   10.3110  -17.4450 C.2   193  ASP193      0.2598
     42  O        -14.7270    9.9780  -16.3210 O.2   193  ASP193     -0.2718
     43  CB       -16.0300    8.9620  -18.7300 C.3   193  ASP193      0.1424
     44  CG       -16.9370   10.0830  -19.2030 C.2   193  ASP193      0.3668
     45  OD1      -17.1420   11.0510  -18.4400 O.co2 193  ASP193     -0.2456
     46  OD2      -17.4480    9.9950  -20.3390 O.co2 193  ASP193     -0.2456
     47  N        -13.7420   11.4650  -17.6910 N.am  194  LEU194     -0.1966
     48  CA       -13.4970   12.4330  -16.6310 C.3   194  LEU194      0.1728
     49  C        -14.7110   13.3390  -16.4570 C.2   194  LEU194      0.2617
     50  O        -14.9180   14.2700  -17.2350 O.2   194  LEU194     -0.2715
     51  CB       -12.2500   13.2650  -16.9340 C.3   194  LEU194      0.0311
     52  CG       -10.9990   12.5180  -17.4030 C.3   194  LEU194      0.0022
     53  CD1       -9.8300   13.4820  -17.5350 C.3   194  LEU194      0.0001
     54  CD2      -10.6520   11.3720  -16.4630 C.3   194  LEU194      0.0001
     55  N        -15.5120   13.0590  -15.4340 N.am  195  GLY195     -0.1940
     56  CA       -16.7400   13.7970  -15.2050 C.3   195  GLY195      0.2014
     57  C        -16.5990   14.9110  -14.1860 C.2   195  GLY195      0.2638
     58  O        -15.5340   15.1030  -13.6010 O.2   195  GLY195     -0.2714
     59  N        -17.6850   15.6480  -13.9740 N.am  196  ALA196     -0.1977
     60  CA       -17.6790   16.7600  -13.0330 C.3   196  ALA196      0.1597
     61  C        -17.8320   16.2700  -11.5990 C.2   196  ALA196      0.2287
     62  O        -17.2020   16.7980  -10.6830 O.2   196  ALA196     -0.2864
     63  CB       -18.7790   17.7480  -13.3730 C.3   196  ALA196      0.0319
     64  N        -14.4360   17.2600  -11.3820 N.3   221  THR221     -0.1203
     65  CA       -13.9410   18.6210  -11.5570 C.3   221  THR221      0.1994
     66  C        -14.5680   19.6030  -10.5710 C.2   221  THR221      0.2617
     67  O        -14.0180   20.6770  -10.3270 O.2   221  THR221     -0.2717
     68  CB       -14.2050   19.1370  -12.9860 C.3   221  THR221      0.1784
     69  OG1      -15.6170   19.2030  -13.2200 O.3   221  THR221     -0.2211
     70  CG2      -13.5680   18.2160  -14.0150 C.3   221  THR221      0.0376
     71  N        -15.7160   19.2300  -10.0130 N.am  222  ASN222     -0.1974
     72  CA       -16.4830   20.1170   -9.1410 C.3   222  ASN222      0.1688
     73  C        -15.6940   20.6500   -7.9480 C.2   222  ASN222      0.2292
     74  O        -15.6740   21.8550   -7.7040 O.2   222  ASN222     -0.2864
     75  CB       -17.7390   19.4030   -8.6350 C.3   222  ASN222      0.1181
     76  CG       -18.7860   19.2270   -9.7180 C.2   222  ASN222      0.2629
     77  OD1      -18.7950   19.9510  -10.7130 O.2   222  ASN222     -0.2716
     78  ND2      -19.6770   18.2620   -9.5260 N.am  222  ASN222     -0.0877
     79  N        -13.1720   23.1650   -9.0520 N.3   225  ILE225     -0.1245
     80  CA       -13.8940   24.3650   -9.4570 C.3   225  ILE225      0.1561
     81  C        -14.3930   25.1190   -8.2280 C.2   225  ILE225      0.2260
     82  O        -14.2780   26.3430   -8.1500 O.2   225  ILE225     -0.2867
     83  CB       -15.0870   24.0290  -10.3780 C.3   225  ILE225      0.0252
     84  CG1      -14.5900   23.5530  -11.7440 C.3   225  ILE225      0.0019
     85  CG2      -15.9970   25.2370  -10.5480 C.3   225  ILE225      0.0019
     86  CD1      -15.6980   23.3210  -12.7510 C.3   225  ILE225      0.0001
     87  N        -21.6630   26.6390  -11.1350 N.3   242  ARG242     -0.1231
     88  CA       -20.3780   26.1180  -11.5950 C.3   242  ARG242      0.1694
     89  C        -20.2620   26.1760  -13.1130 C.2   242  ARG242      0.2591
     90  O        -19.2290   26.5710  -13.6540 O.2   242  ARG242     -0.2718
     91  CB       -20.1750   24.6750  -11.1280 C.3   242  ARG242      0.0321
     92  CG       -20.0870   24.4860   -9.6250 C.3   242  ARG242      0.0489
     93  CD       -19.6010   23.0810   -9.3010 C.3   242  ARG242      0.2205
     94  NE       -19.8530   22.7070   -7.9140 N.pl3 242  ARG242     -0.0865
     95  CZ       -20.9520   22.0860   -7.4980 C.cat 242  ARG242      0.5346
     96  NH1      -21.9040   21.7700   -8.3650 N.pl3 242  ARG242      0.1354
     97  NH2      -21.0990   21.7800   -6.2160 N.pl3 242  ARG242      0.1354
     98  N        -21.3320   25.7710  -13.7900 N.am  243  GLU243     -0.1979
     99  CA       -21.3670   25.7370  -15.2470 C.3   243  GLU243      0.1602
    100  C        -21.1740   27.1250  -15.8470 C.2   243  GLU243      0.2287
    101  O        -20.4830   27.2860  -16.8540 O.2   243  GLU243     -0.2864
    102  CB       -22.6890   25.1400  -15.7310 C.3   243  GLU243      0.0415
    103  CG       -22.7500   24.8990  -17.2270 C.3   243  GLU243      0.1163
    104  CD       -22.9600   23.4380  -17.5680 C.2   243  GLU243      0.3649
    105  OE1      -23.4430   22.6880  -16.6940 O.co2 243  GLU243     -0.2457
    106  OE2      -22.6390   23.0390  -18.7060 O.co2 243  GLU243     -0.2457
    107  N        -17.7430   28.0640  -16.1740 N.3   246  ILE246     -0.1245
    108  CA       -17.0540   27.3100  -17.2140 C.3   246  ILE246      0.1561
    109  C        -17.2570   27.9220  -18.6000 C.2   246  ILE246      0.2260
    110  O        -16.2870   28.2050  -19.3020 O.2   246  ILE246     -0.2867
    111  CB       -17.5160   25.8410  -17.2380 C.3   246  ILE246      0.0252
    112  CG1      -16.9000   25.0770  -16.0650 C.3   246  ILE246      0.0019
    113  CG2      -17.1220   25.1790  -18.5500 C.3   246  ILE246      0.0019
    114  CD1      -15.3880   25.0070  -16.1110 C.3   246  ILE246      0.0001
    115  N        -13.9310   30.1970  -18.5280 N.3   250  VAL250     -0.1231
    116  CA       -12.9880   29.1210  -18.8240 C.3   250  VAL250      0.1692
    117  C        -13.0280   28.6250  -20.2680 C.2   250  VAL250      0.2591
    118  O        -12.0080   28.6360  -20.9570 O.2   250  VAL250     -0.2718
    119  CB       -13.2240   27.9160  -17.8960 C.3   250  VAL250      0.0266
    120  CG1      -12.2900   26.7740  -18.2600 C.3   250  VAL250      0.0020
    121  CG2      -13.0310   28.3250  -16.4500 C.3   250  VAL250      0.0020
    122  N        -14.2040   28.1880  -20.7130 N.am  251  MET251     -0.1979
    123  CA       -14.3690   27.5580  -22.0280 C.3   251  MET251      0.1605
    124  C        -13.7390   28.3230  -23.2070 C.2   251  MET251      0.2287
    125  O        -13.2200   27.6940  -24.1300 O.2   251  MET251     -0.2864
    126  CB       -15.8590   27.3180  -22.3070 C.3   251  MET251      0.0413
    127  CG       -16.1300   26.2740  -23.3790 C.3   251  MET251      0.0598
    128  SD       -17.8110   25.6210  -23.3260 S.3   251  MET251     -0.1393
    129  CE       -18.7630   27.0840  -23.7200 C.3   251  MET251      0.0692
    130  N         -9.6740   27.8380  -22.9650 N.3   254  VAL254     -0.1231
    131  CA        -9.2910   26.4570  -23.2380 C.3   254  VAL254      0.1692
    132  C         -9.1570   26.1910  -24.7340 C.2   254  VAL254      0.2591
    133  O         -8.2010   25.5550  -25.1790 O.2   254  VAL254     -0.2718
    134  CB       -10.3120   25.4670  -22.6410 C.3   254  VAL254      0.0266
    135  CG1      -10.0460   24.0520  -23.1320 C.3   254  VAL254      0.0020
    136  CG2      -10.2790   25.5290  -21.1220 C.3   254  VAL254      0.0020
    137  N        -10.1110   26.6900  -25.5120 N.am  255  GLU255     -0.1979
    138  CA       -10.1180   26.4260  -26.9440 C.3   255  GLU255      0.1602
    139  C         -9.0190   27.1930  -27.6740 C.2   255  GLU255      0.2287
    140  O         -8.5040   26.7210  -28.6830 O.2   255  GLU255     -0.2864
    141  CB       -11.4880   26.7520  -27.5400 C.3   255  GLU255      0.0415
    142  CG       -12.1930   25.5310  -28.1110 C.3   255  GLU255      0.1163
    143  CD       -13.6870   25.7300  -28.2540 C.2   255  GLU255      0.3649
    144  OE1      -14.0980   26.6690  -28.9670 O.co2 255  GLU255     -0.2457
    145  OE2      -14.4510   24.9400  -27.6600 O.co2 255  GLU255     -0.2457
    146  N        -14.2470   12.8280  -21.8450 N.3   313  GLY313     -0.1210
    147  CA       -15.0310   13.6170  -20.9120 C.3   313  GLY313      0.1956
    148  C        -14.6360   15.0810  -20.9230 C.2   313  GLY313      0.2612
    149  O        -13.7470   15.4870  -21.6710 O.2   313  GLY313     -0.2717
    150  N        -15.2980   15.8750  -20.0890 N.am  314  GLY314     -0.1942
    151  CA       -15.0230   17.2980  -20.0180 C.3   314  GLY314      0.2014
    152  C        -13.8480   17.6270  -19.1180 C.2   314  GLY314      0.2639
    153  O        -13.3030   18.7300  -19.1770 O.2   314  GLY314     -0.2714
    154  N        -13.4590   16.6700  -18.2800 N.am  315  GLY315     -0.1954
    155  CA       -12.3140   16.8400  -17.4040 C.3   315  GLY315      0.1869
    156  C        -11.0410   17.0430  -18.2000 C.2   315  GLY315      0.2309
    157  O        -10.0790   17.6430  -17.7200 O.2   315  GLY315     -0.2863
    158  N        -11.0320   18.7950  -21.0670 N.3   317  LEU317     -0.1231
    159  CA       -11.1050   20.1880  -21.4920 C.3   317  LEU317      0.1693
    160  C        -10.8240   21.1460  -20.3380 C.2   317  LEU317      0.2592
    161  O        -10.1630   22.1680  -20.5180 O.2   317  LEU317     -0.2718
    162  CB       -12.4750   20.4850  -22.1040 C.3   317  LEU317      0.0284
    163  CG       -12.7100   19.8550  -23.4780 C.3   317  LEU317      0.0019
    164  CD1      -14.1300   20.0990  -23.9630 C.3   317  LEU317      0.0001
    165  CD2      -11.7020   20.3880  -24.4800 C.3   317  LEU317      0.0001
    166  N        -11.3270   20.8110  -19.1540 N.am  318  PHE318     -0.1976
    167  CA       -11.0880   21.6300  -17.9710 C.3   318  PHE318      0.1639
    168  C         -9.6130   21.6340  -17.5890 C.2   318  PHE318      0.2290
    169  O         -9.0100   22.6920  -17.4250 O.2   318  PHE318     -0.2864
    170  CB       -11.9310   21.1400  -16.7920 C.3   318  PHE318      0.0560
    171  CG       -11.5720   21.7850  -15.4830 C.ar  318  PHE318     -0.0200
    172  CD1      -11.8450   23.1240  -15.2550 C.ar  318  PHE318     -0.0042
    173  CD2      -10.9590   21.0520  -14.4800 C.ar  318  PHE318     -0.0042
    174  CE1      -11.5140   23.7190  -14.0510 C.ar  318  PHE318     -0.0003
    175  CE2      -10.6260   21.6410  -13.2740 C.ar  318  PHE318     -0.0003
    176  CZ       -10.9040   22.9760  -13.0600 C.ar  318  PHE318     -0.0000
    177  N        -12.9130   18.9290  -28.8090 N.3   339  GLN339     -0.1245
    178  CA       -14.0220   19.7040  -28.2720 C.3   339  GLN339      0.1566
    179  C        -15.1750   18.7560  -27.9720 C.2   339  GLN339      0.2260
    180  O        -16.0120   19.0180  -27.1140 O.2   339  GLN339     -0.2867
    181  CB       -14.4630   20.7950  -29.2520 C.3   339  GLN339      0.0367
    182  CG       -13.3310   21.6500  -29.8050 C.3   339  GLN339      0.0905
    183  CD       -12.6110   20.9840  -30.9630 C.2   339  GLN339      0.2608
    184  OE1      -12.9520   19.8690  -31.3610 O.2   339  GLN339     -0.2717
    185  NE2      -11.6100   21.6630  -31.5080 N.am  339  GLN339     -0.0878
    186  N        -16.3300   15.9040  -24.1450 N.3   342  ALA342     -0.1245
    187  CA       -17.3810   15.8330  -23.1350 C.3   342  ALA342      0.1562
    188  C        -18.5040   14.8850  -23.5460 C.2   342  ALA342      0.2260
    189  O        -19.0060   14.1150  -22.7290 O.2   342  ALA342     -0.2867
    190  CB       -17.9410   17.2220  -22.8600 C.3   342  ALA342      0.0290
@<TRIPOS>BOND
     1   185   183   am
     2   184   183    2
     3   183   182    1
     4   182   181    1
     5   181   178    1
     6   144   143   ar
     7   177   178    1
     8   140   139    2
     9   178   179    1
    10   143   142    1
    11   143   145   ar
    12   142   141    1
    13   179   180    2
    14   139   138    1
    15   141   138    1
    16   138   137    1
    17   137   132   am
    18   133   132    2
    19   132   131    1
    20   165   163    1
    21   186   187    1
    22   125   124    2
    23   164   163    1
    24   129   128    1
    25   188   187    1
    26   188   189    2
    27    32    33    2
    28    32    31    1
    29   163   162    1
    30   127   128    1
    31   127   126    1
    32   131   130    1
    33   131   134    1
    34   124   123    1
    35   187   190    1
    36   135   134    1
    37   134   136    1
    38     1     2    1
    39    31    34    1
    40    31    30    1
    41    34    35    1
    42   126   123    1
    43   162   159    1
    44   123   122    1
    45   146   147    1
    46   149   148    2
    47     5     2    1
    48     5     6    1
    49   159   158    1
    50   159   160    1
    51    35    36    1
    52    36    37    1
    53     2     3    1
    54   118   117    2
    55   148   147    1
    56   148   150   am
    57    37    38    1
    58   122   117   am
    59   161   160    2
    60     6     8   ar
    61     6     7   ar
    62    46    44   ar
    63   160   166   am
    64   117   116    1
    65   150   151    1
    66     3     4    2
    67   151   152    1
    68    29    28    1
    69   110   109    2
    70    44    43    1
    71    44    45   ar
    72   153   152    2
    73   166   167    1
    74   152   154   am
    75   116   115    1
    76   116   119    1
    77    43    40    1
    78   106   104   ar
    79    28    27    1
    80    40    39    1
    81    40    41    1
    82   109   108    1
    83   113   111    1
    84   154   155    1
    85   120   119    1
    86   156   157    2
    87   156   155    1
    88    27    26    1
    89   167   168    1
    90   167   170    1
    91   119   121    1
    92    47    41   am
    93    47    48    1
    94   168   169    2
    95   104   103    1
    96   104   105   ar
    97    53    52    1
    98    41    42    2
    99    23    24    2
   100    23    22    1
   101    52    51    1
   102    52    54    1
   103    25    26    1
   104    25    22    1
   105   111   108    1
   106   111   112    1
   107    50    49    2
   108   103   102    1
   109   108   107    1
   110    51    48    1
   111   101   100    2
   112   170   171    1
   113    48    49    1
   114    22    21    1
   115    49    55   am
   116     9    10    1
   117   114   112    1
   118   100    99    1
   119   102    99    1
   120   171   172   ar
   121   171   173   ar
   122    55    56    1
   123    21    15   am
   124   172   174   ar
   125    99    98    1
   126    56    57    1
   127    10    11    1
   128   173   175   ar
   129    20    18    1
   130    16    15    2
   131    57    59   am
   132    57    58    2
   133    15    14    1
   134   174   176   ar
   135    12    11    2
   136    70    68    1
   137    59    60    1
   138    98    89   am
   139    90    89    2
   140    18    17    1
   141    63    60    1
   142   175   176   ar
   143    69    68    1
   144    89    88    1
   145    60    61    1
   146    68    65    1
   147    14    13    1
   148    14    17    1
   149    86    84    1
   150    17    19    1
   151    84    83    1
   152    61    62    2
   153    88    87    1
   154    88    91    1
   155    65    64    1
   156    65    66    1
   157    91    92    1
   158    77    76    2
   159    66    67    2
   160    66    71   am
   161    85    83    1
   162    83    80    1
   163    71    72    1
   164    76    78   am
   165    76    75    1
   166    92    93    1
   167    80    79    1
   168    80    81    1
   169    93    94    1
   170    72    75    1
   171    72    73    1
   172    96    95    1
   173    81    82    2
   174    73    74    2
   175    94    95    2
   176    95    97    1
