@<TRIPOS>MOLECULE
tmp/4xi3B00.pdb
 223 213 0 0 0
SMALL
GASTEIGER

@<TRIPOS>ATOM
      1  N        -22.5690   -3.5130  -27.7540 N.3    37  MET37      -0.1245
      2  CA       -21.9660   -4.4920  -28.6520 C.3    37  MET37       0.1570
      3  C        -20.8940   -3.8270  -29.5020 C.2    37  MET37       0.2261
      4  O        -19.9480   -4.4780  -29.9420 O.2    37  MET37      -0.2867
      5  CB       -23.0190   -5.1530  -29.5410 C.3    37  MET37       0.0387
      6  CG       -23.7230   -6.3230  -28.8760 C.3    37  MET37       0.0595
      7  SD       -22.5880   -7.5270  -28.1500 S.3    37  MET37      -0.1393
      8  CE       -21.6830   -8.0800  -29.5930 C.3    37  MET37       0.0692
      9  N        -17.6880   -3.5480  -27.0280 N.3    40  LEU40      -0.1231
     10  CA       -17.0830   -4.8480  -26.7510 C.3    40  LEU40       0.1693
     11  C        -16.3960   -5.4170  -27.9860 C.2    40  LEU40       0.2592
     12  O        -15.3000   -5.9700  -27.8920 O.2    40  LEU40      -0.2718
     13  CB       -18.1270   -5.8350  -26.2280 C.3    40  LEU40       0.0284
     14  CG       -18.6590   -5.5580  -24.8210 C.3    40  LEU40       0.0019
     15  CD1      -19.6460   -6.6330  -24.3950 C.3    40  LEU40       0.0001
     16  CD2      -17.5180   -5.4470  -23.8270 C.3    40  LEU40       0.0001
     17  N        -17.0410   -5.2750  -29.1400 N.am   41  THR41      -0.1953
     18  CA       -16.4650   -5.7350  -30.3980 C.3    41  THR41       0.1897
     19  C        -15.1660   -4.9880  -30.6570 C.2    41  THR41       0.2313
     20  O        -14.1550   -5.5890  -31.0190 O.2    41  THR41      -0.2863
     21  CB       -17.4280   -5.5310  -31.5810 C.3    41  THR41       0.1794
     22  OG1      -18.6210   -6.2920  -31.3590 O.3    41  THR41      -0.2208
     23  CG2      -16.7830   -5.9880  -32.8820 C.3    41  THR41       0.0378
     24  N        -13.2640   -3.6130  -28.4220 N.3    43  LEU43      -0.1231
     25  CA       -12.3110   -4.1060  -27.4350 C.3    43  LEU43       0.1693
     26  C        -11.7080   -5.4440  -27.8560 C.2    43  LEU43       0.2592
     27  O        -10.4910   -5.6340  -27.7970 O.2    43  LEU43      -0.2718
     28  CB       -12.9810   -4.2370  -26.0670 C.3    43  LEU43       0.0284
     29  CG       -12.1480   -4.8620  -24.9460 C.3    43  LEU43       0.0019
     30  CD1      -10.8560   -4.0960  -24.7210 C.3    43  LEU43       0.0001
     31  CD2      -12.9590   -4.9150  -23.6630 C.3    43  LEU43       0.0001
     32  N        -12.5680   -6.3680  -28.2710 N.am   44  ALA44      -0.1966
     33  CA       -12.1300   -7.6940  -28.6890 C.3    44  ALA44       0.1728
     34  C        -11.1980   -7.6070  -29.8930 C.2    44  ALA44       0.2616
     35  O        -10.2390   -8.3710  -30.0010 O.2    44  ALA44      -0.2715
     36  CB       -13.3290   -8.5750  -29.0070 C.3    44  ALA44       0.0334
     37  N        -11.4830   -6.6700  -30.7920 N.am   45  ASP45      -0.1971
     38  CA       -10.6730   -6.4870  -31.9920 C.3    45  ASP45       0.1709
     39  C         -9.2530   -6.0380  -31.6610 C.2    45  ASP45       0.2293
     40  O         -8.2920   -6.4750  -32.2960 O.2    45  ASP45      -0.2864
     41  CB       -11.3330   -5.4770  -32.9320 C.3    45  ASP45       0.1436
     42  CG       -12.6120   -6.0070  -33.5510 C.2    45  ASP45       0.3671
     43  OD1      -12.7260   -7.2400  -33.7150 O.co2  45  ASP45      -0.2456
     44  OD2      -13.5040   -5.1930  -33.8680 O.co2  45  ASP45      -0.2456
     45  N         -7.7320   -6.5380  -28.7270 N.3    47  GLU47      -0.1231
     46  CA        -7.0480   -7.5430  -27.9200 C.3    47  GLU47       0.1699
     47  C         -6.4460   -8.6440  -28.7740 C.2    47  GLU47       0.2592
     48  O         -5.4830   -9.2910  -28.3670 O.2    47  GLU47      -0.2718
     49  CB        -7.9770   -8.1590  -26.8790 C.3    47  GLU47       0.0402
     50  CG        -8.3410   -7.2230  -25.7540 C.3    47  GLU47       0.1161
     51  CD        -8.3770   -7.9440  -24.4260 C.2    47  GLU47       0.3649
     52  OE1       -9.3940   -7.8420  -23.7090 O.co2  47  GLU47      -0.2457
     53  OE2       -7.3680   -8.6040  -24.0940 O.co2  47  GLU47      -0.2457
     54  N         -7.0320   -8.8710  -29.9430 N.am   48  LEU48      -0.1980
     55  CA        -6.5760   -9.9350  -30.8250 C.3    48  LEU48       0.1596
     56  C         -5.1200   -9.7170  -31.2380 C.2    48  LEU48       0.2287
     57  O         -4.3420  -10.6660  -31.3040 O.2    48  LEU48      -0.2864
     58  CB        -7.4740  -10.0390  -32.0570 C.3    48  LEU48       0.0297
     59  CG        -7.1160  -11.2180  -32.9600 C.3    48  LEU48       0.0022
     60  CD1       -7.3190  -12.5170  -32.1980 C.3    48  LEU48       0.0001
     61  CD2       -7.9470  -11.2070  -34.2260 C.3    48  LEU48       0.0001
     62  N         -9.1480  -18.6770  -29.9920 N.3    77  TRP77      -0.1227
     63  CA        -9.1460  -17.2260  -29.7520 C.3    77  TRP77       0.1737
     64  C        -10.2330  -16.7560  -28.7810 C.2    77  TRP77       0.2595
     65  O         -9.9770  -15.8970  -27.9360 O.2    77  TRP77      -0.2718
     66  CB        -9.2690  -16.4600  -31.0780 C.3    77  TRP77       0.0564
     67  CG       -10.6230  -16.5020  -31.7050 C.ar   77  TRP77       0.0003
     68  CD1      -11.0910  -17.4390  -32.5760 C.ar   77  TRP77       0.0946
     69  CD2      -11.6790  -15.5480  -31.5350 C.ar   77  TRP77       0.0152
     70  NE1      -12.3790  -17.1400  -32.9450 N.ar   77  TRP77      -0.2442
     71  CE2      -12.7620  -15.9820  -32.3230 C.ar   77  TRP77       0.0810
     72  CE3      -11.8150  -14.3740  -30.7880 C.ar   77  TRP77       0.0012
     73  CZ2      -13.9660  -15.2840  -32.3860 C.ar   77  TRP77       0.0191
     74  CZ3      -13.0120  -13.6820  -30.8520 C.ar   77  TRP77       0.0001
     75  CH2      -14.0720  -14.1400  -31.6450 C.ar   77  TRP77       0.0015
     76  N        -11.4340  -17.3170  -28.8890 N.am   78  LEU78      -0.1980
     77  CA       -12.5390  -16.8900  -28.0360 C.3    78  LEU78       0.1596
     78  C        -12.4010  -17.4520  -26.6230 C.2    78  LEU78       0.2287
     79  O        -12.7350  -16.7790  -25.6480 O.2    78  LEU78      -0.2864
     80  CB       -13.8830  -17.2990  -28.6420 C.3    78  LEU78       0.0297
     81  CG       -15.1260  -16.8600  -27.8630 C.3    78  LEU78       0.0022
     82  CD1      -15.1290  -15.3530  -27.6400 C.3    78  LEU78       0.0001
     83  CD2      -16.3900  -17.2950  -28.5880 C.3    78  LEU78       0.0001
     84  N         -9.8590  -15.1760  -24.9230 N.3    81  LEU81      -0.1231
     85  CA       -10.5250  -13.9380  -24.5380 C.3    81  LEU81       0.1693
     86  C        -11.3320  -14.1590  -23.2620 C.2    81  LEU81       0.2591
     87  O        -11.3220  -13.3270  -22.3520 O.2    81  LEU81      -0.2718
     88  CB       -11.4360  -13.4360  -25.6620 C.3    81  LEU81       0.0284
     89  CG       -10.8200  -12.4360  -26.6490 C.3    81  LEU81       0.0019
     90  CD1      -11.8960  -11.8010  -27.5250 C.3    81  LEU81       0.0001
     91  CD2       -9.9840  -11.3730  -25.9470 C.3    81  LEU81       0.0001
     92  N        -12.0250  -15.2910  -23.2090 N.am   82  MET82      -0.1979
     93  CA       -12.9320  -15.6000  -22.1120 C.3    82  MET82       0.1605
     94  C        -12.2260  -15.9250  -20.7940 C.2    82  MET82       0.2287
     95  O        -12.6760  -15.4890  -19.7370 O.2    82  MET82      -0.2864
     96  CB       -13.8440  -16.7620  -22.5080 C.3    82  MET82       0.0413
     97  CG       -14.9920  -16.3460  -23.4170 C.3    82  MET82       0.0598
     98  SD       -16.1370  -17.6870  -23.7970 S.3    82  MET82      -0.1393
     99  CE       -17.4350  -16.7940  -24.6510 C.3    82  MET82       0.0692
    100  N        -10.8550  -12.6900  -19.4610 N.3    85  LEU85      -0.1245
    101  CA       -11.9440  -11.9390  -18.8500 C.3    85  LEU85       0.1561
    102  C        -12.2720  -12.4960  -17.4690 C.2    85  LEU85       0.2260
    103  O        -12.4390  -11.7450  -16.5070 O.2    85  LEU85      -0.2867
    104  CB       -13.1890  -11.9760  -19.7360 C.3    85  LEU85       0.0270
    105  CG       -14.4340  -11.3750  -19.0810 C.3    85  LEU85       0.0019
    106  CD1      -14.2310   -9.8930  -18.8310 C.3    85  LEU85       0.0001
    107  CD2      -15.6760  -11.6140  -19.9120 C.3    85  LEU85       0.0001
    108  N         -9.4230  -11.6140  -14.8060 N.3    88  ARG88      -0.1245
    109  CA        -9.4000  -10.2430  -14.3000 C.3    88  ARG88       0.1563
    110  C        -10.7290   -9.8230  -13.6870 C.2    88  ARG88       0.2260
    111  O        -10.8610   -8.7140  -13.1820 O.2    88  ARG88      -0.2867
    112  CB        -9.0140   -9.2580  -15.4090 C.3    88  ARG88       0.0307
    113  CG        -9.9140   -9.2650  -16.6370 C.3    88  ARG88       0.0489
    114  CD        -9.4330   -8.2330  -17.6550 C.3    88  ARG88       0.2205
    115  NE       -10.3330   -8.0990  -18.7980 N.pl3  88  ARG88      -0.0865
    116  CZ       -10.1420   -8.6890  -19.9740 C.cat  88  ARG88       0.5346
    117  NH1       -9.0720   -9.4470  -20.1710 N.pl3  88  ARG88       0.1354
    118  NH2      -11.0140   -8.5120  -20.9580 N.pl3  88  ARG88       0.1354
    119  N        -14.4540   -6.4050  -18.3130 N.3    98  PHE98      -0.1241
    120  CA       -14.0350   -6.3860  -19.7050 C.3    98  PHE98       0.1605
    121  C        -12.8600   -5.4310  -19.8640 C.2    98  PHE98       0.2264
    122  O        -11.9010   -5.7140  -20.5810 O.2    98  PHE98      -0.2867
    123  CB       -15.1990   -5.9800  -20.6090 C.3    98  PHE98       0.0534
    124  CG       -16.2870   -7.0130  -20.6980 C.ar   98  PHE98      -0.0203
    125  CD1      -17.3040   -7.0570  -19.7580 C.ar   98  PHE98      -0.0042
    126  CD2      -16.2910   -7.9430  -21.7240 C.ar   98  PHE98      -0.0042
    127  CE1      -18.3070   -8.0090  -19.8430 C.ar   98  PHE98      -0.0003
    128  CE2      -17.2890   -8.8950  -21.8140 C.ar   98  PHE98      -0.0003
    129  CZ       -18.2980   -8.9290  -20.8720 C.ar   98  PHE98      -0.0000
    130  N        -27.4690  -12.5250  -24.0940 N.3   115  MET115     -0.1245
    131  CA       -26.1600  -12.3690  -23.4630 C.3   115  MET115      0.1570
    132  C        -26.1270  -12.7140  -21.9670 C.2   115  MET115      0.2261
    133  O        -25.1200  -13.2230  -21.4720 O.2   115  MET115     -0.2867
    134  CB       -25.6480  -10.9480  -23.6830 C.3   115  MET115      0.0387
    135  CG       -24.2890  -10.6630  -23.0840 C.3   115  MET115      0.0595
    136  SD       -23.5690   -9.1700  -23.7820 S.3   115  MET115     -0.1393
    137  CE       -23.1260   -9.7700  -25.4100 C.3   115  MET115      0.0692
    138  N        -24.8200  -16.1430  -21.0710 N.3   118  ILE118     -0.1231
    139  CA       -23.3770  -16.2880  -21.1890 C.3   118  ILE118      0.1692
    140  C        -22.6940  -15.5690  -20.0280 C.2   118  ILE118      0.2592
    141  O        -21.6750  -16.0340  -19.5110 O.2   118  ILE118     -0.2718
    142  CB       -22.8880  -15.7600  -22.5400 C.3   118  ILE118      0.0266
    143  CG1      -23.4740  -16.6140  -23.6630 C.3   118  ILE118      0.0019
    144  CG2      -21.3680  -15.6770  -22.5790 C.3   118  ILE118      0.0020
    145  CD1      -23.6280  -15.8700  -24.9340 C.3   118  ILE118      0.0001
    146  N        -23.2680  -14.4390  -19.6200 N.am  119  PHE119     -0.1976
    147  CA       -22.7730  -13.7000  -18.4640 C.3   119  PHE119      0.1639
    148  C        -22.7480  -14.5830  -17.2380 C.2   119  PHE119      0.2290
    149  O        -21.7760  -14.5970  -16.4850 O.2   119  PHE119     -0.2864
    150  CB       -23.6460  -12.4810  -18.1580 C.3   119  PHE119      0.0560
    151  CG       -23.0700  -11.1730  -18.6060 C.ar  119  PHE119     -0.0200
    152  CD1      -22.7690  -10.9320  -19.9330 C.ar  119  PHE119     -0.0042
    153  CD2      -22.8250  -10.1770  -17.6740 C.ar  119  PHE119     -0.0042
    154  CE1      -22.2360   -9.7140  -20.3230 C.ar  119  PHE119     -0.0003
    155  CE2      -22.2940   -8.9630  -18.0550 C.ar  119  PHE119     -0.0003
    156  CZ       -21.9980   -8.7300  -19.3820 C.ar  119  PHE119     -0.0000
    157  N        -19.9300  -17.0200  -17.4160 N.3   122  LEU122     -0.1245
    158  CA       -18.6450  -16.3650  -17.1860 C.3   122  LEU122      0.1561
    159  C        -18.4690  -15.9660  -15.7230 C.2   122  LEU122      0.2260
    160  O        -17.3900  -16.1370  -15.1540 O.2   122  LEU122     -0.2867
    161  CB       -18.4940  -15.1440  -18.0950 C.3   122  LEU122      0.0270
    162  CG       -18.4170  -15.4690  -19.5890 C.3   122  LEU122      0.0019
    163  CD1      -18.6000  -14.2190  -20.4340 C.3   122  LEU122      0.0001
    164  CD2      -17.0970  -16.1530  -19.9210 C.3   122  LEU122      0.0001
    165  N        -20.8090  -18.9790  -26.9440 N.3   211  GLY211     -0.1225
    166  CA       -20.4300  -17.6350  -27.3270 C.3   211  GLY211      0.1811
    167  C        -20.5190  -17.3820  -28.8210 C.2   211  GLY211      0.2280
    168  O        -21.0800  -16.3750  -29.2460 O.2   211  GLY211     -0.2866
    169  N        -24.1640  -17.2630  -30.1120 N.3   214  HIS214     -0.1226
    170  CA       -24.7800  -16.0000  -29.7150 C.3   214  HIS214      0.1752
    171  C        -24.3210  -14.8470  -30.6160 C.2   214  HIS214      0.2595
    172  O        -25.1170  -13.9880  -31.0020 O.2   214  HIS214     -0.2718
    173  CB       -24.4730  -15.6940  -28.2540 C.3   214  HIS214      0.0759
    174  CG       -24.9940  -14.3710  -27.7870 C.ar  214  HIS214      0.0818
    175  ND1      -24.1660  -13.3380  -27.4060 N.ar  214  HIS214     -0.2268
    176  CD2      -26.2590  -13.9100  -27.6540 C.ar  214  HIS214      0.1154
    177  CE1      -24.9010  -12.2940  -27.0620 C.ar  214  HIS214      0.1986
    178  NE2      -26.1730  -12.6180  -27.2020 N.ar  214  HIS214     -0.2212
    179  N        -23.0310  -14.8280  -30.9400 N.am  215  LEU215     -0.1980
    180  CA       -22.4680  -13.8090  -31.8290 C.3   215  LEU215      0.1596
    181  C        -23.0550  -13.9570  -33.2190 C.2   215  LEU215      0.2287
    182  O        -23.2560  -12.9680  -33.9350 O.2   215  LEU215     -0.2864
    183  CB       -20.9480  -13.8860  -31.8700 C.3   215  LEU215      0.0297
    184  CG       -20.3030  -13.4030  -30.5730 C.3   215  LEU215      0.0022
    185  CD1      -18.7970  -13.6200  -30.5840 C.3   215  LEU215      0.0001
    186  CD2      -20.6480  -11.9370  -30.3400 C.3   215  LEU215      0.0001
    187  N        -18.3540  -11.5100  -40.7050 N.3   220  ASN220     -0.1225
    188  CA       -17.0780  -11.9200  -40.1350 C.3   220  ASN220      0.1785
    189  C        -17.1190  -11.9300  -38.6000 C.2   220  ASN220      0.2597
    190  O        -17.1070  -10.8810  -37.9490 O.2   220  ASN220     -0.2718
    191  CB       -15.9850  -10.9800  -40.6570 C.3   220  ASN220      0.1169
    192  CG       -14.7320  -11.7100  -41.0920 C.2   220  ASN220      0.2627
    193  OD1      -14.2570  -12.6210  -40.4120 O.2   220  ASN220     -0.2716
    194  ND2      -14.2370  -11.3680  -42.2800 N.am  220  ASN220     -0.0877
    195  N        -17.1330  -13.1350  -38.0380 N.am  221  VAL221     -0.1966
    196  CA       -17.1830  -13.3420  -36.5930 C.3   221  VAL221      0.1727
    197  C        -15.8680  -13.9720  -36.1470 C.2   221  VAL221      0.2616
    198  O        -15.2190  -13.5030  -35.2150 O.2   221  VAL221     -0.2715
    199  CB       -18.3770  -14.2190  -36.1830 C.3   221  VAL221      0.0290
    200  CG1      -18.3070  -14.5480  -34.7010 C.3   221  VAL221      0.0023
    201  CG2      -19.6840  -13.5070  -36.5090 C.3   221  VAL221      0.0023
    202  N        -15.5030  -15.0610  -36.8170 N.am  222  VAL222     -0.1964
    203  CA       -14.2150  -15.7180  -36.6250 C.3   222  VAL222      0.1712
    204  C        -13.1480  -14.8630  -37.2920 C.2   222  VAL222      0.2458
    205  O        -13.4310  -14.1840  -38.2780 O.2   222  VAL222     -0.2730
    206  CB       -14.1740  -17.1510  -37.2140 C.3   222  VAL222      0.0289
    207  CG1      -15.2860  -18.0020  -36.6390 C.3   222  VAL222      0.0023
    208  CG2      -14.2470  -17.1200  -38.7360 C.3   222  VAL222      0.0023
    209  N        -11.9330  -14.8360  -36.7270 N.am  223  PRO223     -0.2727
    210  CA       -10.8700  -14.1520  -37.4670 C.3   223  PRO223      0.1402
    211  C        -10.6420  -14.8750  -38.7840 C.2   223  PRO223      0.2269
    212  O        -10.9580  -16.0610  -38.8700 O.2   223  PRO223     -0.2865
    213  CB        -9.6530  -14.2830  -36.5480 C.3   223  PRO223      0.0296
    214  CG        -9.9460  -15.4820  -35.7050 C.3   223  PRO223      0.0237
    215  CD       -11.4330  -15.4920  -35.5070 C.3   223  PRO223      0.0939
    216  N         -6.2110  -12.6390  -42.2130 N.3   227  LEU227     -0.1245
    217  CA        -5.9030  -11.6920  -41.1500 C.3   227  LEU227      0.1561
    218  C         -4.9860  -12.2900  -40.0830 C.2   227  LEU227      0.2260
    219  O         -4.0520  -11.6330  -39.6270 O.2   227  LEU227     -0.2867
    220  CB        -7.1870  -11.1790  -40.4990 C.3   227  LEU227      0.0270
    221  CG        -6.9610  -10.3600  -39.2290 C.3   227  LEU227      0.0019
    222  CD1       -6.4030   -9.0020  -39.5670 C.3   227  LEU227      0.0001
    223  CD2       -8.2530  -10.2250  -38.4520 C.3   227  LEU227      0.0001
@<TRIPOS>BOND
     1   194   192   am
     2   216   217    1
     3   217   220    1
     4   217   218    1
     5   192   191    1
     6   192   193    2
     7   187   188    1
     8   191   188    1
     9   220   221    1
    10   188   189    1
    11   218   219    2
    12   222   221    1
    13   221   223    1
    14   212   211    2
    15   211   210    1
    16   208   206    1
    17   189   195   am
    18   189   190    2
    19   205   204    2
    20   195   196    1
    21   210   209    1
    22   210   213    1
    23   204   209   am
    24   204   203    1
    25   206   207    1
    26   206   203    1
    27   202   203    1
    28   202   197   am
    29   209   215    1
    30   196   199    1
    31   196   197    1
    32   213   214    1
    33   201   199    1
    34   199   200    1
    35   197   198    2
    36   214   215    1
    37    61    59    1
    38   182   181    2
    39    44    42   ar
    40    43    42   ar
    41    42    41    1
    42   181   180    1
    43    59    60    1
    44    59    58    1
    45    70    68   ar
    46    70    71   ar
    47    41    38    1
    48    23    21    1
    49    68    67   ar
    50    73    71   ar
    51    73    75   ar
    52    71    69   ar
    53    40    39    2
    54    58    55    1
    55    38    39    1
    56    38    37    1
    57   183   180    1
    58   183   184    1
    59   180   179    1
    60    67    69   ar
    61    67    66    1
    62    75    74   ar
    63    21    22    1
    64    21    18    1
    65    69    72   ar
    66    57    56    2
    67    56    55    1
    68    66    63    1
    69    20    19    2
    70   172   171    2
    71   179   171   am
    72    74    72   ar
    73    55    54    1
    74    37    34   am
    75    19    18    1
    76   171   170    1
    77   185   184    1
    78   184   186    1
    79    18    17    1
    80   169   170    1
    81    35    34    2
    82    62    63    1
    83    54    47   am
    84     4     3    2
    85    34    33    1
    86    63    64    1
    87   170   173    1
    88     8     7    1
    89     5     6    1
    90     5     2    1
    91     3     2    1
    92   168   167    2
    93    17    11   am
    94    36    33    1
    95    76    64   am
    96    76    77    1
    97     6     7    1
    98   167   166    1
    99    64    65    2
   100    47    48    2
   101    47    46    1
   102    45    46    1
   103    33    32    1
   104     2     1    1
   105    80    77    1
   106    80    81    1
   107    83    81    1
   108    24    25    1
   109    32    26   am
   110   173   174    1
   111    77    78    1
   112    11    12    2
   113    11    10    1
   114    46    49    1
   115    81    82    1
   116    26    27    2
   117    26    25    1
   118   174   176   ar
   119   174   175   ar
   120   176   178   ar
   121    90    89    1
   122    25    28    1
   123   175   177   ar
   124   166   165    1
   125   178   177   ar
   126     9    10    1
   127    49    50    1
   128    10    13    1
   129    89    91    1
   130    89    88    1
   131    78    79    2
   132    13    14    1
   133    28    29    1
   134    50    51    1
   135    88    85    1
   136   137   136    1
   137    29    30    1
   138    29    31    1
   139   145   143    1
   140    84    85    1
   141    14    15    1
   142    14    16    1
   143    99    98    1
   144    85    86    1
   145    51    53   ar
   146    51    52   ar
   147   130   131    1
   148    98    97    1
   149   136   135    1
   150   134   131    1
   151   134   135    1
   152   143   142    1
   153   131   132    1
   154    97    96    1
   155    86    92   am
   156    86    87    2
   157    92    93    1
   158   144   142    1
   159   142   139    1
   160    96    93    1
   161    93    94    1
   162   132   133    2
   163   128   126   ar
   164   128   129   ar
   165   126   124   ar
   166   139   138    1
   167   139   140    1
   168   118   116    1
   169   129   127   ar
   170    94    95    2
   171   124   123    1
   172   124   125   ar
   173   123   120    1
   174   122   121    2
   175   163   162    1
   176   154   152   ar
   177   154   156   ar
   178   117   116    1
   179   140   146   am
   180   140   141    2
   181   116   115    2
   182   152   151   ar
   183   164   162    1
   184   107   105    1
   185   121   120    1
   186   127   125   ar
   187   104   105    1
   188   104   101    1
   189   120   119    1
   190   146   147    1
   191   162   161    1
   192   100   101    1
   193   156   155   ar
   194   105   106    1
   195   101   102    1
   196   115   114    1
   197   151   150    1
   198   151   153   ar
   199   147   150    1
   200   147   148    1
   201   161   158    1
   202   155   153   ar
   203   114   113    1
   204   102   103    2
   205   157   158    1
   206   148   149    2
   207   158   159    1
   208   113   112    1
   209   159   160    2
   210   112   109    1
   211   108   109    1
   212   109   110    1
   213   110   111    2
