@<TRIPOS>MOLECULE
tmp/4xi3C00.pdb
 227 216 0 0 0
SMALL
GASTEIGER

@<TRIPOS>ATOM
      1  N          1.1710  -44.3260   28.4410 N.3    38  MET38      -0.1245
      2  CA         1.8060  -43.3470   29.3080 C.3    38  MET38       0.1570
      3  C          2.9100  -44.0160   30.1170 C.2    38  MET38       0.2261
      4  O          3.8760  -43.3690   30.5080 O.2    38  MET38      -0.2867
      5  CB         0.7860  -42.6810   30.2280 C.3    38  MET38       0.0387
      6  CG         0.0790  -41.5070   29.5750 C.3    38  MET38       0.0595
      7  SD         1.2370  -40.3450   28.8220 S.3    38  MET38      -0.1393
      8  CE         2.1880  -39.8090   30.2420 C.3    38  MET38       0.0692
      9  N          5.9670  -44.3740   27.5270 N.3    41  LEU41      -0.1231
     10  CA         6.5430  -43.0590   27.2550 C.3    41  LEU41       0.1693
     11  C          7.2650  -42.4950   28.4760 C.2    41  LEU41       0.2592
     12  O          8.3490  -41.9240   28.3540 O.2    41  LEU41      -0.2718
     13  CB         5.4640  -42.0810   26.7890 C.3    41  LEU41       0.0284
     14  CG         4.8950  -42.3320   25.3930 C.3    41  LEU41       0.0019
     15  CD1        3.8640  -41.2760   25.0350 C.3    41  LEU41       0.0001
     16  CD2        6.0120  -42.3590   24.3680 C.3    41  LEU41       0.0001
     17  N          6.6580  -42.6500   29.6490 N.am   42  THR42      -0.1953
     18  CA         7.2700  -42.1900   30.8910 C.3    42  THR42       0.1897
     19  C          8.5730  -42.9320   31.1600 C.2    42  THR42       0.2313
     20  O          9.5840  -42.3220   31.5100 O.2    42  THR42      -0.2863
     21  CB         6.3270  -42.3640   32.0970 C.3    42  THR42       0.1794
     22  OG1        5.1260  -41.6140   31.8790 O.3    42  THR42      -0.2208
     23  CG2        6.9950  -41.8840   33.3770 C.3    42  THR42       0.0378
     24  N         10.4880  -44.3420   29.0010 N.3    44  LEU44      -0.1231
     25  CA        11.4380  -43.8670   27.9970 C.3    44  LEU44       0.1693
     26  C         12.0610  -42.5340   28.3800 C.2    44  LEU44       0.2592
     27  O         13.2800  -42.3730   28.3290 O.2    44  LEU44      -0.2718
     28  CB        10.7530  -43.7280   26.6350 C.3    44  LEU44       0.0284
     29  CG        11.5840  -43.1010   25.5080 C.3    44  LEU44       0.0019
     30  CD1       12.8640  -43.8790   25.2360 C.3    44  LEU44       0.0001
     31  CD2       10.7590  -42.9580   24.2370 C.3    44  LEU44       0.0001
     32  N         11.2140  -41.5850   28.7640 N.am   45  ALA45      -0.1966
     33  CA        11.6680  -40.2520   29.1390 C.3    45  ALA45       0.1728
     34  C         12.5980  -40.3010   30.3440 C.2    45  ALA45       0.2616
     35  O         13.5620  -39.5390   30.4210 O.2    45  ALA45      -0.2715
     36  CB        10.4770  -39.3480   29.4270 C.3    45  ALA45       0.0334
     37  N         12.3110  -41.2050   31.2760 N.am   46  ASP46      -0.1971
     38  CA        13.1200  -41.3350   32.4830 C.3    46  ASP46       0.1709
     39  C         14.5370  -41.7660   32.1300 C.2    46  ASP46       0.2293
     40  O         15.5090  -41.2970   32.7250 O.2    46  ASP46      -0.2864
     41  CB        12.4990  -42.3430   33.4540 C.3    46  ASP46       0.1436
     42  CG        11.1860  -41.8610   34.0410 C.2    46  ASP46       0.3671
     43  OD1       10.9870  -40.6340   34.1440 O.co2  46  ASP46      -0.2456
     44  OD2       10.3520  -42.7150   34.4100 O.co2  46  ASP46      -0.2456
     45  N         15.9250  -41.2730   29.1920 N.3    48  GLU48      -0.1231
     46  CA        16.5290  -40.2510   28.3440 C.3    48  GLU48       0.1699
     47  C         17.1720  -39.1520   29.1860 C.2    48  GLU48       0.2592
     48  O         18.1310  -38.5120   28.7540 O.2    48  GLU48      -0.2718
     49  CB        15.4930  -39.6430   27.3960 C.3    48  GLU48       0.0402
     50  CG        14.9970  -40.5920   26.3170 C.3    48  GLU48       0.1161
     51  CD        14.7390  -39.8920   24.9980 C.2    48  GLU48       0.3649
     52  OE1       13.6130  -40.0070   24.4670 O.co2  48  GLU48      -0.2457
     53  OE2       15.6630  -39.2190   24.4960 O.co2  48  GLU48      -0.2457
     54  N         16.6340  -38.9350   30.3830 N.am   49  LEU49      -0.1980
     55  CA        17.1200  -37.8850   31.2760 C.3    49  LEU49       0.1596
     56  C         18.5770  -38.0890   31.6940 C.2    49  LEU49       0.2287
     57  O         19.3480  -37.1310   31.7540 O.2    49  LEU49      -0.2864
     58  CB        16.2250  -37.7860   32.5140 C.3    49  LEU49       0.0297
     59  CG        16.5870  -36.6840   33.5100 C.3    49  LEU49       0.0022
     60  CD1       16.4750  -35.3170   32.8600 C.3    49  LEU49       0.0001
     61  CD2       15.6800  -36.7630   34.7220 C.3    49  LEU49       0.0001
     62  N         14.6830  -29.2440   30.4690 N.3    78  TRP78      -0.1227
     63  CA        14.6780  -30.6930   30.2630 C.3    78  TRP78       0.1737
     64  C         13.5860  -31.1710   29.2980 C.2    78  TRP78       0.2595
     65  O         13.8410  -32.0290   28.4560 O.2    78  TRP78      -0.2718
     66  CB        14.5530  -31.4280   31.6060 C.3    78  TRP78       0.0564
     67  CG        13.2060  -31.3420   32.2450 C.ar   78  TRP78       0.0003
     68  CD1       12.7750  -30.3920   33.1240 C.ar   78  TRP78       0.0946
     69  CD2       12.1080  -32.2410   32.0550 C.ar   78  TRP78       0.0152
     70  NE1       11.4770  -30.6450   33.4940 N.ar   78  TRP78      -0.2442
     71  CE2       11.0430  -31.7740   32.8500 C.ar   78  TRP78       0.0810
     72  CE3       11.9210  -33.3950   31.2870 C.ar   78  TRP78       0.0012
     73  CZ2        9.8100  -32.4210   32.9020 C.ar   78  TRP78       0.0191
     74  CZ3       10.6970  -34.0360   31.3390 C.ar   78  TRP78       0.0001
     75  CH2        9.6570  -33.5470   32.1410 C.ar   78  TRP78       0.0015
     76  N         12.3820  -30.6140   29.4010 N.am   79  LEU79      -0.1980
     77  CA        11.2850  -31.0540   28.5410 C.3    79  LEU79       0.1596
     78  C         11.4050  -30.4870   27.1270 C.2    79  LEU79       0.2287
     79  O         11.0730  -31.1640   26.1520 O.2    79  LEU79      -0.2864
     80  CB         9.9300  -30.6770   29.1460 C.3    79  LEU79       0.0297
     81  CG         8.7080  -31.1290   28.3380 C.3    79  LEU79       0.0022
     82  CD1        8.7420  -32.6290   28.0740 C.3    79  LEU79       0.0001
     83  CD2        7.4190  -30.7460   29.0460 C.3    79  LEU79       0.0001
     84  N         13.8690  -32.6670   25.3200 N.3    82  LEU82      -0.1231
     85  CA        13.1860  -33.8970   24.9480 C.3    82  LEU82       0.1693
     86  C         12.3940  -33.6780   23.6580 C.2    82  LEU82       0.2591
     87  O         12.4270  -34.5020   22.7400 O.2    82  LEU82      -0.2718
     88  CB        12.2500  -34.3470   26.0740 C.3    82  LEU82       0.0284
     89  CG        12.7920  -35.3150   27.1330 C.3    82  LEU82       0.0019
     90  CD1       11.6530  -35.8670   27.9860 C.3    82  LEU82       0.0001
     91  CD2       13.6230  -36.4370   26.5280 C.3    82  LEU82       0.0001
     92  N         11.7070  -32.5410   23.5990 N.am   83  MET83      -0.1979
     93  CA        10.8000  -32.2210   22.5030 C.3    83  MET83       0.1605
     94  C         11.5070  -31.9040   21.1880 C.2    83  MET83       0.2287
     95  O         11.0550  -32.3310   20.1250 O.2    83  MET83      -0.2864
     96  CB         9.9050  -31.0440   22.8970 C.3    83  MET83       0.0413
     97  CG         8.7560  -31.4370   23.8060 C.3    83  MET83       0.0598
     98  SD         7.6000  -30.1110   24.1970 S.3    83  MET83      -0.1393
     99  CE         6.3180  -31.0340   25.0430 C.3    83  MET83       0.0692
    100  N         12.7810  -35.1450   19.9580 N.3    86  LEU86      -0.1245
    101  CA        11.6870  -35.9080   19.3720 C.3    86  LEU86       0.1561
    102  C         11.3410  -35.4450   17.9570 C.2    86  LEU86       0.2260
    103  O         11.1900  -36.2660   17.0540 O.2    86  LEU86      -0.2867
    104  CB        10.4480  -35.8160   20.2660 C.3    86  LEU86       0.0270
    105  CG         9.1530  -36.4010   19.7010 C.3    86  LEU86       0.0019
    106  CD1        9.2890  -37.9000   19.4960 C.3    86  LEU86       0.0001
    107  CD2        7.9760  -36.0880   20.6130 C.3    86  LEU86       0.0001
    108  N         14.1900  -36.4360   15.2750 N.3    89  ARG89      -0.1245
    109  CA        14.2130  -37.8070   14.7770 C.3    89  ARG89       0.1563
    110  C         12.8770  -38.1870   14.1430 C.2    89  ARG89       0.2260
    111  O         12.7040  -39.3080   13.6690 O.2    89  ARG89      -0.2867
    112  CB        14.5770  -38.7960   15.8920 C.3    89  ARG89       0.0307
    113  CG        13.6670  -38.7860   17.1110 C.3    89  ARG89       0.0489
    114  CD        14.1290  -39.8280   18.1270 C.3    89  ARG89       0.2205
    115  NE        13.2100  -39.9570   19.2560 N.pl3  89  ARG89      -0.0865
    116  CZ        13.3910  -39.3790   20.4390 C.cat  89  ARG89       0.5346
    117  NH1       14.4740  -38.6470   20.6630 N.pl3  89  ARG89       0.1354
    118  NH2       12.4990  -39.5490   21.4060 N.pl3  89  ARG89       0.1354
    119  N          9.1930  -41.5350   18.9190 N.3    99  PHE99      -0.1241
    120  CA         9.6730  -41.5020   20.2950 C.3    99  PHE99       0.1605
    121  C         10.8580  -42.4470   20.4370 C.2    99  PHE99       0.2264
    122  O         11.8420  -42.1470   21.1130 O.2    99  PHE99      -0.2867
    123  CB         8.5580  -41.8780   21.2710 C.3    99  PHE99       0.0534
    124  CG         7.4750  -40.8440   21.3810 C.ar   99  PHE99      -0.0203
    125  CD1        7.5400  -39.8580   22.3520 C.ar   99  PHE99      -0.0042
    126  CD2        6.3940  -40.8550   20.5160 C.ar   99  PHE99      -0.0042
    127  CE1        6.5470  -38.9040   22.4600 C.ar   99  PHE99      -0.0003
    128  CE2        5.3950  -39.9010   20.6190 C.ar   99  PHE99      -0.0003
    129  CZ         5.4730  -38.9250   21.5920 C.ar   99  PHE99      -0.0000
    130  N         -3.7090  -35.3130   24.5910 N.3   116  MET116     -0.1245
    131  CA        -2.3460  -35.4710   24.1000 C.3   116  MET116      0.1570
    132  C         -2.2720  -35.0830   22.6320 C.2   116  MET116      0.2261
    133  O         -1.2620  -34.5430   22.1790 O.2   116  MET116     -0.2867
    134  CB        -1.8530  -36.9050   24.3000 C.3   116  MET116      0.0387
    135  CG        -0.4310  -37.1500   23.8140 C.3   116  MET116      0.0595
    136  SD         0.2350  -38.7070   24.4240 S.3   116  MET116     -0.1393
    137  CE         0.4980  -38.2940   26.1430 C.3   116  MET116      0.0692
    138  N         -1.2210  -31.6880   22.1260 N.3   119  ILE119     -0.1245
    139  CA         0.2200  -31.6070   22.3290 C.3   119  ILE119      0.1561
    140  C          0.9220  -32.2770   21.1550 C.2   119  ILE119      0.2260
    141  O          1.9570  -31.8120   20.6750 O.2   119  ILE119     -0.2867
    142  CB         0.6350  -32.2720   23.6680 C.3   119  ILE119      0.0252
    143  CG1        0.8240  -31.2100   24.7540 C.3   119  ILE119      0.0019
    144  CG2        1.9240  -33.0680   23.5190 C.3   119  ILE119      0.0019
    145  CD1       -0.4080  -30.3810   25.0360 C.3   119  ILE119      0.0001
    146  N          3.7580  -30.7570   17.9190 N.3   123  LEU123     -0.1245
    147  CA         5.0200  -31.4410   17.6780 C.3   123  LEU123      0.1561
    148  C          5.1940  -31.7880   16.2020 C.2   123  LEU123      0.2260
    149  O          6.2860  -31.6410   15.6520 O.2   123  LEU123     -0.2867
    150  CB         5.1030  -32.7070   18.5350 C.3   123  LEU123      0.0270
    151  CG         5.1420  -32.4770   20.0480 C.3   123  LEU123      0.0019
    152  CD1        4.8800  -33.7680   20.7990 C.3   123  LEU123      0.0001
    153  CD2        6.4750  -31.8810   20.4650 C.3   123  LEU123      0.0001
    154  N          2.7920  -28.8570   27.3770 N.3   212  GLY212     -0.1225
    155  CA         3.0900  -30.2320   27.7360 C.3   212  GLY212      0.1811
    156  C          3.0310  -30.4500   29.2320 C.2   212  GLY212      0.2280
    157  O          2.4560  -31.4300   29.7070 O.2   212  GLY212     -0.2866
    158  N         -0.4400  -30.5450   30.3530 N.3   215  HIS215     -0.1226
    159  CA        -1.0420  -31.8090   29.9750 C.3   215  HIS215      0.1752
    160  C         -0.6010  -32.9260   30.9210 C.2   215  HIS215      0.2595
    161  O         -1.4050  -33.7710   31.3130 O.2   215  HIS215     -0.2718
    162  CB        -0.6960  -32.1910   28.5420 C.3   215  HIS215      0.0759
    163  CG        -1.2180  -33.5350   28.1540 C.ar  215  HIS215      0.0818
    164  ND1       -0.3980  -34.6120   27.8940 N.ar  215  HIS215     -0.2268
    165  CD2       -2.4860  -33.9860   28.0250 C.ar  215  HIS215      0.1154
    166  CE1       -1.1420  -35.6660   27.6090 C.ar  215  HIS215      0.1986
    167  NE2       -2.4120  -35.3110   27.6800 N.ar  215  HIS215     -0.2212
    168  N          0.6790  -32.9310   31.2850 N.am  216  LEU216     -0.1980
    169  CA         1.1720  -33.9480   32.2040 C.3   216  LEU216      0.1596
    170  C          0.5310  -33.7490   33.5730 C.2   216  LEU216      0.2287
    171  O          0.0450  -34.7020   34.1800 O.2   216  LEU216     -0.2864
    172  CB         2.7000  -33.8870   32.3120 C.3   216  LEU216      0.0297
    173  CG         3.4960  -34.3640   31.0960 C.3   216  LEU216      0.0022
    174  CD1        4.9730  -34.0720   31.2870 C.3   216  LEU216      0.0001
    175  CD2        3.2770  -35.8450   30.8880 C.3   216  LEU216      0.0001
    176  N         -0.4430  -36.6760   36.8370 N.3   221  CYS221     -0.1221
    177  CA         0.6530  -37.6160   36.7800 C.3   221  CYS221      0.1808
    178  C          1.4410  -37.5680   38.0920 C.2   221  CYS221      0.2601
    179  O          1.3810  -36.5930   38.8450 O.2   221  CYS221     -0.2717
    180  CB         1.5770  -37.3030   35.5850 C.3   221  CYS221      0.0970
    181  SG         0.9410  -37.4720   33.8720 S.3   221  CYS221     -0.0800
    182  N          2.1610  -38.6490   38.3680 N.am  222  LYS222     -0.1965
    183  CA         3.0550  -38.7000   39.5180 C.3   222  LYS222      0.1728
    184  C          4.3980  -38.0180   39.2560 C.2   222  LYS222      0.2616
    185  O          5.1630  -38.4400   38.3860 O.2   222  LYS222     -0.2715
    186  CB         3.2750  -40.1530   39.9520 C.3   222  LYS222      0.0311
    187  CG         4.1260  -40.3760   41.1700 C.3   222  LYS222      0.0038
    188  CD         3.3630  -39.9640   42.3880 C.3   222  LYS222      0.0206
    189  CE         4.0710  -40.4410   43.6600 C.3   222  LYS222      0.1093
    190  NZ         5.2680  -39.6680   43.9400 N.3   222  LYS222     -0.1314
    191  N          4.6420  -36.9400   39.9990 N.am  223  ASN223     -0.1958
    192  CA         5.9440  -36.2720   40.0750 C.3   223  ASN223      0.1819
    193  C          6.5430  -35.8720   38.7240 C.2   223  ASN223      0.2621
    194  O          7.5680  -36.4210   38.3120 O.2   223  ASN223     -0.2715
    195  CB         6.9440  -37.1770   40.7920 C.3   223  ASN223      0.1195
    196  CG         7.7100  -36.4500   41.8770 C.2   223  ASN223      0.2630
    197  OD1        7.8580  -35.2300   41.8330 O.2   223  ASN223     -0.2716
    198  ND2        8.3060  -37.2140   42.7910 N.am  223  ASN223     -0.0877
    199  N          5.9400  -34.8830   38.0730 N.am  224  VAL224     -0.1963
    200  CA         6.3280  -34.4640   36.7250 C.3   224  VAL224      0.1727
    201  C          7.7600  -33.9080   36.5400 C.2   224  VAL224      0.2616
    202  O          8.5330  -34.3840   35.7040 O.2   224  VAL224     -0.2715
    203  CB         5.3670  -33.3610   36.2080 C.3   224  VAL224      0.0290
    204  CG1        5.9170  -32.8120   34.8850 C.3   224  VAL224      0.0023
    205  CG2        3.8610  -33.8580   36.0920 C.3   224  VAL224      0.0023
    206  N          8.0950  -32.8870   37.3150 N.am  225  VAL225     -0.1964
    207  CA         9.4090  -32.2630   37.2580 C.3   225  VAL225      0.1712
    208  C         10.4740  -33.1080   37.9420 C.2   225  VAL225      0.2458
    209  O         10.2280  -33.6650   39.0130 O.2   225  VAL225     -0.2730
    210  CB         9.3380  -30.8600   37.8960 C.3   225  VAL225      0.0289
    211  CG1       10.7020  -30.2400   38.0510 C.3   225  VAL225      0.0023
    212  CG2        8.4500  -29.9680   37.0620 C.3   225  VAL225      0.0023
    213  N         11.6580  -33.2300   37.3190 N.am  226  PRO226     -0.2727
    214  CA        12.7090  -33.8860   38.0960 C.3   226  PRO226      0.1402
    215  C         13.0440  -32.9960   39.2810 C.2   226  PRO226      0.2269
    216  O         12.9480  -31.7800   39.1670 O.2   226  PRO226     -0.2865
    217  CB        13.8740  -33.9890   37.1080 C.3   226  PRO226      0.0296
    218  CG        13.6110  -32.9100   36.0940 C.3   226  PRO226      0.0237
    219  CD        12.1170  -32.8230   35.9800 C.3   226  PRO226      0.0939
    220  N         17.5940  -35.2990   42.5060 N.3   230  LEU230     -0.1245
    221  CA        17.8250  -36.2410   41.4260 C.3   230  LEU230      0.1561
    222  C         18.7360  -35.6380   40.3660 C.2   230  LEU230      0.2260
    223  O         19.6330  -36.3040   39.8570 O.2   230  LEU230     -0.2867
    224  CB        16.4920  -36.6770   40.8200 C.3   230  LEU230      0.0270
    225  CG        16.5550  -37.5370   39.5650 C.3   230  LEU230      0.0019
    226  CD1       16.9560  -38.9400   39.9500 C.3   230  LEU230      0.0001
    227  CD2       15.2040  -37.5350   38.8800 C.3   230  LEU230      0.0001
@<TRIPOS>BOND
     1   111   110    2
     2   110   109    1
     3   109   108    1
     4   109   112    1
     5   149   148    2
     6   112   113    1
     7   148   147    1
     8   103   102    2
     9   113   114    1
    10   147   146    1
    11   147   150    1
    12   102   101    1
    13   114   115    1
    14   150   151    1
    15   119   120    1
    16   115   116    2
    17   101   100    1
    18   101   104    1
    19   106   105    1
    20   105   104    1
    21   105   107    1
    22   151   153    1
    23   151   152    1
    24    95    94    2
    25   120   121    1
    26   120   123    1
    27   121   122    2
    28   116   117    1
    29   116   118    1
    30   126   128   ar
    31   126   124   ar
    32   128   129   ar
    33   141   140    2
    34   140   139    1
    35    94    93    1
    36   123   124    1
    37   124   125   ar
    38   129   127   ar
    39   138   139    1
    40   133   132    2
    41   139   142    1
    42   125   127   ar
    43    93    96    1
    44    93    92    1
    45   132   131    1
    46    87    86    2
    47    96    97    1
    48   144   142    1
    49    92    86   am
    50    86    85    1
    51   142   143    1
    52    97    98    1
    53   135   134    1
    54   135   136    1
    55   131   134    1
    56   131   130    1
    57    98    99    1
    58    31    29    1
    59    16    14    1
    60   136   137    1
    61    52    51   ar
    62    53    51   ar
    63   143   145    1
    64    85    84    1
    65    85    88    1
    66    51    50    1
    67    15    14    1
    68    30    29    1
    69    14    13    1
    70    29    28    1
    71    88    89    1
    72    79    78    2
    73    50    49    1
    74    91    89    1
    75    28    25    1
    76    13    10    1
    77    78    77    1
    78    89    90    1
    79    10     9    1
    80    10    11    1
    81   154   155    1
    82    49    46    1
    83   166   167   ar
    84   166   164   ar
    85   167   165   ar
    86   155   156    1
    87   164   163   ar
    88    25    26    1
    89    25    24    1
    90   165   163   ar
    91    82    81    1
    92   163   162    1
    93    27    26    2
    94    81    83    1
    95    81    80    1
    96    46    47    1
    97    46    45    1
    98    12    11    2
    99    26    32   am
   100     1     2    1
   101    65    64    2
   102    11    17   am
   103    77    80    1
   104    77    76    1
   105   162   159    1
   106    48    47    2
   107    32    33    1
   108     7     6    1
   109     7     8    1
   110    33    36    1
   111    33    34    1
   112    47    54   am
   113   156   157    2
   114    64    76   am
   115    64    63    1
   116     2     3    1
   117     2     5    1
   118     6     5    1
   119    17    18    1
   120   159   158    1
   121   159   160    1
   122     3     4    2
   123    63    62    1
   124    63    66    1
   125    34    35    2
   126    34    37   am
   127    54    55    1
   128   175   173    1
   129    18    19    1
   130    18    21    1
   131   160   168   am
   132   160   161    2
   133   173   174    1
   134   173   172    1
   135    19    20    2
   136    37    38    1
   137    55    56    1
   138    55    58    1
   139   168   169    1
   140    72    74   ar
   141    72    69   ar
   142    74    75   ar
   143    66    67    1
   144    56    57    2
   145    22    21    1
   146    69    67   ar
   147    69    71   ar
   148    21    23    1
   149    39    38    1
   150    39    40    2
   151    75    73   ar
   152   169   172    1
   153   169   170    1
   154    67    68   ar
   155    38    41    1
   156    58    59    1
   157    71    73   ar
   158    71    70   ar
   159    60    59    1
   160    68    70   ar
   161    41    42    1
   162    59    61    1
   163   170   171    2
   164   181   180    1
   165    42    43   ar
   166    42    44   ar
   167   204   203    1
   168   180   177    1
   169   202   201    2
   170   219   218    1
   171   219   213    1
   172   205   203    1
   173   218   217    1
   174   203   200    1
   175   201   200    1
   176   201   206   am
   177   200   199    1
   178   177   176    1
   179   177   178    1
   180   212   210    1
   181   217   214    1
   182   207   206    1
   183   207   210    1
   184   207   208    1
   185   213   208   am
   186   213   214    1
   187   210   211    1
   188   208   209    2
   189   199   193   am
   190   178   182   am
   191   178   179    2
   192   214   215    1
   193   194   193    2
   194   182   183    1
   195   185   184    2
   196   193   192    1
   197   227   225    1
   198   216   215    2
   199   184   183    1
   200   184   191   am
   201   183   186    1
   202   225   226    1
   203   225   224    1
   204   223   222    2
   205   186   187    1
   206   191   192    1
   207   192   195    1
   208   222   221    1
   209   195   196    1
   210   224   221    1
   211   187   188    1
   212   221   220    1
   213   197   196    2
   214   196   198   am
   215   188   189    1
   216   189   190    1
