@<TRIPOS>MOLECULE
tmp/4xi7A00.pdb
 125 121 0 0 0
SMALL
GASTEIGER

@<TRIPOS>ATOM
      1  N        -26.9090   20.5300  -18.7150 N.3    19  LYS19      -0.1231
      2  CA       -26.7740   21.6250  -17.7610 C.3    19  LYS19       0.1693
      3  C        -28.1380   22.0790  -17.2560 C.2    19  LYS19       0.2592
      4  O        -28.2940   23.2160  -16.8090 O.2    19  LYS19      -0.2718
      5  CB       -26.0360   22.8040  -18.4010 C.3    19  LYS19       0.0285
      6  CG       -26.7490   23.4160  -19.6020 C.3    19  LYS19       0.0035
      7  CD       -26.1470   24.7620  -19.9720 C.3    19  LYS19       0.0206
      8  CE       -26.8060   25.3470  -21.2090 C.3    19  LYS19       0.1093
      9  NZ       -26.9900   26.8230  -21.1070 N.3    19  LYS19      -0.1314
     10  N        -29.1190   21.1840  -17.3270 N.am   20  TRP20      -0.1976
     11  CA       -30.4980   21.5330  -17.0020 C.3    20  TRP20       0.1640
     12  C        -30.9650   20.8810  -15.7060 C.2    20  TRP20       0.2290
     13  O        -32.1220   20.4850  -15.5820 O.2    20  TRP20      -0.2864
     14  CB       -31.4190   21.1380  -18.1540 C.3    20  TRP20       0.0576
     15  CG       -30.9480   21.6670  -19.4690 C.ar   20  TRP20       0.0006
     16  CD1      -30.4370   20.9450  -20.5070 C.ar   20  TRP20       0.0946
     17  CD2      -30.9270   23.0370  -19.8820 C.ar   20  TRP20       0.0152
     18  NE1      -30.1070   21.7810  -21.5460 N.ar   20  TRP20      -0.2442
     19  CE2      -30.3970   23.0720  -21.1870 C.ar   20  TRP20       0.0810
     20  CE3      -31.3080   24.2400  -19.2770 C.ar   20  TRP20       0.0012
     21  CZ2      -30.2400   24.2580  -21.8980 C.ar   20  TRP20       0.0191
     22  CZ3      -31.1500   25.4170  -19.9850 C.ar   20  TRP20       0.0001
     23  CH2      -30.6190   25.4180  -21.2800 C.ar   20  TRP20       0.0015
     24  N        -34.2510   18.2440  -14.4610 N.3    23  GLN23      -0.1245
     25  CA       -35.4070   18.2020  -15.3530 C.3    23  GLN23       0.1566
     26  C        -35.7550   16.7690  -15.7530 C.2    23  GLN23       0.2260
     27  O        -36.9290   16.4060  -15.8230 O.2    23  GLN23      -0.2867
     28  CB       -35.1520   19.0450  -16.6070 C.3    23  GLN23       0.0367
     29  CG       -35.2630   20.5480  -16.3780 C.3    23  GLN23       0.0905
     30  CD       -35.0950   21.3540  -17.6540 C.2    23  GLN23       0.2608
     31  OE1      -34.9320   20.7970  -18.7400 O.2    23  GLN23      -0.2717
     32  NE2      -35.1370   22.6750  -17.5270 N.am   23  GLN23      -0.0878
     33  N        -39.9630   13.4260  -28.5910 N.3    34  ARG34      -0.1245
     34  CA       -41.2770   13.6870  -29.1650 C.3    34  ARG34       0.1563
     35  C        -41.1860   14.2680  -30.5720 C.2    34  ARG34       0.2260
     36  O        -41.9160   13.8500  -31.4690 O.2    34  ARG34      -0.2867
     37  CB       -42.0810   14.6380  -28.2810 C.3    34  ARG34       0.0307
     38  CG       -43.5310   14.7330  -28.7190 C.3    34  ARG34       0.0489
     39  CD       -44.3560   15.6580  -27.8520 C.3    34  ARG34       0.2205
     40  NE       -45.7790   15.4900  -28.1310 N.pl3  34  ARG34      -0.0865
     41  CZ       -46.7560   16.1220  -27.4880 C.cat  34  ARG34       0.5346
     42  NH1      -46.4770   16.9760  -26.5120 N.pl3  34  ARG34       0.1354
     43  NH2      -48.0190   15.8950  -27.8220 N.pl3  34  ARG34       0.1354
     44  N        -37.6310   20.4300  -33.2320 N.3    37  GLU37      -0.1245
     45  CA       -37.9050   21.8120  -33.6110 C.3    37  GLU37       0.1567
     46  C        -37.0840   22.1600  -34.8460 C.2    37  GLU37       0.2260
     47  O        -37.5690   22.7920  -35.7860 O.2    37  GLU37      -0.2867
     48  CB       -37.5700   22.7670  -32.4630 C.3    37  GLU37       0.0388
     49  CG       -38.3930   22.5490  -31.2020 C.3    37  GLU37       0.1160
     50  CD       -39.6370   23.4150  -31.1580 C.2    37  GLU37       0.3649
     51  OE1      -40.7510   22.8650  -31.2850 O.co2  37  GLU37      -0.2457
     52  OE2      -39.5010   24.6460  -30.9920 O.co2  37  GLU37      -0.2457
     53  N        -31.0670   21.2170  -34.7880 N.3    40  GLU40      -0.1231
     54  CA       -30.2260   21.5850  -33.6500 C.3    40  GLU40       0.1699
     55  C        -30.9490   21.4770  -32.3060 C.2    40  GLU40       0.2592
     56  O        -30.3080   21.4910  -31.2520 O.2    40  GLU40      -0.2718
     57  CB       -29.7030   23.0130  -33.8260 C.3    40  GLU40       0.0402
     58  CG       -28.7740   23.1990  -35.0110 C.3    40  GLU40       0.1161
     59  CD       -28.1610   24.5840  -35.0490 C.2    40  GLU40       0.3649
     60  OE1      -28.6210   25.4590  -34.2850 O.co2  40  GLU40      -0.2457
     61  OE2      -27.2160   24.7990  -35.8380 O.co2  40  GLU40      -0.2457
     62  N        -32.2750   21.3680  -32.3450 N.am   41  GLU41      -0.1979
     63  CA       -33.0920   21.4240  -31.1330 C.3    41  GLU41       0.1602
     64  C        -34.1570   20.3320  -31.1180 C.2    41  GLU41       0.2287
     65  O        -34.8680   20.1360  -32.1050 O.2    41  GLU41      -0.2864
     66  CB       -33.7540   22.7980  -31.0140 C.3    41  GLU41       0.0415
     67  CG       -34.1300   23.1990  -29.5950 C.3    41  GLU41       0.1163
     68  CD       -34.8800   24.5180  -29.5430 C.2    41  GLU41       0.3649
     69  OE1      -35.3850   24.9620  -30.5960 O.co2  41  GLU41      -0.2457
     70  OE2      -34.9610   25.1150  -28.4510 O.co2  41  GLU41      -0.2457
     71  N        -37.3220   18.1690  -28.7520 N.3    43  VAL43      -0.1245
     72  CA       -38.2530   18.1500  -27.6260 C.3    43  VAL43       0.1561
     73  C        -38.3450   16.7500  -27.0270 C.2    43  VAL43       0.2260
     74  O        -38.6090   15.7780  -27.7370 O.2    43  VAL43      -0.2867
     75  CB       -39.6610   18.6040  -28.0420 C.3    43  VAL43       0.0252
     76  CG1      -40.6090   18.5760  -26.8440 C.3    43  VAL43       0.0019
     77  CG2      -39.6130   19.9990  -28.6430 C.3    43  VAL43       0.0019
     78  N        -42.3210   15.7480  -17.1810 N.3    50  THR50      -0.1203
     79  CA       -41.7010   17.0050  -17.5900 C.3    50  THR50       0.1994
     80  C        -41.3200   16.9690  -19.0680 C.2    50  THR50       0.2618
     81  O        -40.5880   16.0820  -19.5060 O.2    50  THR50      -0.2717
     82  CB       -40.4420   17.3110  -16.7490 C.3    50  THR50       0.1784
     83  OG1      -40.7880   17.3510  -15.3590 O.3    50  THR50      -0.2211
     84  CG2      -39.8270   18.6470  -17.1510 C.3    50  THR50       0.0376
     85  N        -41.8290   17.9340  -19.8300 N.am   51  ALA51      -0.1965
     86  CA       -41.5040   18.0580  -21.2480 C.3    51  ALA51       0.1728
     87  C        -40.6410   19.2920  -21.4700 C.2    51  ALA51       0.2616
     88  O        -40.9070   20.3470  -20.8940 O.2    51  ALA51      -0.2715
     89  CB       -42.7690   18.1350  -22.0830 C.3    51  ALA51       0.0334
     90  N        -39.6060   19.1680  -22.2960 N.am   52  ALA52      -0.1963
     91  CA       -38.7080   20.3020  -22.5160 C.3    52  ALA52       0.1728
     92  C        -37.8830   20.1830  -23.7900 C.2    52  ALA52       0.2616
     93  O        -37.7690   19.1070  -24.3780 O.2    52  ALA52      -0.2715
     94  CB       -37.7840   20.4690  -21.3170 C.3    52  ALA52       0.0334
     95  N        -37.3040   21.3080  -24.2030 N.am   53  ASN53      -0.1958
     96  CA       -36.4670   21.3620  -25.3950 C.3    53  ASN53       0.1819
     97  C        -34.9910   21.2700  -25.0270 C.2    53  ASN53       0.2621
     98  O        -34.5780   21.7620  -23.9760 O.2    53  ASN53      -0.2715
     99  CB       -36.7350   22.6460  -26.1800 C.3    53  ASN53       0.1195
    100  CG       -36.4360   23.8950  -25.3750 C.2    53  ASN53       0.2630
    101  OD1      -36.7590   23.9790  -24.1900 O.2    53  ASN53      -0.2716
    102  ND2      -35.8090   24.8730  -26.0160 N.am   53  ASN53      -0.0877
    103  N        -34.2020   20.6450  -25.8980 N.am   54  TYR54      -0.1960
    104  CA       -32.7990   20.3690  -25.6080 C.3    54  TYR54       0.1771
    105  C        -31.9290   20.4880  -26.8530 C.2    54  TYR54       0.2619
    106  O        -32.4290   20.4750  -27.9820 O.2    54  TYR54      -0.2715
    107  CB       -32.6490   18.9740  -24.9990 C.3    54  TYR54       0.0574
    108  CG       -33.3680   18.8280  -23.6810 C.ar   54  TYR54      -0.0198
    109  CD1      -32.8320   19.3600  -22.5170 C.ar   54  TYR54      -0.0009
    110  CD2      -34.5890   18.1700  -23.6010 C.ar   54  TYR54      -0.0009
    111  CE1      -33.4870   19.2380  -21.3090 C.ar   54  TYR54       0.0417
    112  CE2      -35.2520   18.0410  -22.3970 C.ar   54  TYR54       0.0417
    113  CZ       -34.6960   18.5780  -21.2540 C.ar   54  TYR54       0.1957
    114  OH       -35.3510   18.4540  -20.0510 O.3    54  TYR54      -0.2866
    115  N        -30.6220   20.5940  -26.6230 N.am   55  ARG55      -0.1977
    116  CA       -29.6430   20.7740  -27.6880 C.3    55  ARG55       0.1597
    117  C        -29.1470   19.4400  -28.2370 C.2    55  ARG55       0.2287
    118  O        -28.8410   18.5190  -27.4770 O.2    55  ARG55      -0.2864
    119  CB       -28.4560   21.5930  -27.1720 C.3    55  ARG55       0.0334
    120  CG       -28.8440   22.9480  -26.5910 C.3    55  ARG55       0.0492
    121  CD       -27.6930   23.5800  -25.8280 C.3    55  ARG55       0.2205
    122  NE       -27.3100   22.7830  -24.6660 N.pl3  55  ARG55      -0.0865
    123  CZ       -26.2470   23.0270  -23.9050 C.cat  55  ARG55       0.5346
    124  NH1      -25.4460   24.0490  -24.1800 N.pl3  55  ARG55       0.1354
    125  NH2      -25.9810   22.2430  -22.8680 N.pl3  55  ARG55       0.1354
@<TRIPOS>BOND
     1    61    59   ar
     2    47    46    2
     3    59    58    1
     4    59    60   ar
     5    58    57    1
     6    46    45    1
     7    53    54    1
     8    57    54    1
     9    54    55    1
    10    45    44    1
    11    45    48    1
    12    48    49    1
    13    62    55   am
    14    62    63    1
    15    55    56    2
    16    65    64    2
    17    36    35    2
    18    51    50   ar
    19    49    50    1
    20    50    52   ar
    21    63    64    1
    22    63    66    1
    23    66    67    1
    24    69    68   ar
    25    35    34    1
    26    67    68    1
    27    68    70   ar
    28    34    33    1
    29    34    37    1
    30    71    72    1
    31    38    37    1
    32    38    39    1
    33    77    75    1
    34   117   116    1
    35   117   118    2
    36    40    39    1
    37    40    41    2
    38    75    72    1
    39    75    76    1
    40   106   105    2
    41    43    41    1
    42    74    73    2
    43   116   119    1
    44   116   115    1
    45    72    73    1
    46    41    42    1
    47   119   120    1
    48   105   115   am
    49   105   104    1
    50   120   121    1
    51    99    96    1
    52    99   100    1
    53   102   100   am
    54   103   104    1
    55   103    97   am
    56   121   122    1
    57   104   107    1
    58    96    97    1
    59    96    95    1
    60   100   101    2
    61    97    98    2
    62   107   108    1
    63   122   123    2
    64    93    92    2
    65    95    92   am
    66   124   123    1
    67   123   125    1
    68    92    91    1
    69   108   110   ar
    70   108   109   ar
    71   110   112   ar
    72   109   111   ar
    73    91    90    1
    74    91    94    1
    75   112   113   ar
    76    90    87   am
    77    89    86    1
    78    21    23   ar
    79    21    19   ar
    80    18    19   ar
    81    18    16   ar
    82    87    86    1
    83    87    88    2
    84   111   113   ar
    85    23    22   ar
    86   113   114    1
    87    86    85    1
    88     8     9    1
    89     8     7    1
    90    19    17   ar
    91    16    15   ar
    92    22    20   ar
    93     7     6    1
    94    17    15   ar
    95    17    20   ar
    96    85    80   am
    97     6     5    1
    98    81    80    2
    99    15    14    1
   100    80    79    1
   101    31    30    2
   102     1     2    1
   103     5     2    1
   104    14    11    1
   105     2     3    1
   106    30    32   am
   107    30    29    1
   108    79    78    1
   109    79    82    1
   110    10     3   am
   111    10    11    1
   112     3     4    2
   113    84    82    1
   114    11    12    1
   115    82    83    1
   116    28    29    1
   117    28    25    1
   118    27    26    2
   119    26    25    1
   120    12    13    2
   121    25    24    1
