@<TRIPOS>MOLECULE
tmp/4xibA00.pdb
 118 115 0 0 0
SMALL
GASTEIGER

@<TRIPOS>ATOM
      1  N         -9.9720  -57.6300  -18.7410 N.3    19  LYS19      -0.1231
      2  CA       -10.0850  -58.7250  -17.7770 C.3    19  LYS19       0.1693
      3  C         -8.7180  -59.1400  -17.2370 C.2    19  LYS19       0.2592
      4  O         -8.5370  -60.2760  -16.7930 O.2    19  LYS19      -0.2718
      5  CB       -10.7710  -59.9330  -18.4190 C.3    19  LYS19       0.0285
      6  CG       -10.0260  -60.5100  -19.6190 C.3    19  LYS19       0.0035
      7  CD       -10.6280  -61.8360  -20.0640 C.3    19  LYS19       0.0206
      8  CE        -9.8990  -63.0210  -19.4420 C.3    19  LYS19       0.1093
      9  NZ       -10.6450  -64.3020  -19.6090 N.3    19  LYS19      -0.1314
     10  N         -7.7670  -58.2130  -17.2710 N.am   20  TRP20      -0.1976
     11  CA        -6.3760  -58.5190  -16.9550 C.3    20  TRP20       0.1640
     12  C         -5.9310  -57.8950  -15.6380 C.2    20  TRP20       0.2290
     13  O         -4.7840  -57.4710  -15.5000 O.2    20  TRP20      -0.2864
     14  CB        -5.4750  -58.0420  -18.0920 C.3    20  TRP20       0.0576
     15  CG        -5.9450  -58.5040  -19.4300 C.ar   20  TRP20       0.0006
     16  CD1       -6.4780  -57.7370  -20.4250 C.ar   20  TRP20       0.0946
     17  CD2       -5.9400  -59.8510  -19.9180 C.ar   20  TRP20       0.0152
     18  NE1       -6.7980  -58.5240  -21.5050 N.ar   20  TRP20      -0.2442
     19  CE2       -6.4790  -59.8230  -21.2190 C.ar   20  TRP20       0.0810
     20  CE3       -5.5300  -61.0730  -19.3800 C.ar   20  TRP20       0.0012
     21  CZ2       -6.6160  -60.9750  -21.9910 C.ar   20  TRP20       0.0191
     22  CZ3       -5.6670  -62.2120  -20.1470 C.ar   20  TRP20       0.0001
     23  CH2       -6.2060  -62.1560  -21.4390 C.ar   20  TRP20       0.0015
     24  N         -2.6820  -55.2270  -14.5200 N.3    23  GLN23      -0.1245
     25  CA        -1.4890  -55.2300  -15.3550 C.3    23  GLN23       0.1566
     26  C         -1.1290  -53.8070  -15.7580 C.2    23  GLN23       0.2260
     27  O          0.0450  -53.4520  -15.8410 O.2    23  GLN23      -0.2867
     28  CB        -1.6990  -56.0910  -16.6040 C.3    23  GLN23       0.0367
     29  CG        -1.6520  -57.5900  -16.3520 C.3    23  GLN23       0.0905
     30  CD        -1.8970  -58.4000  -17.6110 C.2    23  GLN23       0.2608
     31  OE1       -1.6850  -57.9190  -18.7240 O.2    23  GLN23      -0.2717
     32  NE2       -2.3540  -59.6360  -17.4410 N.am   23  GLN23      -0.0878
     33  N         -5.8170  -58.2230  -34.9260 N.3    40  GLU40      -0.1231
     34  CA        -6.6140  -58.6810  -33.7920 C.3    40  GLU40       0.1699
     35  C         -5.8950  -58.4300  -32.4660 C.2    40  GLU40       0.2592
     36  O         -6.5320  -58.1840  -31.4390 O.2    40  GLU40      -0.2718
     37  CB        -6.9240  -60.1760  -33.9510 C.3    40  GLU40       0.0402
     38  CG        -8.0730  -60.7010  -33.0960 C.3    40  GLU40       0.1161
     39  CD        -7.7240  -60.8310  -31.6240 C.2    40  GLU40       0.3649
     40  OE1       -6.5860  -61.2360  -31.3110 O.co2  40  GLU40      -0.2457
     41  OE2       -8.5920  -60.5250  -30.7790 O.co2  40  GLU40      -0.2457
     42  N         -4.5660  -58.4830  -32.5040 N.am   41  GLU41      -0.1979
     43  CA        -3.7450  -58.4610  -31.2970 C.3    41  GLU41       0.1602
     44  C         -2.7500  -57.3040  -31.3010 C.2    41  GLU41       0.2287
     45  O         -2.1000  -57.0370  -32.3130 O.2    41  GLU41      -0.2864
     46  CB        -2.9980  -59.7870  -31.1610 C.3    41  GLU41       0.0415
     47  CG        -2.2140  -59.9380  -29.8720 C.3    41  GLU41       0.1163
     48  CD        -1.4480  -61.2450  -29.8120 C.2    41  GLU41       0.3649
     49  OE1       -1.1660  -61.8210  -30.8850 O.co2  41  GLU41      -0.2457
     50  OE2       -1.1300  -61.7000  -28.6940 O.co2  41  GLU41      -0.2457
     51  N          5.9260  -50.1860  -16.6480 N.3    49  GLY49      -0.1210
     52  CA         7.0280  -50.9770  -17.1730 C.3    49  GLY49       0.1956
     53  C          6.6260  -52.3220  -17.7440 C.2    49  GLY49       0.2613
     54  O          7.3720  -52.9190  -18.5220 O.2    49  GLY49      -0.2717
     55  N          5.4480  -52.8030  -17.3640 N.am   50  THR50      -0.1938
     56  CA         5.0010  -54.1240  -17.7860 C.3    50  THR50       0.2028
     57  C          4.5420  -54.0910  -19.2390 C.2    50  THR50       0.2642
     58  O          3.6680  -53.3040  -19.6060 O.2    50  THR50      -0.2714
     59  CB         3.8500  -54.6540  -16.9030 C.3    50  THR50       0.1808
     60  OG1        2.6350  -53.9650  -17.2230 O.3    50  THR50      -0.2208
     61  CG2        4.1690  -54.4730  -15.4200 C.3    50  THR50       0.0379
     62  N          5.1460  -54.9450  -20.0600 N.am   51  ALA51      -0.1963
     63  CA         4.7760  -55.0690  -21.4630 C.3    51  ALA51       0.1728
     64  C          3.8860  -56.2880  -21.6500 C.2    51  ALA51       0.2616
     65  O          4.1990  -57.3680  -21.1470 O.2    51  ALA51      -0.2715
     66  CB         6.0120  -55.1740  -22.3330 C.3    51  ALA51       0.0334
     67  N          2.7810  -56.1220  -22.3700 N.am   52  ALA52      -0.1963
     68  CA         1.8380  -57.2200  -22.5480 C.3    52  ALA52       0.1728
     69  C          1.0440  -57.1090  -23.8440 C.2    52  ALA52       0.2616
     70  O          1.0600  -56.0760  -24.5100 O.2    52  ALA52      -0.2715
     71  CB         0.8930  -57.2850  -21.3630 C.3    52  ALA52       0.0334
     72  N          0.3460  -58.1900  -24.1830 N.am   53  ASN53      -0.1958
     73  CA        -0.4490  -58.2680  -25.4050 C.3    53  ASN53       0.1819
     74  C         -1.9390  -58.2320  -25.0890 C.2    53  ASN53       0.2621
     75  O         -2.3690  -58.7300  -24.0490 O.2    53  ASN53      -0.2715
     76  CB        -0.1040  -59.5380  -26.1850 C.3    53  ASN53       0.1195
     77  CG        -0.1540  -60.7850  -25.3220 C.2    53  ASN53       0.2630
     78  OD1        0.2410  -60.7630  -24.1560 O.2    53  ASN53      -0.2716
     79  ND2       -0.6430  -61.8810  -25.8910 N.am   53  ASN53      -0.0877
     80  N         -2.7230  -57.6430  -25.9890 N.am   54  TYR54      -0.1960
     81  CA        -4.1400  -57.4070  -25.7360 C.3    54  TYR54       0.1771
     82  C         -4.9900  -57.5020  -26.9990 C.2    54  TYR54       0.2619
     83  O         -4.4870  -57.4040  -28.1240 O.2    54  TYR54      -0.2715
     84  CB        -4.3400  -56.0330  -25.0940 C.3    54  TYR54       0.0574
     85  CG        -3.6140  -55.8670  -23.7810 C.ar   54  TYR54      -0.0198
     86  CD1       -4.1660  -56.3360  -22.5970 C.ar   54  TYR54      -0.0009
     87  CD2       -2.3740  -55.2460  -23.7260 C.ar   54  TYR54      -0.0009
     88  CE1       -3.5050  -56.1890  -21.3950 C.ar   54  TYR54       0.0417
     89  CE2       -1.7050  -55.0940  -22.5280 C.ar   54  TYR54       0.0417
     90  CZ        -2.2750  -55.5670  -21.3660 C.ar   54  TYR54       0.1957
     91  OH        -1.6160  -55.4200  -20.1680 O.3    54  TYR54      -0.2866
     92  N         -6.2910  -57.6760  -26.7790 N.am   55  ARG55      -0.1977
     93  CA        -7.2710  -57.8250  -27.8460 C.3    55  ARG55       0.1597
     94  C         -7.7500  -56.4690  -28.3570 C.2    55  ARG55       0.2287
     95  O         -7.9930  -55.5500  -27.5720 O.2    55  ARG55      -0.2864
     96  CB        -8.4680  -58.6430  -27.3490 C.3    55  ARG55       0.0334
     97  CG        -8.1080  -60.0350  -26.8460 C.3    55  ARG55       0.0492
     98  CD        -9.2410  -60.6500  -26.0370 C.3    55  ARG55       0.2205
     99  NE        -9.4610  -59.9460  -24.7760 N.pl3  55  ARG55      -0.0865
    100  CZ       -10.5090  -60.1380  -23.9790 C.cat  55  ARG55       0.5346
    101  NH1      -11.4540  -61.0090  -24.3100 N.pl3  55  ARG55       0.1354
    102  NH2      -10.6180  -59.4500  -22.8520 N.pl3  55  ARG55       0.1354
    103  N         12.4270  -49.8890  -21.7020 N.3   155  VAL155     -0.1245
    104  CA        12.9260  -50.9850  -22.5270 C.3   155  VAL155      0.1561
    105  C         13.6270  -50.5060  -23.8010 C.2   155  VAL155      0.2260
    106  O         14.6010  -51.1170  -24.2430 O.2   155  VAL155     -0.2867
    107  CB        11.7770  -51.9500  -22.9150 C.3   155  VAL155      0.0252
    108  CG1       10.6680  -51.2160  -23.6690 C.3   155  VAL155      0.0019
    109  CG2       12.3070  -53.1210  -23.7350 C.3   155  VAL155      0.0019
    110  N         10.3750  -45.7100  -17.6380 N.3   210  LYS210     -0.1245
    111  CA         9.4950  -46.5350  -16.8180 C.3   210  LYS210      0.1561
    112  C          9.2010  -45.8280  -15.5060 C.2   210  LYS210      0.2260
    113  O         10.1130  -45.3400  -14.8410 O.2   210  LYS210     -0.2867
    114  CB        10.1220  -47.9020  -16.5350 C.3   210  LYS210      0.0271
    115  CG         9.2900  -48.7800  -15.6030 C.3   210  LYS210      0.0035
    116  CD        10.1290  -49.8160  -14.8790 C.3   210  LYS210      0.0206
    117  CE        10.7370  -50.8240  -15.8320 C.3   210  LYS210      0.1093
    118  NZ        11.5240  -51.8510  -15.0970 N.3   210  LYS210     -0.1314
@<TRIPOS>BOND
     1    33    34    1
     2    37    34    1
     3    37    38    1
     4    34    35    1
     5    38    39    1
     6    42    35   am
     7    42    43    1
     8    35    36    2
     9    45    44    2
    10    39    40   ar
    11    39    41   ar
    12    44    43    1
    13    43    46    1
    14    46    47    1
    15    49    48   ar
    16    47    48    1
    17    48    50   ar
    18    94    93    1
    19    94    95    2
    20    83    82    2
    21    93    96    1
    22    93    92    1
    23    96    97    1
    24    82    92   am
    25    82    81    1
    26    97    98    1
    27    76    73    1
    28    76    77    1
    29    98    99    1
    30    80    81    1
    31    80    74   am
    32    79    77   am
    33    81    84    1
    34    73    74    1
    35    73    72    1
    36    77    78    2
    37    84    85    1
    38    74    75    2
    39    99   100    2
    40    70    69    2
    41   101   100    1
    42   106   105    2
    43    72    69   am
    44   100   102    1
    45    69    68    1
    46   105   104    1
    47    85    87   ar
    48    85    86   ar
    49   109   107    1
    50    87    89   ar
    51   108   107    1
    52   107   104    1
    53    86    88   ar
    54    68    67    1
    55    68    71    1
    56    89    90   ar
    57   104   103    1
    58    67    64   am
    59    66    63    1
    60    21    23   ar
    61    21    19   ar
    62    64    63    1
    63    64    65    2
    64    18    19   ar
    65    18    16   ar
    66    63    62    1
    67    23    22   ar
    68    88    90   ar
    69    90    91    1
    70    19    17   ar
    71    16    15   ar
    72    22    20   ar
    73     7     6    1
    74     7     8    1
    75    62    57   am
    76    17    15   ar
    77    17    20   ar
    78     6     5    1
    79     9     8    1
    80    58    57    2
    81    15    14    1
    82    57    56    1
    83     1     2    1
    84    31    30    2
    85    54    53    2
    86     5     2    1
    87    14    11    1
    88    56    55    1
    89    56    59    1
    90     2     3    1
    91    53    55   am
    92    53    52    1
    93   110   111    1
    94    30    32   am
    95    30    29    1
    96    10     3   am
    97    10    11    1
    98     3     4    2
    99    60    59    1
   100    52    51    1
   101    11    12    1
   102    59    61    1
   103   111   114    1
   104   111   112    1
   105    28    29    1
   106    28    25    1
   107   114   115    1
   108    27    26    2
   109   117   118    1
   110   117   116    1
   111    26    25    1
   112    12    13    2
   113   115   116    1
   114   112   113    2
   115    25    24    1
