@<TRIPOS>MOLECULE
tmp/4xifB01.pdb
 235 230 0 0 0
SMALL
GASTEIGER

@<TRIPOS>ATOM
      1  N        -19.0950  202.9250   -4.8790 N.3    85  LYS85      -0.1231
      2  CA       -20.0010  203.4710   -5.8810 C.3    85  LYS85       0.1693
      3  C        -19.1920  203.7030   -7.1480 C.2    85  LYS85       0.2591
      4  O        -19.4980  203.1620   -8.2150 O.2    85  LYS85      -0.2718
      5  CB       -20.6390  204.7720   -5.3730 C.3    85  LYS85       0.0285
      6  CG       -21.7890  205.3700   -6.1900 C.3    85  LYS85       0.0035
      7  CD       -22.3050  206.6500   -5.4860 C.3    85  LYS85       0.0206
      8  CE       -23.2000  207.5350   -6.3720 C.3    85  LYS85       0.1093
      9  NZ       -23.8530  208.6360   -5.5850 N.3    85  LYS85      -0.1314
     10  N        -18.1170  204.4660   -7.0150 N.am   86  GLU86      -0.1979
     11  CA       -17.2780  204.8000   -8.1570 C.3    86  GLU86       0.1602
     12  C        -16.7160  203.5490   -8.8270 C.2    86  GLU86       0.2287
     13  O        -16.3420  203.5790   -9.9950 O.2    86  GLU86      -0.2864
     14  CB       -16.1570  205.7290   -7.7250 C.3    86  GLU86       0.0415
     15  CG       -15.7850  206.7630   -8.7670 C.3    86  GLU86       0.1163
     16  CD       -14.6500  207.6930   -8.2930 C.2    86  GLU86       0.3649
     17  OE1      -14.6230  208.0750   -7.0810 O.co2  86  GLU86      -0.2457
     18  OE2      -13.7790  208.0480   -9.1340 O.co2  86  GLU86      -0.2457
     19  N        -31.3610  208.7620   -5.8610 N.3   119  LYS119     -0.1231
     20  CA       -31.5150  209.6970   -6.9660 C.3   119  LYS119      0.1693
     21  C        -31.1040  209.0030   -8.2410 C.2   119  LYS119      0.2592
     22  O        -31.8620  208.9840   -9.2090 O.2   119  LYS119     -0.2718
     23  CB       -30.6590  210.9470   -6.7430 C.3   119  LYS119      0.0285
     24  CG       -31.1080  212.2140   -7.4820 C.3   119  LYS119      0.0035
     25  CD       -30.3200  213.4120   -6.9680 C.3   119  LYS119      0.0206
     26  CE       -30.5760  214.6420   -7.7780 C.3   119  LYS119      0.1093
     27  NZ       -29.6910  214.7190   -8.9590 N.3   119  LYS119     -0.1314
     28  N        -29.9200  208.4030   -8.2340 N.am  120  ASP120     -0.1974
     29  CA       -29.4180  207.7110   -9.4120 C.3   120  ASP120      0.1709
     30  C        -30.3700  206.6660   -9.9210 C.2   120  ASP120      0.2293
     31  O        -30.4270  206.4270  -11.0940 O.2   120  ASP120     -0.2864
     32  CB       -28.0510  207.0930   -9.1430 C.3   120  ASP120      0.1436
     33  CG       -26.9860  208.1550   -8.8240 C.2   120  ASP120      0.3671
     34  OD1      -27.3600  209.3640   -8.7600 O.co2 120  ASP120     -0.2456
     35  OD2      -25.7880  207.7840   -8.6290 O.co2 120  ASP120     -0.2456
     36  N        -32.0100  220.1820   -6.6680 N.3   150  HIS150     -0.1241
     37  CA       -32.1840  219.5700   -7.9670 C.3   150  HIS150      0.1621
     38  C        -33.3550  218.6090   -8.0270 C.2   150  HIS150      0.2264
     39  O        -34.0320  218.5430   -9.0440 O.2   150  HIS150     -0.2867
     40  CB       -30.9040  218.9080   -8.4680 C.3   150  HIS150      0.0745
     41  CG       -31.0030  218.4310   -9.8850 C.ar  150  HIS150      0.0817
     42  ND1      -31.1360  217.1030  -10.2140 N.ar  150  HIS150     -0.2268
     43  CD2      -31.0420  219.1110  -11.0580 C.ar  150  HIS150      0.1154
     44  CE1      -31.2290  216.9810  -11.5270 C.ar  150  HIS150      0.1986
     45  NE2      -31.1800  218.1840  -12.0630 N.ar  150  HIS150     -0.2212
     46  N        -14.6930  222.6030   -4.0620 N.3   181  LEU181     -0.1245
     47  CA       -15.4400  222.1140   -5.2280 C.3   181  LEU181      0.1561
     48  C        -16.9380  222.3560   -5.0590 C.2   181  LEU181      0.2260
     49  O        -17.5210  221.9140   -4.0930 O.2   181  LEU181     -0.2867
     50  CB       -15.1520  220.6340   -5.4690 C.3   181  LEU181      0.0270
     51  CG       -15.9940  219.8950   -6.5080 C.3   181  LEU181      0.0019
     52  CD1      -15.6230  220.3250   -7.9060 C.3   181  LEU181      0.0001
     53  CD2      -15.8060  218.4060   -6.3560 C.3   181  LEU181      0.0001
     54  N        -23.7520  220.7260   -9.7610 N.3   185  HIS185     -0.1241
     55  CA       -23.1920  220.0090  -10.8760 C.3   185  HIS185      0.1621
     56  C        -23.2400  220.9000  -12.1090 C.2   185  HIS185      0.2264
     57  O        -24.2280  221.6120  -12.3150 O.2   185  HIS185     -0.2867
     58  CB       -23.9970  218.7490  -11.1060 C.3   185  HIS185      0.0745
     59  CG       -23.3650  217.8100  -12.0800 C.ar  185  HIS185      0.0817
     60  ND1      -23.4890  217.9610  -13.4440 N.ar  185  HIS185     -0.2268
     61  CD2      -22.5970  216.7110  -11.8930 C.ar  185  HIS185      0.1154
     62  CE1      -22.8290  216.9930  -14.0550 C.ar  185  HIS185      0.1986
     63  NE2      -22.2810  216.2200  -13.1360 N.ar  185  HIS185     -0.2212
     64  N        -23.7010  220.3570  -15.2620 N.3   187  HIS187     -0.1226
     65  CA       -24.7920  220.0830  -16.1520 C.3   187  HIS187      0.1752
     66  C        -26.0980  220.7020  -15.6420 C.2   187  HIS187      0.2596
     67  O        -27.0150  220.9440  -16.4170 O.2   187  HIS187     -0.2718
     68  CB       -24.9050  218.5780  -16.3730 C.3   187  HIS187      0.0759
     69  CG       -25.8640  218.2010  -17.4520 C.ar  187  HIS187      0.0818
     70  ND1      -26.7210  217.1260  -17.3440 N.ar  187  HIS187     -0.2268
     71  CD2      -26.1290  218.7750  -18.6510 C.ar  187  HIS187      0.1154
     72  CE1      -27.4590  217.0400  -18.4390 C.ar  187  HIS187      0.1986
     73  NE2      -27.1230  218.0320  -19.2460 N.ar  187  HIS187     -0.2212
     74  N        -26.1660  220.9850  -14.3450 N.am  188  HIS188     -0.1975
     75  CA       -27.3590  221.5910  -13.7630 C.3   188  HIS188      0.1656
     76  C        -27.2490  223.0880  -13.6850 C.2   188  HIS188      0.2291
     77  O        -28.2620  223.7790  -13.6450 O.2   188  HIS188     -0.2864
     78  CB       -27.5960  221.1010  -12.3480 C.3   188  HIS188      0.0771
     79  CG       -27.7560  219.6270  -12.2380 C.ar  188  HIS188      0.0820
     80  ND1      -27.4870  218.9460  -11.0710 N.ar  188  HIS188     -0.2267
     81  CD2      -28.1350  218.6990  -13.1480 C.ar  188  HIS188      0.1154
     82  CE1      -27.7100  217.6590  -11.2640 C.ar  188  HIS188      0.1986
     83  NE2      -28.0970  217.4820  -12.5170 N.ar  188  HIS188     -0.2212
     84  N        -14.4780  221.1570  -12.3240 N.3   206  HIS206     -0.1241
     85  CA       -14.6590  219.7570  -12.7070 C.3   206  HIS206      0.1621
     86  C        -13.6480  219.3560  -13.7620 C.2   206  HIS206      0.2264
     87  O        -13.2220  218.2240  -13.8200 O.2   206  HIS206     -0.2867
     88  CB       -16.0760  219.4930  -13.1640 C.3   206  HIS206      0.0745
     89  CG       -17.0570  219.4540  -12.0400 C.ar  206  HIS206      0.0817
     90  ND1      -17.4070  220.5770  -11.3170 N.ar  206  HIS206     -0.2268
     91  CD2      -17.7570  218.4270  -11.5020 C.ar  206  HIS206      0.1154
     92  CE1      -18.2900  220.2480  -10.3870 C.ar  206  HIS206      0.1986
     93  NE2      -18.5200  218.9490  -10.4800 N.ar  206  HIS206     -0.2212
     94  N        -10.5870  218.3900  -11.7820 N.3   209  LEU209     -0.1245
     95  CA       -10.7620  217.0590  -11.2010 C.3   209  LEU209      0.1561
     96  C        -10.1290  215.9570  -12.0420 C.2   209  LEU209      0.2260
     97  O         -9.6870  214.9500  -11.5170 O.2   209  LEU209     -0.2867
     98  CB       -12.2410  216.7480  -11.0080 C.3   209  LEU209      0.0270
     99  CG       -12.8300  216.7890   -9.6050 C.3   209  LEU209      0.0019
    100  CD1      -14.3150  216.5120   -9.7000 C.3   209  LEU209      0.0001
    101  CD2      -12.1760  215.7450   -8.7220 C.3   209  LEU209      0.0001
    102  N        -28.6770  203.2870  -28.2410 N.3   246  ASN246     -0.1225
    103  CA       -29.9860  203.8700  -28.1170 C.3   246  ASN246      0.1785
    104  C        -29.9500  205.0430  -27.1570 C.2   246  ASN246      0.2597
    105  O        -30.1730  204.8980  -25.9660 O.2   246  ASN246     -0.2718
    106  CB       -30.9850  202.8290  -27.6660 C.3   246  ASN246      0.1169
    107  CG       -32.4120  203.2660  -27.8990 C.2   246  ASN246      0.2627
    108  OD1      -32.6720  204.4150  -28.2800 O.2   246  ASN246     -0.2716
    109  ND2      -33.3590  202.3490  -27.6860 N.am  246  ASN246     -0.0877
    110  N        -29.6750  206.2180  -27.7010 N.am  247  HIS247     -0.1962
    111  CA       -29.4460  207.4210  -26.9240 C.3   247  HIS247      0.1772
    112  C        -29.5980  208.6150  -27.8470 C.2   247  HIS247      0.2462
    113  O        -29.1680  208.5680  -28.9910 O.2   247  HIS247     -0.2730
    114  CB       -28.0330  207.3860  -26.3620 C.3   247  HIS247      0.0785
    115  CG       -27.6910  208.5640  -25.5120 C.ar  247  HIS247      0.0821
    116  ND1      -27.3980  209.8010  -26.0400 N.ar  247  HIS247     -0.2267
    117  CD2      -27.5800  208.6910  -24.1700 C.ar  247  HIS247      0.1154
    118  CE1      -27.1210  210.6390  -25.0590 C.ar  247  HIS247      0.1986
    119  NE2      -27.2270  209.9910  -23.9140 N.ar  247  HIS247     -0.2212
    120  N        -30.1980  209.6920  -27.3680 N.am  248  PRO248     -0.2727
    121  CA       -30.4330  210.8790  -28.1530 C.3   248  PRO248      0.1402
    122  C        -29.3000  211.2210  -29.0830 C.2   248  PRO248      0.2269
    123  O        -29.5390  211.3320  -30.2700 O.2   248  PRO248     -0.2865
    124  CB       -30.5600  211.9400  -27.1060 C.3   248  PRO248      0.0296
    125  CG       -31.2130  211.2380  -25.9880 C.3   248  PRO248      0.0237
    126  CD       -30.7860  209.8030  -26.0380 C.3   248  PRO248      0.0939
    127  N        -29.5520  209.4690  -32.0780 N.3   251  HIS251     -0.1241
    128  CA       -30.7300  209.8390  -32.8550 C.3   251  HIS251      0.1621
    129  C        -30.5210  211.1250  -33.6300 C.2   251  HIS251      0.2264
    130  O        -31.2950  211.4340  -34.5370 O.2   251  HIS251     -0.2867
    131  CB       -31.9870  209.9760  -32.0040 C.3   251  HIS251      0.0745
    132  CG       -32.2520  208.8210  -31.0970 C.ar  251  HIS251      0.0817
    133  ND1      -33.0210  208.9400  -29.9600 N.ar  251  HIS251     -0.2268
    134  CD2      -31.8450  207.5310  -31.1380 C.ar  251  HIS251      0.1154
    135  CE1      -33.0770  207.7730  -29.3390 C.ar  251  HIS251      0.1986
    136  NE2      -32.3690  206.9000  -30.0310 N.ar  251  HIS251     -0.2212
    137  N        -19.8440  216.7630  -19.4980 N.3   321  TYR321     -0.1227
    138  CA       -20.0380  216.2530  -18.1530 C.3   321  TYR321      0.1736
    139  C        -21.3660  215.5260  -18.0950 C.2   321  TYR321      0.2596
    140  O        -22.2370  215.8400  -17.2840 O.2   321  TYR321     -0.2718
    141  CB       -19.9750  217.3850  -17.1160 C.3   321  TYR321      0.0548
    142  CG       -18.6770  218.1600  -17.1370 C.ar  321  TYR321     -0.0200
    143  CD1      -17.4820  217.5660  -16.7580 C.ar  321  TYR321     -0.0009
    144  CD2      -18.6360  219.4750  -17.5450 C.ar  321  TYR321     -0.0009
    145  CE1      -16.2820  218.2590  -16.7860 C.ar  321  TYR321      0.0417
    146  CE2      -17.4330  220.1770  -17.5700 C.ar  321  TYR321      0.0417
    147  CZ       -16.2650  219.5530  -17.1870 C.ar  321  TYR321      0.1957
    148  OH       -15.0700  220.2170  -17.2060 O.3   321  TYR321     -0.2866
    149  N        -21.5400  214.5620  -18.9860 N.am  322  THR322     -0.1939
    150  CA       -22.7160  213.7080  -18.9490 C.3   322  THR322      0.2028
    151  C        -22.2770  212.3500  -18.4410 C.2   322  THR322      0.2642
    152  O        -21.0910  212.1110  -18.2390 O.2   322  THR322     -0.2714
    153  CB       -23.4040  213.5930  -20.3460 C.3   322  THR322      0.1808
    154  OG1      -22.4540  213.2010  -21.3520 O.3   322  THR322     -0.2208
    155  CG2      -24.0640  214.9250  -20.7580 C.3   322  THR322      0.0379
    156  N        -23.2320  211.4640  -18.2190 N.am  323  LYS323     -0.1963
    157  CA       -22.9230  210.1140  -17.7720 C.3   323  LYS323      0.1728
    158  C        -22.1320  209.3780  -18.8390 C.2   323  LYS323      0.2617
    159  O        -22.4500  209.4620  -20.0150 O.2   323  LYS323     -0.2715
    160  CB       -24.2100  209.3470  -17.4390 C.3   323  LYS323      0.0311
    161  CG       -24.0240  207.9980  -16.6900 C.3   323  LYS323      0.0038
    162  CD       -25.3840  207.2830  -16.4550 C.3   323  LYS323      0.0206
    163  CE       -25.3470  205.7890  -16.8790 C.3   323  LYS323      0.1093
    164  NZ       -25.4670  204.7950  -15.7540 N.3   323  LYS323     -0.1314
    165  N        -21.0930  208.6640  -18.4160 N.am  324  GLY324     -0.1940
    166  CA       -20.2890  207.8380  -19.3110 C.3   324  GLY324      0.2014
    167  C        -19.0100  208.5090  -19.7300 C.2   324  GLY324      0.2638
    168  O        -18.0820  207.8420  -20.1620 O.2   324  GLY324     -0.2714
    169  N        -18.9630  209.8320  -19.5820 N.am  325  ALA325     -0.1977
    170  CA       -17.8260  210.6480  -20.0050 C.3   325  ALA325      0.1597
    171  C        -16.5130  210.1400  -19.4420 C.2   325  ALA325      0.2287
    172  O        -16.4710  209.6010  -18.3490 O.2   325  ALA325     -0.2864
    173  CB       -18.0470  212.0860  -19.5910 C.3   325  ALA325      0.0319
    174  N        -23.0530  217.0170  -27.8840 N.3   343  GLY343     -0.1225
    175  CA       -23.5100  216.2270  -26.7560 C.3   343  GLY343      0.1811
    176  C        -23.8330  216.9910  -25.4900 C.2   343  GLY343      0.2280
    177  O        -24.8780  216.7540  -24.8770 O.2   343  GLY343     -0.2866
    178  N        -38.8810  201.8580  -31.6440 N.3   483  THR483     -0.1218
    179  CA       -37.7460  202.5580  -31.0570 C.3   483  THR483      0.1862
    180  C        -37.0270  203.4930  -32.0190 C.2   483  THR483      0.2287
    181  O        -36.2400  204.3200  -31.5850 O.2   483  THR483     -0.2866
    182  CB       -36.7120  201.5810  -30.4610 C.3   483  THR483      0.1770
    183  OG1      -36.1030  200.8090  -31.5020 O.3   483  THR483     -0.2211
    184  CG2      -37.3810  200.6400  -29.4800 C.3   483  THR483      0.0375
    185  N        -38.8840  216.9150  -20.3400 N.3   513  GLN513     -0.1245
    186  CA       -38.9140  216.5240  -18.9410 C.3   513  GLN513      0.1566
    187  C        -39.3460  217.7380  -18.1290 C.2   513  GLN513      0.2260
    188  O        -38.9820  218.8640  -18.4650 O.2   513  GLN513     -0.2867
    189  CB       -37.5370  216.0740  -18.4750 C.3   513  GLN513      0.0367
    190  CG       -36.8590  215.0740  -19.3750 C.3   513  GLN513      0.0905
    191  CD       -35.6070  214.5210  -18.7630 C.2   513  GLN513      0.2608
    192  OE1      -35.5870  214.1960  -17.5840 O.2   513  GLN513     -0.2717
    193  NE2      -34.5430  214.4110  -19.5640 N.am  513  GLN513     -0.0878
    194  N        -38.5270  218.9900  -15.2760 N.3   515  TYR515     -0.1241
    195  CA       -37.5050  219.8110  -14.6310 C.3   515  TYR515      0.1605
    196  C        -37.2300  221.1100  -15.3650 C.2   515  TYR515      0.2264
    197  O        -36.7450  222.0510  -14.7630 O.2   515  TYR515     -0.2867
    198  CB       -36.2060  219.0250  -14.3610 C.3   515  TYR515      0.0534
    199  CG       -35.2400  218.8720  -15.5310 C.ar  515  TYR515     -0.0201
    200  CD1      -34.2460  219.8390  -15.7870 C.ar  515  TYR515     -0.0009
    201  CD2      -35.2880  217.7490  -16.3640 C.ar  515  TYR515     -0.0009
    202  CE1      -33.3440  219.7050  -16.8680 C.ar  515  TYR515      0.0417
    203  CE2      -34.4020  217.6110  -17.4440 C.ar  515  TYR515      0.0417
    204  CZ       -33.4350  218.5940  -17.6950 C.ar  515  TYR515      0.1957
    205  OH       -32.5560  218.4440  -18.7580 O.3   515  TYR515     -0.2866
    206  N        -43.3370  213.0930  -16.6830 N.3   542  PHE542     -0.1241
    207  CA       -41.9200  212.9560  -16.9450 C.3   542  PHE542      0.1605
    208  C        -41.1080  213.6730  -15.8720 C.2   542  PHE542      0.2264
    209  O        -40.4760  214.7080  -16.1380 O.2   542  PHE542     -0.2867
    210  CB       -41.6360  213.5830  -18.3030 C.3   542  PHE542      0.0534
    211  CG       -40.4840  212.9710  -19.0500 C.ar  542  PHE542     -0.0203
    212  CD1      -40.3630  213.1730  -20.4200 C.ar  542  PHE542     -0.0042
    213  CD2      -39.5340  212.2010  -18.4100 C.ar  542  PHE542     -0.0042
    214  CE1      -39.3130  212.6330  -21.1360 C.ar  542  PHE542     -0.0003
    215  CE2      -38.4710  211.6520  -19.1240 C.ar  542  PHE542     -0.0003
    216  CZ       -38.3620  211.8690  -20.4840 C.ar  542  PHE542     -0.0000
    217  N        -45.1730  208.6860  -20.9790 N.3   569  VAL569     -0.1231
    218  CA       -44.0530  208.7920  -21.8990 C.3   569  VAL569      0.1692
    219  C        -44.1620  207.6690  -22.9110 C.2   569  VAL569      0.2592
    220  O        -44.5930  206.5780  -22.5680 O.2   569  VAL569     -0.2718
    221  CB       -42.7130  208.6360  -21.1930 C.3   569  VAL569      0.0266
    222  CG1      -41.6440  209.1720  -22.0840 C.3   569  VAL569      0.0020
    223  CG2      -42.6900  209.3650  -19.8370 C.3   569  VAL569      0.0020
    224  N        -43.7560  207.9280  -24.1470 N.am  570  ALA570     -0.1966
    225  CA       -43.9170  206.9530  -25.2160 C.3   570  ALA570      0.1713
    226  C        -42.5990  206.6140  -25.9140 C.2   570  ALA570      0.2458
    227  O        -41.6530  207.4010  -25.8460 O.2   570  ALA570     -0.2730
    228  CB       -44.8920  207.4870  -26.2140 C.3   570  ALA570      0.0333
    229  N        -42.5400  205.4590  -26.6190 N.am  571  PRO571     -0.2727
    230  CA       -41.4030  205.0220  -27.4320 C.3   571  PRO571      0.1402
    231  C        -41.0640  206.0530  -28.5100 C.2   571  PRO571      0.2269
    232  O        -41.9720  206.6860  -29.0330 O.2   571  PRO571     -0.2865
    233  CB       -41.9450  203.7750  -28.1010 C.3   571  PRO571      0.0296
    234  CG       -42.9740  203.3070  -27.2450 C.3   571  PRO571      0.0237
    235  CD       -43.6480  204.5100  -26.7350 C.3   571  PRO571      0.0939
@<TRIPOS>BOND
     1   130   129    2
     2   129   128    1
     3   128   127    1
     4   128   131    1
     5   180   181    2
     6   180   179    1
     7   131   132    1
     8   178   179    1
     9   183   182    1
    10   134   132   ar
    11   134   136   ar
    12   132   133   ar
    13   179   182    1
    14   182   184    1
    15   123   122    2
    16   136   135   ar
    17   133   135   ar
    18   122   121    1
    19   232   231    2
    20   113   112    2
    21   231   230    1
    22   108   107    2
    23   102   103    1
    24   121   120    1
    25   121   124    1
    26   103   106    1
    27   103   104    1
    28   233   230    1
    29   233   234    1
    30   107   109   am
    31   107   106    1
    32   174   175    1
    33   112   120   am
    34   112   111    1
    35   110   104   am
    36   110   111    1
    37   230   229    1
    38   120   126    1
    39   234   235    1
    40   104   105    2
    41   124   125    1
    42   111   114    1
    43   175   176    1
    44   235   229    1
    45   229   226   am
    46   114   115    1
    47   228   225    1
    48   116   115   ar
    49   116   118   ar
    50   126   125    1
    51   226   227    2
    52   226   225    1
    53   115   117   ar
    54   176   177    2
    55   225   224    1
    56   118   119   ar
    57   117   119   ar
    58   224   219   am
    59   219   220    2
    60   219   218    1
    61   222   221    1
    62   218   221    1
    63   218   217    1
    64   154   153    1
    65   221   223    1
    66   214   216   ar
    67   214   212   ar
    68   155   153    1
    69   216   215   ar
    70   212   211   ar
    71   153   150    1
    72   185   186    1
    73   168   167    2
    74   159   158    2
    75   170   173    1
    76   170   169    1
    77   170   171    1
    78   167   169   am
    79   167   166    1
    80   193   191   am
    81   137   138    1
    82   171   172    2
    83   190   191    1
    84   190   189    1
    85   166   165    1
    86    73    71   ar
    87    73    72   ar
    88   215   213   ar
    89   211   213   ar
    90   211   210    1
    91   149   150    1
    92   149   139   am
    93   150   151    1
    94   186   189    1
    95   186   187    1
    96   158   165   am
    97   158   157    1
    98   191   192    2
    99   205   204    1
   100    71    69   ar
   101   188   187    2
   102   151   152    2
   103   151   156   am
   104    72    70   ar
   105   210   207    1
   106   156   157    1
   107   138   139    1
   108   138   141    1
   109   139   140    2
   110   157   160    1
   111   204   203   ar
   112   204   202   ar
   113   146   144   ar
   114   146   147   ar
   115   144   142   ar
   116    69    70   ar
   117    69    68    1
   118   203   201   ar
   119   160   161    1
   120   148   147    1
   121   147   145   ar
   122   142   141    1
   123   142   143   ar
   124   207   206    1
   125   207   208    1
   126   163   162    1
   127   163   164    1
   128   202   200   ar
   129   145   143   ar
   130   161   162    1
   131    67    66    2
   132    68    65    1
   133   201   199   ar
   134    65    66    1
   135    65    64    1
   136   209   208    2
   137   200   199   ar
   138    66    74   am
   139   199   198    1
   140   196   197    2
   141   196   195    1
   142   194   195    1
   143   195   198    1
   144    74    75    1
   145    62    60   ar
   146    62    63   ar
   147    87    86    2
   148    75    76    1
   149    75    78    1
   150    86    85    1
   151    76    77    2
   152    60    59   ar
   153    88    85    1
   154    88    89    1
   155    81    83   ar
   156    81    79   ar
   157    63    61   ar
   158    85    84    1
   159    83    82   ar
   160    78    79    1
   161    57    56    2
   162    79    80   ar
   163    56    55    1
   164    59    61   ar
   165    59    58    1
   166    45    44   ar
   167    45    43   ar
   168    96    97    2
   169    96    95    1
   170    89    91   ar
   171    89    90   ar
   172    94    95    1
   173    44    42   ar
   174    91    93   ar
   175    90    92   ar
   176    82    80   ar
   177    95    98    1
   178    58    55    1
   179    31    30    2
   180    43    41   ar
   181    98    99    1
   182    55    54    1
   183    93    92   ar
   184    42    41   ar
   185    13    12    2
   186    30    29    1
   187    41    40    1
   188   100    99    1
   189    99   101    1
   190    29    32    1
   191    29    28    1
   192    22    21    2
   193    32    33    1
   194    18    16   ar
   195    39    38    2
   196    27    26    1
   197    12    11    1
   198    33    34   ar
   199    33    35   ar
   200    15    16    1
   201    15    14    1
   202    40    37    1
   203    16    17   ar
   204    21    28   am
   205    21    20    1
   206     4     3    2
   207    11    14    1
   208    11    10    1
   209    38    37    1
   210    37    36    1
   211    52    51    1
   212    26    25    1
   213    24    25    1
   214    24    23    1
   215     3    10   am
   216     3     2    1
   217    20    23    1
   218    20    19    1
   219    51    53    1
   220    51    50    1
   221     8     9    1
   222     8     7    1
   223     6     7    1
   224     6     5    1
   225     2     5    1
   226     2     1    1
   227    50    47    1
   228    47    48    1
   229    47    46    1
   230    48    49    2
