@<TRIPOS>MOLECULE
tmp/4xiiA00.pdb
 203 201 0 0 0
SMALL
GASTEIGER

@<TRIPOS>ATOM
      1  N          1.4940  -17.2050   -5.1260 N.3    66  ASN66      -0.1225
      2  CA         2.9370  -17.0790   -4.9420 C.3    66  ASN66       0.1785
      3  C          3.3700  -15.6180   -4.9740 C.2    66  ASN66       0.2597
      4  O          2.7640  -14.7940   -5.6590 O.2    66  ASN66      -0.2718
      5  CB         3.6970  -17.8650   -6.0050 C.3    66  ASN66       0.1169
      6  CG         3.4630  -19.3470   -5.9030 C.2    66  ASN66       0.2627
      7  OD1        3.6530  -19.9380   -4.8470 O.2    66  ASN66      -0.2716
      8  ND2        3.0310  -19.9570   -6.9940 N.am   66  ASN66      -0.0877
      9  N          4.4250  -15.3210   -4.2200 N.am   67  ILE67      -0.1966
     10  CA         4.9360  -13.9690   -4.0330 C.3    67  ILE67       0.1727
     11  C          6.2250  -13.7520   -4.8170 C.2    67  ILE67       0.2616
     12  O          7.0880  -14.6250   -4.8570 O.2    67  ILE67      -0.2715
     13  CB         5.2320  -13.6770   -2.5440 C.3    67  ILE67       0.0290
     14  CG1        4.0620  -14.0720   -1.6450 C.3    67  ILE67       0.0022
     15  CG2        5.5550  -12.2190   -2.3460 C.3    67  ILE67       0.0023
     16  CD1        2.7980  -13.3290   -1.9420 C.3    67  ILE67       0.0001
     17  N          6.3460  -12.5940   -5.4530 N.am   68  ASP68      -0.1957
     18  CA         7.5580  -12.2340   -6.1850 C.3    68  ASP68       0.1840
     19  C          8.6750  -11.7960   -5.2370 C.2    68  ASP68       0.2622
     20  O          8.6420  -10.6840   -4.6950 O.2    68  ASP68      -0.2715
     21  CB         7.2670  -11.1140   -7.1890 C.3    68  ASP68       0.1450
     22  CG         8.5090  -10.6640   -7.9570 C.2    68  ASP68       0.3671
     23  OD1        9.5220  -11.4010   -7.9770 O.co2  68  ASP68      -0.2456
     24  OD2        8.4660   -9.5530   -8.5360 O.co2  68  ASP68      -0.2456
     25  N          9.6650  -12.6600   -5.0390 N.am   69  GLN69      -0.1963
     26  CA        10.7890  -12.3170   -4.1760 C.3    69  GLN69       0.1733
     27  C         12.1310  -12.4100   -4.8810 C.2    69  GLN69       0.2617
     28  O         13.1500  -12.7160   -4.2650 O.2    69  GLN69      -0.2715
     29  CB        10.7750  -13.2060   -2.9500 C.3    69  GLN69       0.0408
     30  CG         9.5980  -12.9000   -2.0630 C.3    69  GLN69       0.0908
     31  CD         9.3620  -13.9910   -1.0820 C.2    69  GLN69       0.2608
     32  OE1        9.2690  -15.1580   -1.4600 O.2    69  GLN69      -0.2717
     33  NE2        9.2670  -13.6370    0.1870 N.am   69  GLN69      -0.0878
     34  N         12.1190  -12.1290   -6.1770 N.am   70  SER70      -0.1950
     35  CA        13.3330  -12.1530   -6.9710 C.3    70  SER70       0.1924
     36  C         14.2740  -11.0650   -6.4760 C.2    70  SER70       0.2314
     37  O         15.4870  -11.2440   -6.4700 O.2    70  SER70      -0.2863
     38  CB        13.0130  -11.9680   -8.4520 C.3    70  SER70       0.2116
     39  OG        12.0600  -12.9240   -8.8870 O.3    70  SER70      -0.2180
     40  N          4.0870   -4.8790   -6.2170 N.3    80  TRP80      -0.1241
     41  CA         3.0320   -5.6870   -6.8340 C.3    80  TRP80       0.1605
     42  C          2.6820   -6.8430   -5.9190 C.2    80  TRP80       0.2264
     43  O          1.6880   -7.5210   -6.1410 O.2    80  TRP80      -0.2867
     44  CB         3.4480   -6.2430   -8.2130 C.3    80  TRP80       0.0550
     45  CG         3.8620   -5.2110   -9.2040 C.ar   80  TRP80       0.0003
     46  CD1        5.1230   -4.9780   -9.6500 C.ar   80  TRP80       0.0946
     47  CD2        3.0170   -4.2590   -9.8690 C.ar   80  TRP80       0.0152
     48  NE1        5.1200   -3.9440  -10.5510 N.ar   80  TRP80      -0.2442
     49  CE2        3.8390   -3.4820  -10.6970 C.ar   80  TRP80       0.0810
     50  CE3        1.6450   -3.9920   -9.8400 C.ar   80  TRP80       0.0012
     51  CZ2        3.3380   -2.4520  -11.4870 C.ar   80  TRP80       0.0191
     52  CZ3        1.1490   -2.9750  -10.6210 C.ar   80  TRP80       0.0001
     53  CH2        1.9910   -2.2140  -11.4340 C.ar   80  TRP80       0.0015
     54  N         -4.5360   -6.9720  -12.8310 N.3   113  GLY113     -0.1210
     55  CA        -3.7670   -7.8250  -13.7020 C.3   113  GLY113      0.1956
     56  C         -2.8370   -8.7600  -12.9690 C.2   113  GLY113      0.2612
     57  O         -2.7740   -8.7690  -11.7440 O.2   113  GLY113     -0.2717
     58  N         -2.1060   -9.5350  -13.7580 N.am  114  GLY114     -0.1942
     59  CA        -1.2210  -10.5650  -13.2680 C.3   114  GLY114      0.2014
     60  C         -1.1830  -11.5710  -14.3940 C.2   114  GLY114      0.2639
     61  O         -1.5540  -11.2420  -15.5110 O.2   114  GLY114     -0.2714
     62  N         -0.7610  -12.7940  -14.1250 N.am  115  GLY115     -0.1954
     63  CA        -0.8010  -13.8110  -15.1550 C.3   115  GLY115      0.1869
     64  C         -2.0100  -14.6610  -14.8810 C.2   115  GLY115      0.2309
     65  O         -2.0050  -15.8600  -15.1580 O.2   115  GLY115     -0.2863
     66  N         -2.4000  -15.3970  -12.0490 N.3   117  GLN117     -0.1231
     67  CA        -1.7700  -16.1470  -10.9460 C.3   117  GLN117      0.1698
     68  C         -1.5590  -15.3110   -9.6890 C.2   117  GLN117      0.2592
     69  O         -1.3470  -15.8500   -8.6070 O.2   117  GLN117     -0.2718
     70  CB        -0.4100  -16.7220  -11.3780 C.3   117  GLN117      0.0381
     71  CG        -0.3670  -17.2520  -12.7900 C.3   117  GLN117      0.0905
     72  CD        -1.2130  -18.5000  -12.9760 C.2   117  GLN117      0.2608
     73  OE1       -0.9940  -19.5190  -12.3120 O.2   117  GLN117     -0.2717
     74  NE2       -2.1890  -18.4240  -13.8710 N.am  117  GLN117     -0.0878
     75  N         -1.5870  -13.9940   -9.8300 N.am  118  THR118     -0.1953
     76  CA        -1.2580  -13.1130   -8.7230 C.3   118  THR118      0.1897
     77  C         -2.1340  -11.8810   -8.7970 C.2   118  THR118      0.2313
     78  O         -2.9230  -11.7240   -9.7180 O.2   118  THR118     -0.2863
     79  CB         0.2230  -12.6340   -8.7360 C.3   118  THR118      0.1794
     80  OG1        0.4230  -11.6900   -9.8000 O.3   118  THR118     -0.2208
     81  CG2        1.2280  -13.8000   -8.8290 C.3   118  THR118      0.0378
     82  N         -3.8370    0.9620   -7.1310 N.3   126  TYR126     -0.1241
     83  CA        -5.2350    0.7490   -7.5220 C.3   126  TYR126      0.1605
     84  C         -6.2010    1.5620   -6.6630 C.2   126  TYR126      0.2264
     85  O         -7.3870    1.2670   -6.6180 O.2   126  TYR126     -0.2867
     86  CB        -5.6360   -0.7320   -7.4300 C.3   126  TYR126      0.0534
     87  CG        -4.7990   -1.6930   -8.2430 C.ar  126  TYR126     -0.0201
     88  CD1       -4.1620   -1.2790   -9.4030 C.ar  126  TYR126     -0.0009
     89  CD2       -4.6620   -3.0190   -7.8560 C.ar  126  TYR126     -0.0009
     90  CE1       -3.4050   -2.1490  -10.1450 C.ar  126  TYR126      0.0417
     91  CE2       -3.8990   -3.8980   -8.5900 C.ar  126  TYR126      0.0417
     92  CZ        -3.2780   -3.4590   -9.7380 C.ar  126  TYR126      0.1957
     93  OH        -2.5130   -4.3250  -10.4850 O.3   126  TYR126     -0.2866
     94  N         -6.0320   -4.0030  -16.3410 N.3   195  GLU195     -0.1231
     95  CA        -4.7500   -3.9910  -17.0160 C.3   195  GLU195      0.1699
     96  C         -4.2220   -5.4140  -17.1970 C.2   195  GLU195      0.2592
     97  O         -4.2900   -6.2230  -16.2800 O.2   195  GLU195     -0.2718
     98  CB        -3.7620   -3.1340  -16.2340 C.3   195  GLU195      0.0402
     99  CG        -2.4500   -2.9130  -16.9480 C.3   195  GLU195      0.1161
    100  CD        -1.3920   -3.8980  -16.5090 C.2   195  GLU195      0.3649
    101  OE1       -1.6700   -4.7010  -15.5880 O.co2 195  GLU195     -0.2457
    102  OE2       -0.2830   -3.8720  -17.0910 O.co2 195  GLU195     -0.2457
    103  N         -3.7180   -5.7150  -18.3880 N.am  196  SER196     -0.1952
    104  CA        -3.1520   -7.0240  -18.6970 C.3   196  SER196      0.1924
    105  C         -4.1630   -8.1630  -18.5520 C.2   196  SER196      0.2314
    106  O         -5.1440   -8.2110  -19.2860 O.2   196  SER196     -0.2863
    107  CB        -1.9370   -7.2510  -17.8240 C.3   196  SER196      0.2116
    108  OG        -1.1190   -8.2860  -18.3370 O.3   196  SER196     -0.2180
    109  N         -0.8630  -15.5140  -24.5200 N.3   229  TRP229     -0.1241
    110  CA        -0.7850  -16.0350  -23.1610 C.3   229  TRP229      0.1605
    111  C         -2.1350  -16.0590  -22.4650 C.2   229  TRP229      0.2264
    112  O         -2.2550  -16.6010  -21.3750 O.2   229  TRP229     -0.2867
    113  CB         0.1950  -15.1940  -22.3270 C.3   229  TRP229      0.0550
    114  CG        -0.0190  -13.6920  -22.4620 C.ar  229  TRP229      0.0003
    115  CD1        0.6710  -12.8420  -23.2700 C.ar  229  TRP229      0.0946
    116  CD2       -0.9820  -12.8840  -21.7680 C.ar  229  TRP229      0.0152
    117  NE1        0.1970  -11.5540  -23.1350 N.ar  229  TRP229     -0.2442
    118  CE2       -0.8180  -11.5550  -22.2190 C.ar  229  TRP229      0.0810
    119  CE3       -1.9660  -13.1540  -20.8150 C.ar  229  TRP229      0.0012
    120  CZ2       -1.6030  -10.5030  -21.7480 C.ar  229  TRP229      0.0191
    121  CZ3       -2.7410  -12.1070  -20.3500 C.ar  229  TRP229      0.0001
    122  CH2       -2.5570  -10.8010  -20.8190 C.ar  229  TRP229      0.0015
    123  N          8.7140  -16.5310  -18.0040 N.3   283  PRO283     -0.2102
    124  CA         8.0440  -15.6180  -17.0720 C.3   283  PRO283      0.1504
    125  C          6.6970  -15.1270  -17.6060 C.2   283  PRO283      0.2576
    126  O          6.0150  -14.3750  -16.9180 O.2   283  PRO283     -0.2718
    127  CB         9.0330  -14.4540  -16.9420 C.3   283  PRO283      0.0282
    128  CG        10.3480  -15.0050  -17.4080 C.3   283  PRO283      0.0208
    129  CD         9.9890  -15.9710  -18.4890 C.3   283  PRO283      0.0893
    130  N          6.3370  -15.5150  -18.8260 N.am  284  LEU284     -0.1966
    131  CA         5.0440  -15.1430  -19.3970 C.3   284  LEU284      0.1728
    132  C          4.0460  -16.2820  -19.3630 C.2   284  LEU284      0.2617
    133  O          2.9710  -16.1890  -19.9430 O.2   284  LEU284     -0.2715
    134  CB         5.2020  -14.6870  -20.8470 C.3   284  LEU284      0.0311
    135  CG         5.6670  -13.2590  -21.0720 C.3   284  LEU284      0.0022
    136  CD1        6.6990  -13.2370  -22.1720 C.3   284  LEU284      0.0001
    137  CD2        4.4670  -12.4100  -21.4310 C.3   284  LEU284      0.0001
    138  N          4.3970  -17.3600  -18.6780 N.am  285  SER285     -0.1936
    139  CA         3.5340  -18.5280  -18.6450 C.3   285  SER285      0.2055
    140  C          2.3360  -18.2900  -17.7400 C.2   285  SER285      0.2642
    141  O          2.4750  -17.8160  -16.6060 O.2   285  SER285     -0.2714
    142  CB         4.3180  -19.7600  -18.1890 C.3   285  SER285      0.2130
    143  OG         5.1960  -20.2090  -19.2090 O.3   285  SER285     -0.2179
    144  N          1.1570  -18.6150  -18.2560 N.am  286  VAL286     -0.1977
    145  CA        -0.0560  -18.5900  -17.4580 C.3   286  VAL286      0.1596
    146  C         -0.3630  -20.0270  -17.1220 C.2   286  VAL286      0.2287
    147  O         -0.9870  -20.7430  -17.9090 O.2   286  VAL286     -0.2864
    148  CB        -1.2330  -17.9360  -18.1960 C.3   286  VAL286      0.0276
    149  CG1       -2.5160  -18.1130  -17.4160 C.3   286  VAL286      0.0022
    150  CG2       -0.9480  -16.4500  -18.4280 C.3   286  VAL286      0.0022
    151  N         10.0140   -5.7760  -18.8690 N.3   326  ALA326     -0.1231
    152  CA         9.8130   -6.3320  -17.5280 C.3   326  ALA326      0.1694
    153  C         10.1130   -7.8280  -17.4470 C.2   326  ALA326      0.2592
    154  O         10.5790   -8.3100  -16.4240 O.2   326  ALA326     -0.2718
    155  CB         8.3990   -6.0730  -17.0690 C.3   326  ALA326      0.0304
    156  N          9.8460   -8.5500  -18.5310 N.am  327  PHE327     -0.1976
    157  CA         9.9300  -10.0100  -18.5350 C.3   327  PHE327      0.1639
    158  C         11.3150  -10.5270  -18.8790 C.2   327  PHE327      0.2290
    159  O         11.6290  -11.6880  -18.6300 O.2   327  PHE327     -0.2864
    160  CB         8.9100  -10.5850  -19.5120 C.3   327  PHE327      0.0560
    161  CG         7.5070  -10.1420  -19.2340 C.ar  327  PHE327     -0.0200
    162  CD1        7.0120   -8.9760  -19.7930 C.ar  327  PHE327     -0.0042
    163  CD2        6.6900  -10.8780  -18.3930 C.ar  327  PHE327     -0.0042
    164  CE1        5.7340   -8.5640  -19.5270 C.ar  327  PHE327     -0.0003
    165  CE2        5.4010  -10.4710  -18.1260 C.ar  327  PHE327     -0.0003
    166  CZ         4.9230   -9.3160  -18.6950 C.ar  327  PHE327     -0.0000
    167  N         13.7100  -11.3380  -15.8010 N.3   330  TYR330     -0.1241
    168  CA        13.3200  -12.4720  -14.9750 C.3   330  TYR330      0.1605
    169  C         13.6180  -13.7970  -15.6420 C.2   330  TYR330      0.2264
    170  O         12.8720  -14.7530  -15.4520 O.2   330  TYR330     -0.2867
    171  CB        11.8240  -12.4350  -14.6650 C.3   330  TYR330      0.0534
    172  CG        11.3770  -11.4910  -13.5740 C.ar  330  TYR330     -0.0201
    173  CD1       10.9200  -10.2170  -13.8700 C.ar  330  TYR330     -0.0009
    174  CD2       11.3730  -11.8940  -12.2480 C.ar  330  TYR330     -0.0009
    175  CE1       10.4880   -9.3620  -12.8770 C.ar  330  TYR330      0.0417
    176  CE2       10.9410  -11.0470  -11.2440 C.ar  330  TYR330      0.0417
    177  CZ        10.5000   -9.7820  -11.5620 C.ar  330  TYR330      0.1957
    178  OH        10.0730   -8.9400  -10.5560 O.3   330  TYR330     -0.2866
    179  N          1.7160   -8.3090  -26.4600 N.3   396  PHE396     -0.1241
    180  CA         0.7790   -7.2560  -26.0800 C.3   396  PHE396      0.1605
    181  C          0.2750   -6.3530  -27.2100 C.2   396  PHE396      0.2264
    182  O         -0.9340   -6.2370  -27.4130 O.2   396  PHE396     -0.2867
    183  CB         1.4200   -6.4190  -24.9770 C.3   396  PHE396      0.0534
    184  CG         1.6720   -7.2060  -23.7260 C.ar  396  PHE396     -0.0203
    185  CD1        0.6600   -7.3890  -22.8020 C.ar  396  PHE396     -0.0042
    186  CD2        2.8910   -7.8290  -23.5130 C.ar  396  PHE396     -0.0042
    187  CE1        0.8720   -8.1330  -21.6670 C.ar  396  PHE396     -0.0003
    188  CE2        3.1080   -8.5830  -22.3780 C.ar  396  PHE396     -0.0003
    189  CZ         2.1010   -8.7350  -21.4510 C.ar  396  PHE396     -0.0000
    190  N          5.6770   -2.4040  -18.7980 N.3   436  HIS436     -0.1226
    191  CA         4.4230   -3.0630  -18.4930 C.3   436  HIS436      0.1752
    192  C          3.9020   -2.6140  -17.1300 C.2   436  HIS436      0.2596
    193  O          4.6110   -2.6810  -16.1260 O.2   436  HIS436     -0.2718
    194  CB         4.6370   -4.5790  -18.5210 C.3   436  HIS436      0.0759
    195  CG         3.3830   -5.3890  -18.3930 C.ar  436  HIS436      0.0818
    196  ND1        2.3670   -5.3430  -19.3230 N.ar  436  HIS436     -0.2268
    197  CD2        3.0030   -6.2960  -17.4650 C.ar  436  HIS436      0.1154
    198  CE1        1.4060   -6.1750  -18.9610 C.ar  436  HIS436      0.1986
    199  NE2        1.7670   -6.7630  -17.8360 N.ar  436  HIS436     -0.2212
    200  N          2.6750   -2.1140  -17.1130 N.am  437  GLY437     -0.1957
    201  CA         2.0110   -1.7980  -15.8680 C.3   437  GLY437      0.1869
    202  C          2.1970   -0.4090  -15.2870 C.2   437  GLY437      0.2309
    203  O          1.5170   -0.0500  -14.3380 O.2   437  GLY437     -0.2863
@<TRIPOS>BOND
     1   182   181    2
     2   181   180    1
     3   179   180    1
     4   180   183    1
     5   183   184    1
     6   109   110    1
     7   184   186   ar
     8   184   185   ar
     9   186   188   ar
    10   115   117   ar
    11   115   114   ar
    12   110   111    1
    13   110   113    1
    14   117   118   ar
    15   185   187   ar
    16   111   112    2
    17   114   113    1
    18   114   116   ar
    19   188   189   ar
    20   118   116   ar
    21   118   120   ar
    22   136   135    1
    23   116   119   ar
    24   120   122   ar
    25   187   189   ar
    26   137   135    1
    27   135   134    1
    28   134   131    1
    29   122   121   ar
    30   119   121   ar
    31   133   132    2
    32   162   164   ar
    33   162   161   ar
    34   164   166   ar
    35   160   161    1
    36   160   157    1
    37   131   132    1
    38   131   130    1
    39   132   138   am
    40   196   198   ar
    41   196   195   ar
    42   106   105    2
    43   161   163   ar
    44   143   142    1
    45   198   199   ar
    46   158   159    2
    47   158   157    1
    48   151   152    1
    49   130   125   am
    50   190   191    1
    51   104   105    1
    52   104   103    1
    53   104   107    1
    54   166   165   ar
    55   138   139    1
    56   139   142    1
    57   139   140    1
    58   157   156    1
    59   156   153   am
    60   194   191    1
    61   194   195    1
    62   191   192    1
    63   129   123    1
    64   129   128    1
    65   150   148    1
    66   195   197   ar
    67   163   165   ar
    68   103    96   am
    69   108   107    1
    70   144   140   am
    71   144   145    1
    72   148   145    1
    73   148   149    1
    74   123   124    1
    75   147   146    2
    76   199   197   ar
    77   140   141    2
    78   125   124    1
    79   125   126    2
    80   152   153    1
    81   152   155    1
    82   145   146    1
    83   153   154    2
    84   128   127    1
    85    96    95    1
    86    96    97    2
    87   192   200   am
    88   192   193    2
    89   200   201    1
    90   102   100   ar
    91   124   127    1
    92    95    94    1
    93    95    98    1
    94    99   100    1
    95    99    98    1
    96   100   101   ar
    97   201   202    1
    98   167   168    1
    99   169   170    2
   100   169   168    1
   101    61    60    2
   102   202   203    2
   103    65    64    2
   104    63    64    1
   105    63    62    1
   106   168   171    1
   107   171   172    1
   108    60    62   am
   109    60    59    1
   110    74    72   am
   111   173   172   ar
   112   173   175   ar
   113    58    59    1
   114    58    56   am
   115    55    56    1
   116    55    54    1
   117   172   174   ar
   118    72    71    1
   119    72    73    2
   120    56    57    2
   121   175   177   ar
   122    71    70    1
   123   174   176   ar
   124    66    67    1
   125   177   176   ar
   126   177   178    1
   127    51    53   ar
   128    51    49   ar
   129    53    52   ar
   130    70    67    1
   131    67    68    1
   132    49    48   ar
   133    49    47   ar
   134    52    50   ar
   135    48    46   ar
   136    93    92    1
   137    90    92   ar
   138    90    88   ar
   139    47    50   ar
   140    47    45   ar
   141    75    68   am
   142    75    76    1
   143    80    79    1
   144    92    91   ar
   145    78    77    2
   146    68    69    2
   147    46    45   ar
   148    88    87   ar
   149    45    44    1
   150    39    38    1
   151    81    79    1
   152    77    76    1
   153    79    76    1
   154    91    89   ar
   155    24    22   ar
   156    38    35    1
   157    87    89   ar
   158    87    86    1
   159    44    41    1
   160    23    22   ar
   161    22    21    1
   162    83    86    1
   163    83    82    1
   164    83    84    1
   165    21    18    1
   166     8     6   am
   167    35    36    1
   168    35    34    1
   169    41    40    1
   170    41    42    1
   171    84    85    2
   172    36    37    2
   173    18    17    1
   174    18    19    1
   175    34    27   am
   176    43    42    2
   177     5     6    1
   178     5     2    1
   179     6     7    2
   180     4     3    2
   181    17    11   am
   182    19    25   am
   183    19    20    2
   184     1     2    1
   185    25    26    1
   186     3     2    1
   187     3     9   am
   188    27    28    2
   189    27    26    1
   190    12    11    2
   191    11    10    1
   192     9    10    1
   193    26    29    1
   194    10    13    1
   195    29    30    1
   196    13    15    1
   197    13    14    1
   198    30    31    1
   199    16    14    1
   200    32    31    2
   201    31    33   am
