@<TRIPOS>MOLECULE
tmp/4xipA00.pdb
 166 155 0 0 0
SMALL
GASTEIGER

@<TRIPOS>ATOM
      1  N         -0.7910  -11.6010  -16.3310 N.3    33  LEU33      -0.1245
      2  CA        -1.3150  -12.1890  -17.5700 C.3    33  LEU33       0.1561
      3  C         -2.5810  -11.4650  -18.0120 C.2    33  LEU33       0.2260
      4  O         -2.7500  -11.2050  -19.2060 O.2    33  LEU33      -0.2867
      5  CB        -1.4880  -13.7240  -17.4620 C.3    33  LEU33       0.0270
      6  CG        -0.1950  -14.5160  -17.0570 C.3    33  LEU33       0.0019
      7  CD1       -0.4750  -15.9930  -16.9260 C.3    33  LEU33       0.0001
      8  CD2        0.9570  -14.3310  -18.0520 C.3    33  LEU33       0.0001
      9  N         -1.4980   -8.2260  -19.6320 N.3    36  ASN36      -0.1225
     10  CA        -1.0330   -8.4950  -21.0130 C.3    36  ASN36       0.1785
     11  C         -2.2620   -8.5880  -21.9410 C.2    36  ASN36       0.2597
     12  O         -2.2590   -7.9580  -22.9990 O.2    36  ASN36      -0.2718
     13  CB        -0.2150   -9.7880  -21.0890 C.3    36  ASN36       0.1169
     14  CG         1.1960   -9.7180  -20.5350 C.2    36  ASN36       0.2627
     15  OD1        1.8000   -8.6540  -20.3280 O.2    36  ASN36      -0.2716
     16  ND2        1.7520  -10.8760  -20.2780 N.am   36  ASN36      -0.0877
     17  N         -3.3370   -9.2960  -21.4870 N.am   37  SER37      -0.1952
     18  CA        -4.5940   -9.4610  -22.2300 C.3    37  SER37       0.1924
     19  C         -5.2860   -8.1040  -22.4290 C.2    37  SER37       0.2314
     20  O         -5.6420   -7.7660  -23.5550 O.2    37  SER37      -0.2863
     21  CB        -5.5130  -10.4460  -21.5140 C.3    37  SER37       0.2116
     22  OG        -4.9940  -11.7630  -21.6110 O.3    37  SER37      -0.2180
     23  N         -3.4710   -5.9750  -24.9770 N.3    40  ALA40      -0.1245
     24  CA        -3.7420   -6.5340  -26.3150 C.3    40  ALA40       0.1562
     25  C         -5.1400   -6.1420  -26.8040 C.2    40  ALA40       0.2260
     26  O         -5.3180   -5.8670  -27.9980 O.2    40  ALA40      -0.2867
     27  CB        -3.6050   -8.0420  -26.2810 C.3    40  ALA40       0.0290
     28  N         -5.2030   -2.4540  -27.7890 N.3    43  LYS43      -0.1245
     29  CA        -4.5490   -2.3090  -29.0960 C.3    43  LYS43       0.1561
     30  C         -5.4730   -2.5960  -30.2670 C.2    43  LYS43       0.2260
     31  O         -5.5330   -1.7710  -31.1890 O.2    43  LYS43      -0.2867
     32  CB        -3.2620   -3.1420  -29.1780 C.3    43  LYS43       0.0271
     33  CG        -2.1230   -2.5760  -28.3370 C.3    43  LYS43       0.0035
     34  CD        -0.9450   -3.5500  -28.3160 C.3    43  LYS43       0.0206
     35  CE         0.0840   -3.1720  -27.2770 C.3    43  LYS43       0.1093
     36  NZ         1.2130   -4.1420  -27.2570 N.3    43  LYS43      -0.1314
     37  N         -7.9260  -14.3800  -24.3990 N.3    78  ASP78      -0.1239
     38  CA        -8.3410  -13.0240  -24.7370 C.3    78  ASP78       0.1674
     39  C         -8.5980  -12.9390  -26.2300 C.2    78  ASP78       0.2266
     40  O         -8.0480  -13.7340  -27.0040 O.2    78  ASP78      -0.2867
     41  CB        -7.3340  -11.9510  -24.2660 C.3    78  ASP78       0.1410
     42  CG        -6.0120  -11.9470  -24.9980 C.2    78  ASP78       0.3668
     43  OD1       -6.0050  -11.6300  -26.2090 O.co2  78  ASP78      -0.2456
     44  OD2       -4.9810  -12.2460  -24.3580 O.co2  78  ASP78      -0.2456
     45  N         -5.3330   -8.2410  -29.8470 N.3    81  ILE81      -0.1231
     46  CA        -4.6650   -8.1300  -31.1490 C.3    81  ILE81       0.1692
     47  C         -3.8980   -9.4150  -31.5720 C.2    81  ILE81       0.2593
     48  O         -3.6750   -9.6140  -32.7640 O.2    81  ILE81      -0.2718
     49  CB        -3.7520   -6.8650  -31.1720 C.3    81  ILE81       0.0266
     50  CG1       -3.4500   -6.4150  -32.6400 C.3    81  ILE81       0.0019
     51  CG2       -2.4630   -7.0260  -30.3100 C.3    81  ILE81       0.0020
     52  CD1       -3.0710   -4.9390  -32.8090 C.3    81  ILE81       0.0001
     53  N         -3.4950  -10.2430  -30.6000 N.am   82  GLY82      -0.1942
     54  CA        -2.7330  -11.4560  -30.8800 C.3    82  GLY82       0.2014
     55  C         -1.2860  -11.1170  -31.1800 C.2    82  GLY82       0.2638
     56  O         -0.8510   -9.9670  -31.0150 O.2    82  GLY82      -0.2714
     57  N         -0.5240  -12.1280  -31.6070 N.am   83  MET83      -0.1976
     58  CA         0.8910  -11.9850  -31.9170 C.3    83  MET83       0.1605
     59  C          1.2260  -12.6750  -33.2120 C.2    83  MET83       0.2287
     60  O          0.7430  -13.7760  -33.4680 O.2    83  MET83      -0.2864
     61  CB         1.7570  -12.5710  -30.7820 C.3    83  MET83       0.0413
     62  CG         1.7300  -11.7380  -29.4770 C.3    83  MET83       0.0598
     63  SD         2.4830  -12.5710  -28.0530 S.3    83  MET83      -0.1393
     64  CE         1.1880  -13.6790  -27.6060 C.3    83  MET83       0.0692
     65  N          6.4710  -13.3560  -31.7100 N.3    88  LEU88      -0.1245
     66  CA         6.8340  -14.5190  -30.8960 C.3    88  LEU88       0.1561
     67  C          8.3100  -14.8560  -30.8600 C.2    88  LEU88       0.2260
     68  O          8.7990  -15.2350  -29.8010 O.2    88  LEU88      -0.2867
     69  CB         6.0680  -15.7830  -31.3410 C.3    88  LEU88       0.0270
     70  CG         4.5640  -15.8450  -31.1640 C.3    88  LEU88       0.0019
     71  CD1        4.0440  -17.0650  -31.8750 C.3    88  LEU88       0.0001
     72  CD2        4.1620  -15.9580  -29.6790 C.3    88  LEU88       0.0001
     73  N          9.0650   -9.3000  -29.3620 N.3    92  LEU92      -0.1231
     74  CA         8.8490   -9.2450  -27.9080 C.3    92  LEU92       0.1693
     75  C         10.1070   -9.5910  -27.1130 C.2    92  LEU92       0.2592
     76  O         10.3020   -8.9930  -26.0560 O.2    92  LEU92      -0.2718
     77  CB         7.6320  -10.0560  -27.4580 C.3    92  LEU92       0.0284
     78  CG         6.3050   -9.3750  -27.8440 C.3    92  LEU92       0.0019
     79  CD1        5.1900  -10.3530  -27.9070 C.3    92  LEU92       0.0001
     80  CD2        5.9580   -8.1980  -26.9150 C.3    92  LEU92       0.0001
     81  N         10.9660  -10.4610  -27.6550 N.am   93  GLY93      -0.1957
     82  CA        12.2420  -10.8530  -27.0560 C.3    93  GLY93       0.1869
     83  C         13.1880   -9.6730  -26.9520 C.2    93  GLY93       0.2309
     84  O         13.8850   -9.5370  -25.9380 O.2    93  GLY93      -0.2863
     85  N         12.2990   -6.3580  -26.7310 N.3    95  ILE95      -0.1231
     86  CA        11.8270   -5.4840  -25.6380 C.3    95  ILE95       0.1692
     87  C         12.0290   -6.1900  -24.2720 C.2    95  ILE95       0.2591
     88  O         12.3400   -5.5150  -23.2800 O.2    95  ILE95      -0.2718
     89  CB        10.3880   -4.8770  -25.8280 C.3    95  ILE95       0.0266
     90  CG1        9.2730   -5.9270  -25.9930 C.3    95  ILE95       0.0019
     91  CG2       10.3490   -3.8830  -26.9930 C.3    95  ILE95       0.0020
     92  CD1        8.5150   -6.2790  -24.7390 C.3    95  ILE95       0.0001
     93  N         11.8920   -7.5310  -24.2380 N.am   96  ALA96      -0.1980
     94  CA        12.0770   -8.3290  -23.0230 C.3    96  ALA96       0.1597
     95  C         13.5160   -8.2680  -22.4810 C.2    96  ALA96       0.2287
     96  O         13.6780   -8.2730  -21.2600 O.2    96  ALA96      -0.2864
     97  CB        11.6340   -9.7620  -23.2370 C.3    96  ALA96       0.0319
     98  N          7.7730   -4.5530  -18.1870 N.3   120  GLY120     -0.1210
     99  CA         7.1600   -5.1420  -19.3770 C.3   120  GLY120      0.1956
    100  C          7.4440   -6.6080  -19.6300 C.2   120  GLY120      0.2611
    101  O          7.2290   -7.0900  -20.7520 O.2   120  GLY120     -0.2717
    102  N          7.9240   -7.3310  -18.5900 N.am  121  VAL121     -0.1979
    103  CA         8.2650   -8.7610  -18.6720 C.3   121  VAL121      0.1595
    104  C          7.3590   -9.6120  -17.7410 C.2   121  VAL121      0.2287
    105  O          7.7200  -10.7490  -17.4010 O.2   121  VAL121     -0.2864
    106  CB         9.7910   -9.0510  -18.4800 C.3   121  VAL121      0.0276
    107  CG1       10.6020   -8.4890  -19.6420 C.3   121  VAL121      0.0022
    108  CG2       10.3300   -8.5300  -17.1430 C.3   121  VAL121      0.0022
    109  N          4.7480  -11.3230  -18.3510 N.3   123  PHE123     -0.1227
    110  CA         4.3960  -12.6520  -18.8910 C.3   123  PHE123      0.1736
    111  C          5.2200  -13.7690  -18.1920 C.2   123  PHE123      0.2595
    112  O          4.6710  -14.8250  -17.8750 O.2   123  PHE123     -0.2718
    113  CB         4.6730  -12.7090  -20.4170 C.3   123  PHE123      0.0547
    114  CG         4.6650  -14.1250  -20.9500 C.ar  123  PHE123     -0.0202
    115  CD1        3.4620  -14.7910  -21.1860 C.ar  123  PHE123     -0.0042
    116  CD2        5.8630  -14.8110  -21.1720 C.ar  123  PHE123     -0.0042
    117  CE1        3.4560  -16.1210  -21.6440 C.ar  123  PHE123     -0.0003
    118  CE2        5.8590  -16.1400  -21.6330 C.ar  123  PHE123     -0.0003
    119  CZ         4.6570  -16.7840  -21.8610 C.ar  123  PHE123     -0.0000
    120  N          6.5340  -13.5220  -17.9690 N.am  124  TYR124     -0.1976
    121  CA         7.4500  -14.5050  -17.3770 C.3   124  TYR124      0.1639
    122  C          7.0960  -14.8730  -15.9260 C.2   124  TYR124      0.2290
    123  O          7.5590  -15.9260  -15.4680 O.2   124  TYR124     -0.2864
    124  CB         8.9100  -14.0780  -17.5470 C.3   124  TYR124      0.0560
    125  CG         9.3010  -14.1730  -19.0070 C.ar  124  TYR124     -0.0198
    126  CD1        9.6010  -15.4060  -19.5920 C.ar  124  TYR124     -0.0009
    127  CD2        9.3210  -13.0380  -19.8210 C.ar  124  TYR124     -0.0009
    128  CE1        9.8980  -15.5110  -20.9560 C.ar  124  TYR124      0.0417
    129  CE2        9.6350  -13.1280  -21.1870 C.ar  124  TYR124      0.0417
    130  CZ         9.9250  -14.3690  -21.7460 C.ar  124  TYR124      0.1957
    131  OH        10.2480  -14.4880  -23.0800 O.3   124  TYR124     -0.2866
    132  N          1.4920  -21.0150  -25.5030 N.3   135  VAL135     -0.1245
    133  CA         0.8500  -19.7890  -25.9560 C.3   135  VAL135      0.1561
    134  C          0.3320  -20.0290  -27.3650 C.2   135  VAL135      0.2260
    135  O          1.1340  -20.2210  -28.2870 O.2   135  VAL135     -0.2867
    136  CB         1.8100  -18.5470  -25.8680 C.3   135  VAL135      0.0252
    137  CG1        1.1620  -17.2850  -26.4430 C.3   135  VAL135      0.0019
    138  CG2        2.3030  -18.2980  -24.4330 C.3   135  VAL135      0.0019
    139  N          3.4290  -21.3990  -29.3530 N.3   147  TRP147     -0.1241
    140  CA         4.7300  -21.1230  -28.7320 C.3   147  TRP147      0.1605
    141  C          4.7200  -21.9840  -27.4680 C.2   147  TRP147      0.2264
    142  O          3.6770  -22.0980  -26.8200 O.2   147  TRP147     -0.2867
    143  CB         4.8340  -19.6260  -28.3390 C.3   147  TRP147      0.0550
    144  CG         6.0780  -19.2000  -27.5910 C.ar  147  TRP147      0.0003
    145  CD1        7.1570  -18.5490  -28.1150 C.ar  147  TRP147      0.0946
    146  CD2        6.3280  -19.3120  -26.1720 C.ar  147  TRP147      0.0152
    147  NE1        8.0680  -18.2600  -27.1210 N.ar  147  TRP147     -0.2442
    148  CE2        7.5930  -18.7260  -25.9210 C.ar  147  TRP147      0.0810
    149  CE3        5.5960  -19.8400  -25.0790 C.ar  147  TRP147      0.0012
    150  CZ2        8.1450  -18.6420  -24.6270 C.ar  147  TRP147      0.0191
    151  CZ3        6.1540  -19.7850  -23.8020 C.ar  147  TRP147      0.0001
    152  CH2        7.4060  -19.1790  -23.5830 C.ar  147  TRP147      0.0015
    153  N         -5.2050  -14.4520  -28.0460 N.3   169  THR169     -0.1218
    154  CA        -4.1860  -15.2750  -27.4040 C.3   169  THR169      0.1862
    155  C         -4.7740  -16.1350  -26.2950 C.2   169  THR169      0.2287
    156  O         -5.6520  -15.6830  -25.5570 O.2   169  THR169     -0.2866
    157  CB        -3.0560  -14.3410  -26.8690 C.3   169  THR169      0.1770
    158  OG1       -2.5390  -13.5440  -27.9450 O.3   169  THR169     -0.2211
    159  CG2       -1.8940  -15.0940  -26.1720 C.3   169  THR169      0.0375
    160  N         -3.1250  -18.3550  -23.1270 N.3   171  VAL171     -0.1245
    161  CA        -1.9090  -18.6530  -22.3540 C.3   171  VAL171      0.1561
    162  C         -2.3130  -19.8470  -21.4720 C.2   171  VAL171      0.2260
    163  O         -3.1110  -19.6830  -20.5520 O.2   171  VAL171     -0.2867
    164  CB        -1.3490  -17.4500  -21.5430 C.3   171  VAL171      0.0252
    165  CG1       -0.1440  -17.8680  -20.6900 C.3   171  VAL171      0.0019
    166  CG2       -0.9860  -16.2760  -22.4630 C.3   171  VAL171      0.0019
@<TRIPOS>BOND
     1    60    59    2
     2    59    58    1
     3    52    50    1
     4    48    47    2
     5    50    49    1
     6    58    57    1
     7    58    61    1
     8    71    70    1
     9    65    66    1
    10    57    55   am
    11    47    46    1
    12    47    53   am
    13    69    70    1
    14    69    66    1
    15    31    30    2
    16    55    56    2
    17    55    54    1
    18    49    46    1
    19    49    51    1
    20    70    72    1
    21    46    45    1
    22    66    67    1
    23    54    53    1
    24    67    68    2
    25    61    62    1
    26    30    29    1
    27    62    63    1
    28    73    74    1
    29   139   140    1
    30    32    29    1
    31    32    33    1
    32    29    28    1
    33   140   143    1
    34   140   141    1
    35   143   144    1
    36    33    34    1
    37    34    35    1
    38   135   134    2
    39   145   144   ar
    40   145   147   ar
    41    63    64    1
    42   153   154    1
    43    26    25    2
    44   158   157    1
    45    74    77    1
    46    74    75    1
    47    79    78    1
    48    78    77    1
    49    78    80    1
    50    81    75   am
    51    81    82    1
    52   144   146   ar
    53   141   142    2
    54   154   157    1
    55   154   155    1
    56   134   133    1
    57    35    36    1
    58   147   148   ar
    59    75    76    2
    60    82    83    1
    61    40    39    2
    62    91    89    1
    63    83    84    2
    64   157   159    1
    65    25    24    1
    66    85    86    1
    67   137   136    1
    68    24    27    1
    69    24    23    1
    70   155   156    2
    71    39    38    1
    72    43    42   ar
    73   146   148   ar
    74   146   149   ar
    75    90    89    1
    76    90    92    1
    77   133   136    1
    78   133   132    1
    79   148   150   ar
    80   136   138    1
    81    89    86    1
    82    86    87    1
    83   149   151   ar
    84    42    44   ar
    85    42    41    1
    86    38    37    1
    87    38    41    1
    88   150   152   ar
    89    87    93   am
    90    87    88    2
    91    93    94    1
    92   151   152   ar
    93    20    19    2
    94    97    94    1
    95   160   161    1
    96   131   130    1
    97    94    95    1
    98    12    11    2
    99    95    96    2
   100   166   164    1
   101    19    18    1
   102   161   164    1
   103   161   162    1
   104    18    21    1
   105    18    17    1
   106    11    17   am
   107    11    10    1
   108   119   117   ar
   109   119   118   ar
   110   130   129   ar
   111   130   128   ar
   112   117   115   ar
   113   118   116   ar
   114    22    21    1
   115   164   165    1
   116   162   163    2
   117   129   127   ar
   118   115   114   ar
   119   116   114   ar
   120    13    10    1
   121    13    14    1
   122    10     9    1
   123   128   126   ar
   124   114   113    1
   125   101   100    2
   126    14    15    2
   127    14    16   am
   128   113   110    1
   129   127   125   ar
   130   107   106    1
   131   100    99    1
   132   100   102   am
   133   126   125   ar
   134    99    98    1
   135     4     3    2
   136   125   124    1
   137   110   109    1
   138   110   111    1
   139   103   102    1
   140   103   106    1
   141   103   104    1
   142   106   108    1
   143   111   120   am
   144   111   112    2
   145     8     6    1
   146     3     2    1
   147   120   121    1
   148   104   105    2
   149     2     5    1
   150     2     1    1
   151   124   121    1
   152     5     6    1
   153   121   122    1
   154     6     7    1
   155   122   123    2
