@<TRIPOS>MOLECULE
tmp/4xiqA00.pdb
 158 148 0 0 0
SMALL
GASTEIGER

@<TRIPOS>ATOM
      1  N         -1.6850   -8.2110  -19.6230 N.3    36  ASN36      -0.1225
      2  CA        -1.1930   -8.4750  -21.0020 C.3    36  ASN36       0.1785
      3  C         -2.4160   -8.5930  -21.9220 C.2    36  ASN36       0.2597
      4  O         -2.4000   -8.0230  -23.0080 O.2    36  ASN36      -0.2718
      5  CB        -0.3780   -9.7740  -21.0920 C.3    36  ASN36       0.1169
      6  CG         1.0290   -9.7600  -20.5120 C.2    36  ASN36       0.2627
      7  OD1        1.6430  -10.8140  -20.3640 O.2    36  ASN36      -0.2716
      8  ND2        1.5860   -8.5980  -20.1790 N.am   36  ASN36      -0.0877
      9  N         -3.4790   -9.2920  -21.4510 N.am   37  SER37      -0.1952
     10  CA        -4.7500   -9.4850  -22.1700 C.3    37  SER37       0.1924
     11  C         -5.4570   -8.1400  -22.3770 C.2    37  SER37       0.2314
     12  O         -5.8620   -7.8430  -23.5020 O.2    37  SER37      -0.2863
     13  CB        -5.6430  -10.4780  -21.4310 C.3    37  SER37       0.2116
     14  OG        -5.1350  -11.7950  -21.5800 O.3    37  SER37      -0.2180
     15  N         -4.1300   -5.0240  -22.3350 N.3    39  ASP39      -0.1225
     16  CA        -3.3190   -4.2070  -23.2530 C.3    39  ASP39       0.1805
     17  C         -3.5850   -4.6290  -24.7080 C.2    39  ASP39       0.2597
     18  O         -3.7210   -3.7600  -25.5770 O.2    39  ASP39      -0.2718
     19  CB        -1.8200   -4.3160  -22.9120 C.3    39  ASP39       0.1424
     20  CG        -1.3630   -3.6450  -21.6160 C.2    39  ASP39       0.3668
     21  OD1       -2.1880   -2.9530  -20.9690 O.co2  39  ASP39      -0.2456
     22  OD2       -0.1880   -3.8070  -21.2550 O.co2  39  ASP39      -0.2456
     23  N         -3.7030   -5.9630  -24.9590 N.am   40  ALA40      -0.1979
     24  CA        -3.9770   -6.5220  -26.2990 C.3    40  ALA40       0.1597
     25  C         -5.3820   -6.1370  -26.7890 C.2    40  ALA40       0.2287
     26  O         -5.5630   -5.8560  -27.9790 O.2    40  ALA40      -0.2864
     27  CB        -3.8160   -8.0230  -26.2790 C.3    40  ALA40       0.0319
     28  N         -5.3980   -2.4060  -27.7870 N.3    43  LYS43      -0.1245
     29  CA        -4.7640   -2.2850  -29.1050 C.3    43  LYS43       0.1561
     30  C         -5.7120   -2.5640  -30.2540 C.2    43  LYS43       0.2260
     31  O         -5.7730   -1.7390  -31.1750 O.2    43  LYS43      -0.2867
     32  CB        -3.4940   -3.1450  -29.2070 C.3    43  LYS43       0.0271
     33  CG        -2.3270   -2.5850  -28.3960 C.3    43  LYS43       0.0035
     34  CD        -1.1970   -3.5850  -28.3080 C.3    43  LYS43       0.0206
     35  CE        -0.1470   -3.1590  -27.3150 C.3    43  LYS43       0.1093
     36  NZ         0.8850   -4.2100  -27.1270 N.3    43  LYS43      -0.1314
     37  N         -8.1300  -14.4020  -24.3580 N.3    78  ASP78      -0.1239
     38  CA        -8.5470  -13.0450  -24.6890 C.3    78  ASP78       0.1674
     39  C         -8.8280  -12.9550  -26.1860 C.2    78  ASP78       0.2266
     40  O         -8.3080  -13.7690  -26.9560 O.2    78  ASP78      -0.2867
     41  CB        -7.5480  -11.9750  -24.2110 C.3    78  ASP78       0.1410
     42  CG        -6.2170  -11.9490  -24.9380 C.2    78  ASP78       0.3668
     43  OD1       -6.2050  -11.6080  -26.1430 O.co2  78  ASP78      -0.2456
     44  OD2       -5.1870  -12.2610  -24.3030 O.co2  78  ASP78      -0.2456
     45  N         -3.6970  -10.1580  -30.5870 N.3    82  GLY82      -0.1210
     46  CA        -2.9220  -11.3600  -30.8610 C.3    82  GLY82       0.1956
     47  C         -1.4820  -11.0060  -31.1790 C.2    82  GLY82       0.2611
     48  O         -1.0700   -9.8380  -31.0810 O.2    82  GLY82      -0.2717
     49  N         -0.7080  -12.0230  -31.5620 N.am   83  MET83      -0.1979
     50  CA         0.7080  -11.8850  -31.8960 C.3    83  MET83       0.1605
     51  C          1.0370  -12.5800  -33.2020 C.2    83  MET83       0.2287
     52  O          0.5440  -13.6810  -33.4590 O.2    83  MET83      -0.2864
     53  CB         1.5870  -12.4660  -30.7710 C.3    83  MET83       0.0413
     54  CG         1.5730  -11.6420  -29.4850 C.3    83  MET83       0.0598
     55  SD         2.3020  -12.5040  -28.0670 S.3    83  MET83      -0.1393
     56  CE         0.9810  -13.5930  -27.6380 C.3    83  MET83       0.0692
     57  N          6.3540  -13.3590  -31.6670 N.3    88  LEU88      -0.1245
     58  CA         6.7160  -14.5530  -30.8870 C.3    88  LEU88       0.1561
     59  C          8.1900  -14.9150  -30.8940 C.2    88  LEU88       0.2260
     60  O          8.7050  -15.3410  -29.8620 O.2    88  LEU88      -0.2867
     61  CB         5.9100  -15.7900  -31.3310 C.3    88  LEU88       0.0270
     62  CG         4.4030  -15.8070  -31.1290 C.3    88  LEU88       0.0019
     63  CD1        3.8130  -16.9720  -31.8570 C.3    88  LEU88       0.0001
     64  CD2        4.0220  -15.8940  -29.6440 C.3    88  LEU88       0.0001
     65  N          9.0920   -9.1900  -29.4700 N.3    92  LEU92      -0.1231
     66  CA         8.7900   -9.1610  -28.0360 C.3    92  LEU92       0.1693
     67  C         10.0010   -9.5190  -27.1850 C.2    92  LEU92       0.2592
     68  O         10.1740   -8.8960  -26.1350 O.2    92  LEU92      -0.2718
     69  CB         7.5370   -9.9680  -27.6530 C.3    92  LEU92       0.0284
     70  CG         6.2610   -9.4210  -28.3390 C.3    92  LEU92       0.0019
     71  CD1        5.1290  -10.3550  -28.1810 C.3    92  LEU92       0.0001
     72  CD2        5.8670   -8.0380  -27.8240 C.3    92  LEU92       0.0001
     73  N         10.8540  -10.4180  -27.6760 N.am   93  GLY93      -0.1957
     74  CA        12.0970  -10.8230  -27.0170 C.3    93  GLY93       0.1869
     75  C         13.0860   -9.6790  -26.8780 C.2    93  GLY93       0.2309
     76  O         13.7300   -9.5630  -25.8290 O.2    93  GLY93      -0.2863
     77  N         12.3230   -6.3240  -26.8310 N.3    95  ILE95      -0.1231
     78  CA        11.7000   -5.4270  -25.8360 C.3    95  ILE95       0.1692
     79  C         11.8800   -6.0270  -24.4270 C.2    95  ILE95       0.2591
     80  O         12.1780   -5.2870  -23.4730 O.2    95  ILE95      -0.2718
     81  CB        10.1910   -5.1400  -26.1930 C.3    95  ILE95       0.0266
     82  CG1       10.0040   -4.5170  -27.6210 C.3    95  ILE95       0.0019
     83  CG2        9.4560   -4.3000  -25.1280 C.3    95  ILE95       0.0020
     84  CD1       10.7210   -3.1020  -27.9640 C.3    95  ILE95       0.0001
     85  N         11.7130   -7.3640  -24.3150 N.am   96  ALA96      -0.1980
     86  CA        11.8570   -8.0910  -23.0620 C.3    96  ALA96       0.1597
     87  C         13.2960   -8.0560  -22.5080 C.2    96  ALA96       0.2287
     88  O         13.4410   -8.0260  -21.2890 O.2    96  ALA96      -0.2864
     89  CB        11.3500   -9.5140  -23.2010 C.3    96  ALA96       0.0319
     90  N          7.5700   -4.4450  -18.1330 N.3   120  GLY120     -0.1210
     91  CA         6.9300   -5.0350  -19.3090 C.3   120  GLY120      0.1956
     92  C          7.2440   -6.4900  -19.5970 C.2   120  GLY120      0.2611
     93  O          7.0440   -6.9490  -20.7290 O.2   120  GLY120     -0.2717
     94  N          7.7110   -7.2300  -18.5690 N.am  121  VAL121     -0.1979
     95  CA         8.0810   -8.6570  -18.6630 C.3   121  VAL121      0.1595
     96  C          7.1930   -9.5440  -17.7530 C.2   121  VAL121      0.2287
     97  O          7.5730  -10.6790  -17.4200 O.2   121  VAL121     -0.2864
     98  CB         9.6080   -8.9110  -18.4490 C.3   121  VAL121      0.0276
     99  CG1       10.4180   -8.3680  -19.6190 C.3   121  VAL121      0.0022
    100  CG2       10.1190   -8.3520  -17.1120 C.3   121  VAL121      0.0022
    101  N          4.6190  -11.3130  -18.3680 N.3   123  PHE123     -0.1227
    102  CA         4.2750  -12.6380  -18.9320 C.3   123  PHE123      0.1736
    103  C          5.0670  -13.7640  -18.2400 C.2   123  PHE123      0.2595
    104  O          4.4960  -14.7970  -17.9230 O.2   123  PHE123     -0.2718
    105  CB         4.5180  -12.7030  -20.4680 C.3   123  PHE123      0.0547
    106  CG         4.4950  -14.1150  -21.0160 C.ar  123  PHE123     -0.0202
    107  CD1        3.2860  -14.7740  -21.2410 C.ar  123  PHE123     -0.0042
    108  CD2        5.6900  -14.8050  -21.2720 C.ar  123  PHE123     -0.0042
    109  CE1        3.2650  -16.1000  -21.7070 C.ar  123  PHE123     -0.0003
    110  CE2        5.6700  -16.1300  -21.7350 C.ar  123  PHE123     -0.0003
    111  CZ         4.4570  -16.7680  -21.9500 C.ar  123  PHE123     -0.0000
    112  N          6.3740  -13.5360  -18.0040 N.am  124  TYR124     -0.1976
    113  CA         7.3000  -14.4930  -17.4080 C.3   124  TYR124      0.1639
    114  C          6.9640  -14.8750  -15.9690 C.2   124  TYR124      0.2290
    115  O          7.4190  -15.9460  -15.5410 O.2   124  TYR124     -0.2864
    116  CB         8.7500  -14.0260  -17.5590 C.3   124  TYR124      0.0560
    117  CG         9.1350  -14.0760  -19.0180 C.ar  124  TYR124     -0.0198
    118  CD1        9.4190  -15.2940  -19.6450 C.ar  124  TYR124     -0.0009
    119  CD2        9.1240  -12.9210  -19.8020 C.ar  124  TYR124     -0.0009
    120  CE1        9.7050  -15.3560  -21.0090 C.ar  124  TYR124      0.0417
    121  CE2        9.4240  -12.9700  -21.1680 C.ar  124  TYR124      0.0417
    122  CZ         9.7140  -14.1900  -21.7640 C.ar  124  TYR124      0.1957
    123  OH        10.0300  -14.2480  -23.0950 O.3   124  TYR124     -0.2866
    124  N          1.3390  -20.9260  -25.5420 N.3   135  VAL135     -0.1245
    125  CA         0.6900  -19.7020  -26.0010 C.3   135  VAL135      0.1561
    126  C          0.1420  -19.9600  -27.3990 C.2   135  VAL135      0.2260
    127  O          0.9240  -20.2040  -28.3230 O.2   135  VAL135     -0.2867
    128  CB         1.6140  -18.4420  -25.9320 C.3   135  VAL135      0.0252
    129  CG1        0.8950  -17.2000  -26.4670 C.3   135  VAL135      0.0019
    130  CG2        2.1140  -18.1920  -24.5040 C.3   135  VAL135      0.0019
    131  N          3.2720  -21.2450  -29.4220 N.3   147  TRP147     -0.1241
    132  CA         4.5660  -20.9650  -28.7890 C.3   147  TRP147      0.1605
    133  C          4.5490  -21.8490  -27.5480 C.2   147  TRP147      0.2264
    134  O          3.5110  -21.9440  -26.8910 O.2   147  TRP147     -0.2867
    135  CB         4.6680  -19.4700  -28.3830 C.3   147  TRP147      0.0550
    136  CG         5.9110  -19.0520  -27.6360 C.ar  147  TRP147      0.0003
    137  CD1        6.9900  -18.3930  -28.1510 C.ar  147  TRP147      0.0946
    138  CD2        6.1550  -19.1780  -26.2210 C.ar  147  TRP147      0.0152
    139  NE1        7.9000  -18.1150  -27.1500 N.ar  147  TRP147     -0.2442
    140  CE2        7.4270  -18.6090  -25.9630 C.ar  147  TRP147      0.0810
    141  CE3        5.4250  -19.7300  -25.1410 C.ar  147  TRP147      0.0012
    142  CZ2        7.9810  -18.5600  -24.6710 C.ar  147  TRP147      0.0191
    143  CZ3        5.9890  -19.7100  -23.8650 C.ar  147  TRP147      0.0001
    144  CH2        7.2400  -19.1130  -23.6370 C.ar  147  TRP147      0.0015
    145  N         -5.4020  -14.4040  -28.0320 N.3   169  THR169     -0.1218
    146  CA        -4.3650  -15.1960  -27.3800 C.3   169  THR169      0.1862
    147  C         -4.9390  -16.0860  -26.2770 C.2   169  THR169      0.2287
    148  O         -5.8190  -15.6560  -25.5250 O.2   169  THR169     -0.2866
    149  CB        -3.2600  -14.2300  -26.8530 C.3   169  THR169      0.1770
    150  OG1       -2.7270  -13.4720  -27.9460 O.3   169  THR169     -0.2211
    151  CG2       -2.1030  -14.9480  -26.1250 C.3   169  THR169      0.0375
    152  N         -3.2790  -18.3590  -23.1810 N.3   171  VAL171     -0.1245
    153  CA        -2.0840  -18.6330  -22.3750 C.3   171  VAL171      0.1561
    154  C         -2.4970  -19.8370  -21.5090 C.2   171  VAL171      0.2260
    155  O         -3.3080  -19.6870  -20.5970 O.2   171  VAL171     -0.2867
    156  CB        -1.5640  -17.4030  -21.5620 C.3   171  VAL171      0.0252
    157  CG1       -0.3740  -17.7820  -20.6700 C.3   171  VAL171      0.0019
    158  CG2       -1.1870  -16.2450  -22.4920 C.3   171  VAL171      0.0019
@<TRIPOS>BOND
     1    52    51    2
     2    51    50    1
     3    50    49    1
     4    50    53    1
     5    63    62    1
     6    57    58    1
     7    49    47   am
     8    61    62    1
     9    61    58    1
    10    47    48    2
    11    47    46    1
    12    31    30    2
    13    62    64    1
    14    59    58    1
    15    59    60    2
    16    46    45    1
    17    53    54    1
    18    30    29    1
    19    54    55    1
    20    65    66    1
    21   131   132    1
    22    32    29    1
    23    32    33    1
    24    29    28    1
    25   132   135    1
    26   132   133    1
    27    33    34    1
    28   135   136    1
    29    70    71    1
    30    70    72    1
    31    70    69    1
    32   127   126    2
    33    34    35    1
    34   137   136   ar
    35   137   139   ar
    36    55    56    1
    37    66    69    1
    38    66    67    1
    39   145   146    1
    40    26    25    2
    41    84    82    1
    42   150   149    1
    43    73    67   am
    44    73    74    1
    45   136   138   ar
    46    82    81    1
    47   133   134    2
    48   126   125    1
    49   146   149    1
    50   146   147    1
    51    35    36    1
    52    67    68    2
    53   139   140   ar
    54    74    75    1
    55    40    39    2
    56    75    76    2
    57   149   151    1
    58    77    78    1
    59    25    24    1
    60   129   128    1
    61    24    27    1
    62    24    23    1
    63   147   148    2
    64   138   140   ar
    65   138   141   ar
    66    81    78    1
    67    81    83    1
    68    39    38    1
    69    43    42   ar
    70   125   128    1
    71   125   124    1
    72   140   142   ar
    73   128   130    1
    74    78    79    1
    75    18    17    2
    76   141   143   ar
    77    23    17   am
    78    42    44   ar
    79    42    41    1
    80    17    16    1
    81    38    37    1
    82    38    41    1
    83   142   144   ar
    84    79    85   am
    85    79    80    2
    86    85    86    1
    87   143   144   ar
    88    12    11    2
    89    16    19    1
    90    16    15    1
    91    89    86    1
    92   152   153    1
    93   123   122    1
    94    86    87    1
    95     4     3    2
    96    19    20    1
    97    87    88    2
    98   158   156    1
    99    11    10    1
   100   153   156    1
   101   153   154    1
   102    10     9    1
   103    10    13    1
   104   111   110   ar
   105   111   109   ar
   106     3     9   am
   107     3     2    1
   108   122   121   ar
   109   122   120   ar
   110   110   108   ar
   111   109   107   ar
   112    20    22   ar
   113    20    21   ar
   114    14    13    1
   115   156   157    1
   116   154   155    2
   117   108   106   ar
   118   107   106   ar
   119   121   119   ar
   120     5     2    1
   121     5     6    1
   122   106   105    1
   123   120   118   ar
   124     2     1    1
   125    93    92    2
   126     6     7    2
   127     6     8   am
   128   105   102    1
   129   119   117   ar
   130   118   117   ar
   131    99    98    1
   132    92    91    1
   133    92    94   am
   134    91    90    1
   135   117   116    1
   136   102   101    1
   137   102   103    1
   138    95    94    1
   139    95    98    1
   140    95    96    1
   141    98   100    1
   142   103   112   am
   143   103   104    2
   144   112   113    1
   145    96    97    2
   146   116   113    1
   147   113   114    1
   148   114   115    2
