@<TRIPOS>MOLECULE
tmp/4xirA00.pdb
 182 171 0 0 0
SMALL
GASTEIGER

@<TRIPOS>ATOM
      1  N         -1.0420  -11.5770  -16.2280 N.3    33  LEU33      -0.1245
      2  CA        -1.6180  -12.1390  -17.4510 C.3    33  LEU33       0.1561
      3  C         -2.8890  -11.3910  -17.8320 C.2    33  LEU33       0.2260
      4  O         -3.0740  -11.0920  -19.0150 O.2    33  LEU33      -0.2867
      5  CB        -1.8110  -13.6750  -17.3590 C.3    33  LEU33       0.0270
      6  CG        -0.5260  -14.4970  -17.0200 C.3    33  LEU33       0.0019
      7  CD1       -0.8510  -15.9350  -16.7720 C.3    33  LEU33       0.0001
      8  CD2        0.5730  -14.3930  -18.0840 C.3    33  LEU33       0.0001
      9  N         -1.8830   -8.0060  -19.4090 N.3    36  ASN36      -0.1225
     10  CA        -1.4060   -8.2250  -20.7930 C.3    36  ASN36       0.1785
     11  C         -2.6250   -8.3990  -21.7130 C.2    36  ASN36       0.2597
     12  O         -2.6550   -7.8000  -22.7850 O.2    36  ASN36      -0.2718
     13  CB        -0.4970   -9.4400  -20.8720 C.3    36  ASN36       0.1169
     14  CG         0.9090   -9.2210  -20.3320 C.2    36  ASN36       0.2627
     15  OD1        1.3390   -8.1070  -20.0040 O.2    36  ASN36      -0.2716
     16  ND2        1.6600  -10.2950  -20.2300 N.am   36  ASN36      -0.0877
     17  N         -3.6460   -9.1600  -21.2540 N.am   37  SER37      -0.1952
     18  CA        -4.9060   -9.3870  -21.9900 C.3    37  SER37       0.1924
     19  C         -5.6330   -8.0490  -22.2020 C.2    37  SER37       0.2314
     20  O         -5.9820   -7.7260  -23.3420 O.2    37  SER37      -0.2863
     21  CB        -5.7880  -10.3840  -21.2550 C.3    37  SER37       0.2116
     22  OG        -5.2660  -11.6970  -21.3790 O.3    37  SER37      -0.2180
     23  N         -4.3490   -4.9650  -22.0810 N.3    39  ASP39      -0.1225
     24  CA        -3.5460   -4.1350  -22.9940 C.3    39  ASP39       0.1805
     25  C         -3.7610   -4.5470  -24.4600 C.2    39  ASP39       0.2597
     26  O         -3.8670   -3.6730  -25.3260 O.2    39  ASP39      -0.2718
     27  CB        -2.0640   -4.1500  -22.6040 C.3    39  ASP39       0.1424
     28  CG        -1.7270   -3.4680  -21.2730 C.2    39  ASP39       0.3668
     29  OD1       -2.6010   -2.7820  -20.7050 O.co2  39  ASP39      -0.2456
     30  OD2       -0.6000   -3.6300  -20.7940 O.co2  39  ASP39      -0.2456
     31  N         -3.8620   -5.8830  -24.7240 N.am   40  ALA40      -0.1979
     32  CA        -4.0920   -6.4430  -26.0670 C.3    40  ALA40       0.1597
     33  C         -5.4920   -6.0670  -26.5690 C.2    40  ALA40       0.2287
     34  O         -5.6670   -5.8160  -27.7690 O.2    40  ALA40      -0.2864
     35  CB        -3.9270   -7.9500  -26.0460 C.3    40  ALA40       0.0319
     36  N         -5.5060   -2.3280  -27.5940 N.3    43  LYS43      -0.1245
     37  CA        -4.8510   -2.2290  -28.9060 C.3    43  LYS43       0.1561
     38  C         -5.7900   -2.4990  -30.0720 C.2    43  LYS43       0.2260
     39  O         -5.8180   -1.6870  -31.0040 O.2    43  LYS43      -0.2867
     40  CB        -3.6040   -3.1170  -28.9910 C.3    43  LYS43       0.0271
     41  CG        -2.4460   -2.6050  -28.1560 C.3    43  LYS43       0.0035
     42  CD        -1.2850   -3.5490  -28.2200 C.3    43  LYS43       0.0206
     43  CE        -0.2740   -3.1760  -27.1770 C.3    43  LYS43       0.1093
     44  NZ         0.8180   -4.1760  -27.0910 N.3    43  LYS43      -0.1314
     45  N         -8.2150  -14.2710  -24.2330 N.3    78  ASP78      -0.1239
     46  CA        -8.6260  -12.9030  -24.5270 C.3    78  ASP78       0.1674
     47  C         -8.9070  -12.8120  -26.0150 C.2    78  ASP78       0.2266
     48  O         -8.3690  -13.6110  -26.7940 O.2    78  ASP78      -0.2867
     49  CB        -7.6210  -11.8360  -24.0500 C.3    78  ASP78       0.1410
     50  CG        -6.3100  -11.7990  -24.8010 C.2    78  ASP78       0.3668
     51  OD1       -6.3210  -11.4500  -26.0040 O.co2  78  ASP78      -0.2456
     52  OD2       -5.2680  -12.0880  -24.1850 O.co2  78  ASP78      -0.2456
     53  N         -5.6740   -8.0840  -29.6460 N.3    81  ILE81      -0.1231
     54  CA        -4.9920   -7.9490  -30.9400 C.3    81  ILE81       0.1692
     55  C         -4.2290   -9.2390  -31.3690 C.2    81  ILE81       0.2593
     56  O         -4.0120   -9.4340  -32.5560 O.2    81  ILE81      -0.2718
     57  CB        -4.0830   -6.6780  -30.9600 C.3    81  ILE81       0.0266
     58  CG1       -3.7580   -6.2450  -32.4290 C.3    81  ILE81       0.0019
     59  CG2       -2.8130   -6.8320  -30.0730 C.3    81  ILE81       0.0020
     60  CD1       -3.4800   -4.7930  -32.6270 C.3    81  ILE81       0.0001
     61  N         -3.8230  -10.0800  -30.4120 N.am   82  GLY82      -0.1942
     62  CA        -3.0690  -11.2890  -30.7020 C.3    82  GLY82       0.2014
     63  C         -1.6230  -10.9500  -30.9980 C.2    82  GLY82       0.2638
     64  O         -1.1880   -9.8020  -30.8230 O.2    82  GLY82      -0.2714
     65  N         -0.8660  -11.9520  -31.4400 N.am   83  MET83      -0.1976
     66  CA         0.5550  -11.7870  -31.7570 C.3    83  MET83       0.1605
     67  C          0.8780  -12.4670  -33.0560 C.2    83  MET83       0.2287
     68  O          0.3710  -13.5590  -33.3320 O.2    83  MET83      -0.2864
     69  CB         1.4450  -12.3530  -30.6290 C.3    83  MET83       0.0413
     70  CG         1.4250  -11.5140  -29.3380 C.3    83  MET83       0.0598
     71  SD         2.1730  -12.3350  -27.9040 S.3    83  MET83      -0.1393
     72  CE         0.8260  -13.3830  -27.4010 C.3    83  MET83       0.0692
     73  N          6.3490  -11.3490  -33.6090 N.3    87  ASP87      -0.1225
     74  CA         6.1230  -10.9610  -32.2080 C.3    87  ASP87       0.1805
     75  C          6.5970  -12.0690  -31.2740 C.2    87  ASP87       0.2597
     76  O          7.3460  -11.7920  -30.3380 O.2    87  ASP87      -0.2718
     77  CB         4.6300  -10.6890  -31.9500 C.3    87  ASP87       0.1424
     78  CG         4.1250   -9.3380  -32.3880 C.2    87  ASP87       0.3668
     79  OD1        4.9530   -8.4020  -32.5030 O.co2  87  ASP87      -0.2456
     80  OD2        2.8980   -9.2100  -32.6110 O.co2  87  ASP87      -0.2456
     81  N          6.1970  -13.3230  -31.5630 N.am   88  LEU88      -0.1979
     82  CA         6.5660  -14.5010  -30.7630 C.3    88  LEU88       0.1596
     83  C          8.0400  -14.8380  -30.7790 C.2    88  LEU88       0.2287
     84  O          8.5730  -15.1930  -29.7370 O.2    88  LEU88      -0.2864
     85  CB         5.7580  -15.7470  -31.1840 C.3    88  LEU88       0.0297
     86  CG         4.2510  -15.7190  -31.0130 C.3    88  LEU88       0.0022
     87  CD1        3.6240  -16.8630  -31.7740 C.3    88  LEU88       0.0001
     88  CD2        3.8340  -15.8210  -29.5260 C.3    88  LEU88       0.0001
     89  N          8.9420   -9.1450  -29.3440 N.3    92  LEU92      -0.1231
     90  CA         8.6460   -9.0610  -27.9190 C.3    92  LEU92       0.1693
     91  C          9.8510   -9.4370  -27.0460 C.2    92  LEU92       0.2592
     92  O         10.0300   -8.7860  -26.0200 O.2    92  LEU92      -0.2718
     93  CB         7.3670   -9.8230  -27.5520 C.3    92  LEU92       0.0284
     94  CG         6.0760   -9.3100  -28.2860 C.3    92  LEU92       0.0019
     95  CD1        4.8950  -10.0830  -27.8900 C.3    92  LEU92       0.0001
     96  CD2        5.7840   -7.8090  -28.0300 C.3    92  LEU92       0.0001
     97  N         10.6810  -10.3910  -27.4890 N.am   93  GLY93      -0.1957
     98  CA        11.9110  -10.8200  -26.8170 C.3    93  GLY93       0.1869
     99  C         12.9270   -9.6930  -26.7550 C.2    93  GLY93       0.2309
    100  O         13.6310   -9.5410  -25.7460 O.2    93  GLY93      -0.2863
    101  N         12.0910   -6.2660  -26.9310 N.3    95  ILE95      -0.1231
    102  CA        11.5620   -5.2540  -25.9880 C.3    95  ILE95       0.1692
    103  C         11.6800   -5.7590  -24.5370 C.2    95  ILE95       0.2591
    104  O         11.8970   -4.9480  -23.6300 O.2    95  ILE95      -0.2718
    105  CB        10.1420   -4.6560  -26.3000 C.3    95  ILE95       0.0266
    106  CG1        9.0060   -5.7050  -26.3660 C.3    95  ILE95       0.0019
    107  CG2       10.1550   -3.8190  -27.5760 C.3    95  ILE95       0.0020
    108  CD1        8.2360   -5.9890  -25.0860 C.3    95  ILE95       0.0001
    109  N         11.5540   -7.0920  -24.3360 N.am   96  ALA96      -0.1980
    110  CA        11.6680   -7.7410  -23.0320 C.3    96  ALA96       0.1597
    111  C         13.0960   -7.6730  -22.4660 C.2    96  ALA96       0.2287
    112  O         13.2180   -7.5630  -21.2540 O.2    96  ALA96      -0.2864
    113  CB        11.1920   -9.1780  -23.1020 C.3    96  ALA96       0.0319
    114  N          7.5050   -4.4640  -17.9110 N.3   120  GLY120     -0.1210
    115  CA         6.8620   -5.0340  -19.0910 C.3   120  GLY120      0.1956
    116  C          7.1940   -6.4900  -19.3760 C.2   120  GLY120      0.2611
    117  O          7.0450   -6.9440  -20.5140 O.2   120  GLY120     -0.2717
    118  N          7.6440   -7.2300  -18.3500 N.am  121  VAL121     -0.1979
    119  CA         8.0210   -8.6540  -18.4780 C.3   121  VAL121      0.1595
    120  C          7.1280   -9.5460  -17.5850 C.2   121  VAL121      0.2287
    121  O          7.4850  -10.6980  -17.2960 O.2   121  VAL121     -0.2864
    122  CB         9.5450   -8.9100  -18.2820 C.3   121  VAL121      0.0276
    123  CG1       10.3450   -8.3890  -19.4750 C.3   121  VAL121      0.0022
    124  CG2       10.0770   -8.3400  -16.9590 C.3   121  VAL121      0.0022
    125  N          4.5190  -11.2250  -18.2770 N.3   123  PHE123     -0.1227
    126  CA         4.1590  -12.5280  -18.8610 C.3   123  PHE123      0.1736
    127  C          4.9730  -13.6670  -18.2050 C.2   123  PHE123      0.2595
    128  O          4.4170  -14.7250  -17.9180 O.2   123  PHE123     -0.2718
    129  CB         4.3890  -12.5430  -20.3980 C.3   123  PHE123      0.0547
    130  CG         4.3710  -13.9450  -20.9700 C.ar  123  PHE123     -0.0202
    131  CD1        3.1630  -14.6010  -21.2120 C.ar  123  PHE123     -0.0042
    132  CD2        5.5670  -14.6260  -21.2310 C.ar  123  PHE123     -0.0042
    133  CE1        3.1500  -15.9210  -21.7050 C.ar  123  PHE123     -0.0003
    134  CE2        5.5520  -15.9470  -21.7160 C.ar  123  PHE123     -0.0003
    135  CZ         4.3450  -16.5790  -21.9570 C.ar  123  PHE123     -0.0000
    136  N          6.2910  -13.4380  -17.9680 N.am  124  TYR124     -0.1976
    137  CA         7.1810  -14.4570  -17.4030 C.3   124  TYR124      0.1639
    138  C          6.8550  -14.8660  -15.9610 C.2   124  TYR124      0.2290
    139  O          7.3060  -15.9490  -15.5330 O.2   124  TYR124     -0.2864
    140  CB         8.6350  -14.0370  -17.5590 C.3   124  TYR124      0.0560
    141  CG         9.0090  -14.0610  -19.0190 C.ar  124  TYR124     -0.0198
    142  CD1        9.2820  -15.2680  -19.6700 C.ar  124  TYR124     -0.0009
    143  CD2        9.0230  -12.8880  -19.7750 C.ar  124  TYR124     -0.0009
    144  CE1        9.5810  -15.3030  -21.0340 C.ar  124  TYR124      0.0417
    145  CE2        9.3460  -12.9090  -21.1350 C.ar  124  TYR124      0.0417
    146  CZ         9.6130  -14.1200  -21.7590 C.ar  124  TYR124      0.1957
    147  OH         9.9560  -14.1630  -23.0860 O.3   124  TYR124     -0.2866
    148  N          1.1270  -20.8390  -25.4980 N.3   135  VAL135     -0.1245
    149  CA         0.4720  -19.6030  -25.9230 C.3   135  VAL135      0.1561
    150  C         -0.0390  -19.8290  -27.3330 C.2   135  VAL135      0.2260
    151  O          0.7720  -20.0110  -28.2400 O.2   135  VAL135     -0.2867
    152  CB         1.4080  -18.3560  -25.7920 C.3   135  VAL135      0.0252
    153  CG1        0.7630  -17.0960  -26.3820 C.3   135  VAL135      0.0019
    154  CG2        1.8240  -18.1160  -24.3340 C.3   135  VAL135      0.0019
    155  N          3.0400  -21.1350  -29.3860 N.3   147  TRP147     -0.1241
    156  CA         4.3380  -20.8640  -28.7650 C.3   147  TRP147      0.1605
    157  C          4.3270  -21.7580  -27.5230 C.2   147  TRP147      0.2264
    158  O          3.2860  -21.8930  -26.8730 O.2   147  TRP147     -0.2867
    159  CB         4.4230  -19.3850  -28.3240 C.3   147  TRP147      0.0550
    160  CG         5.6670  -18.9780  -27.5840 C.ar  147  TRP147      0.0003
    161  CD1        6.7390  -18.3120  -28.1040 C.ar  147  TRP147      0.0946
    162  CD2        5.9180  -19.1030  -26.1720 C.ar  147  TRP147      0.0152
    163  NE1        7.6560  -18.0390  -27.1160 N.ar  147  TRP147     -0.2442
    164  CE2        7.1960  -18.5380  -25.9240 C.ar  147  TRP147      0.0810
    165  CE3        5.1900  -19.6480  -25.0830 C.ar  147  TRP147      0.0012
    166  CZ2        7.7510  -18.4690  -24.6350 C.ar  147  TRP147      0.0191
    167  CZ3        5.7620  -19.6230  -23.8100 C.ar  147  TRP147      0.0001
    168  CH2        7.0110  -19.0120  -23.5890 C.ar  147  TRP147      0.0015
    169  N         -5.5630  -14.2590  -27.8860 N.3   169  THR169     -0.1218
    170  CA        -4.5380  -15.0900  -27.2600 C.3   169  THR169      0.1862
    171  C         -5.1110  -15.9780  -26.1580 C.2   169  THR169      0.2287
    172  O         -5.9770  -15.5520  -25.3880 O.2   169  THR169     -0.2866
    173  CB        -3.3780  -14.1920  -26.7730 C.3   169  THR169      0.1770
    174  OG1       -2.8670  -13.4120  -27.8660 O.3   169  THR169     -0.2211
    175  CG2       -2.2240  -14.9860  -26.1440 C.3   169  THR169      0.0375
    176  N         -3.5170  -18.3270  -23.0990 N.3   171  VAL171     -0.1245
    177  CA        -2.3190  -18.6510  -22.3140 C.3   171  VAL171      0.1561
    178  C         -2.7290  -19.8630  -21.4840 C.2   171  VAL171      0.2260
    179  O         -3.5610  -19.7470  -20.5810 O.2   171  VAL171     -0.2867
    180  CB        -1.7810  -17.5010  -21.4230 C.3   171  VAL171      0.0252
    181  CG1       -0.5310  -17.9380  -20.6450 C.3   171  VAL171      0.0019
    182  CG2       -1.4820  -16.2690  -22.2520 C.3   171  VAL171      0.0019
@<TRIPOS>BOND
     1    73    74    1
     2    68    67    2
     3    67    66    1
     4    60    58    1
     5    80    78   ar
     6    56    55    2
     7    79    78   ar
     8    58    57    1
     9    78    77    1
    10    74    77    1
    11    74    75    1
    12    87    86    1
    13    66    65    1
    14    66    69    1
    15    81    75   am
    16    81    82    1
    17    65    63   am
    18    55    54    1
    19    55    61   am
    20    75    76    2
    21    85    86    1
    22    85    82    1
    23    86    88    1
    24    39    38    2
    25    63    64    2
    26    63    62    1
    27    57    54    1
    28    57    59    1
    29    54    53    1
    30    83    82    1
    31    83    84    2
    32    62    61    1
    33    69    70    1
    34    38    37    1
    35   155   156    1
    36    89    90    1
    37    70    71    1
    38    40    37    1
    39    40    41    1
    40    37    36    1
    41   156   159    1
    42   156   157    1
    43   159   160    1
    44    94    96    1
    45    94    95    1
    46    94    93    1
    47   151   150    2
    48    42    41    1
    49    42    43    1
    50   161   160   ar
    51   161   163   ar
    52    90    93    1
    53    90    91    1
    54    71    72    1
    55   169   170    1
    56   174   173    1
    57    34    33    2
    58   160   162   ar
    59   107   105    1
    60   157   158    2
    61    97    91   am
    62    97    98    1
    63   150   149    1
    64   170   173    1
    65   170   171    1
    66    43    44    1
    67   163   164   ar
    68    91    92    2
    69   101   102    1
    70    98    99    1
    71    48    47    2
    72   173   175    1
    73    99   100    2
    74    33    32    1
    75   153   152    1
    76   106   105    1
    77   106   108    1
    78   105   102    1
    79   162   164   ar
    80   162   165   ar
    81   171   172    2
    82    32    35    1
    83    32    31    1
    84    47    46    1
    85    51    50   ar
    86   102   103    1
    87   164   166   ar
    88   149   152    1
    89   149   148    1
    90   152   154    1
    91    26    25    2
    92   165   167   ar
    93    50    52   ar
    94    50    49    1
    95    31    25   am
    96   166   168   ar
    97   103   109   am
    98   103   104    2
    99    46    45    1
   100    46    49    1
   101    25    24    1
   102   109   110    1
   103   167   168   ar
   104    20    19    2
   105   113   110    1
   106   176   177    1
   107   147   146    1
   108   110   111    1
   109    24    27    1
   110    24    23    1
   111    12    11    2
   112    27    28    1
   113   111   112    2
   114   177   178    1
   115   177   180    1
   116   182   180    1
   117    19    18    1
   118    18    21    1
   119    18    17    1
   120   135   134   ar
   121   135   133   ar
   122   146   145   ar
   123   146   144   ar
   124   134   132   ar
   125    11    17   am
   126    11    10    1
   127   133   131   ar
   128   178   179    2
   129   180   181    1
   130    22    21    1
   131    28    30   ar
   132    28    29   ar
   133   132   130   ar
   134   131   130   ar
   135   145   143   ar
   136   144   142   ar
   137   130   129    1
   138    13    10    1
   139    13    14    1
   140    10     9    1
   141   117   116    2
   142   129   126    1
   143    14    16   am
   144    14    15    2
   145   143   141   ar
   146   142   141   ar
   147   123   122    1
   148   116   115    1
   149   116   118   am
   150   115   114    1
   151   141   140    1
   152     4     3    2
   153   126   125    1
   154   126   127    1
   155   119   118    1
   156   119   122    1
   157   119   120    1
   158   122   124    1
   159   127   136   am
   160   127   128    2
   161     8     6    1
   162   136   137    1
   163     3     2    1
   164   120   121    2
   165   140   137    1
   166     2     5    1
   167     2     1    1
   168   137   138    1
   169     5     6    1
   170     6     7    1
   171   138   139    2
