@<TRIPOS>MOLECULE
tmp/4xisA00.pdb
 164 154 0 0 0
SMALL
GASTEIGER

@<TRIPOS>ATOM
      1  N         10.5020   25.7850   40.0210 N.3    15  TRP15      -0.1241
      2  CA         9.3690   25.9580   40.9630 C.3    15  TRP15       0.1605
      3  C          8.2680   26.8580   40.4450 C.2    15  TRP15       0.2264
      4  O          7.2400   27.0430   41.1720 O.2    15  TRP15      -0.2867
      5  CB         9.9570   26.4990   42.3110 C.3    15  TRP15       0.0550
      6  CG        10.4950   27.8840   42.2350 C.ar   15  TRP15       0.0003
      7  CD1        9.7430   29.0450   42.4340 C.ar   15  TRP15       0.0946
      8  CD2       11.7990   28.3370   41.8630 C.ar   15  TRP15       0.0152
      9  NE1       10.5520   30.1460   42.2240 N.ar   15  TRP15      -0.2442
     10  CE2       11.8080   29.7380   41.8830 C.ar   15  TRP15       0.0810
     11  CE3       12.9790   27.6400   41.5490 C.ar   15  TRP15       0.0012
     12  CZ2       12.9450   30.4990   41.6620 C.ar   15  TRP15       0.0191
     13  CZ3       14.1300   28.4310   41.2970 C.ar   15  TRP15       0.0001
     14  CH2       14.1110   29.8090   41.3140 C.ar   15  TRP15       0.0015
     15  N         16.1300   25.2290   43.1430 N.3    53  HIS53      -0.1241
     16  CA        16.5870   25.0590   44.5570 C.3    53  HIS53       0.1621
     17  C         17.0200   23.5580   44.5880 C.2    53  HIS53       0.2264
     18  O         16.4290   22.6830   43.9060 O.2    53  HIS53      -0.2867
     19  CB        15.3960   25.0940   45.5820 C.3    53  HIS53       0.0745
     20  CG        14.7150   26.4290   45.6320 C.ar   53  HIS53       0.0817
     21  ND1       13.7050   26.7610   44.7470 N.ar   53  HIS53      -0.2268
     22  CD2       14.8980   27.4920   46.4690 C.ar   53  HIS53       0.1154
     23  CE1       13.2790   27.9830   45.0330 C.ar   53  HIS53       0.1986
     24  NE2       14.0100   28.4540   46.0200 N.ar   53  HIS53      -0.2212
     25  N         21.8420   29.7580   37.1690 N.3    87  MET87      -0.1245
     26  CA        21.7710   30.1210   38.6350 C.3    87  MET87       0.1570
     27  C         21.1730   28.9300   39.3690 C.2    87  MET87       0.2261
     28  O         20.3690   28.1650   38.8180 O.2    87  MET87      -0.2867
     29  CB        20.7920   31.3390   38.7280 C.3    87  MET87       0.0387
     30  CG        20.5780   31.8680   40.1440 C.3    87  MET87       0.0595
     31  SD        19.2310   31.0300   41.0240 S.3    87  MET87      -0.1393
     32  CE        17.8090   31.9620   40.4270 C.3    87  MET87       0.0692
     33  N         20.0560   27.8340   43.7820 N.3    89  THR89      -0.1203
     34  CA        19.8540   28.3750   45.1810 C.3    89  THR89       0.1994
     35  C         19.4930   27.1880   46.0820 C.2    89  THR89       0.2618
     36  O         19.3960   26.0080   45.6890 O.2    89  THR89      -0.2717
     37  CB        18.6980   29.4290   45.0550 C.3    89  THR89       0.1784
     38  OG1       18.5810   30.0760   46.3690 O.3    89  THR89      -0.2211
     39  CG2       17.3580   28.9770   44.5390 C.3    89  THR89       0.0376
     40  N         19.3450   27.5050   47.3850 N.am   90  THR90      -0.1952
     41  CA        19.0530   26.4920   48.4040 C.3    90  THR90       0.1897
     42  C         17.6580   26.6990   48.9860 C.2    90  THR90       0.2313
     43  O         17.2780   27.8820   49.2100 O.2    90  THR90      -0.2863
     44  CB        20.0820   26.6560   49.6390 C.3    90  THR90       0.1794
     45  OG1       21.3700   27.1220   49.1900 O.3    90  THR90      -0.2208
     46  CG2       20.1460   25.3300   50.4190 C.3    90  THR90       0.0378
     47  N         13.7200   27.1160   53.7420 N.3    93  PHE93      -0.1241
     48  CA        12.4270   27.6560   54.2540 C.3    93  PHE93       0.1605
     49  C         11.3120   26.6800   54.3590 C.2    93  PHE93       0.2264
     50  O         10.3550   26.9260   55.1310 O.2    93  PHE93      -0.2867
     51  CB        12.0090   28.9020   53.3630 C.3    93  PHE93       0.0534
     52  CG        11.9760   28.6280   51.8660 C.ar   93  PHE93      -0.0203
     53  CD1       10.8570   28.1440   51.2450 C.ar   93  PHE93      -0.0042
     54  CD2       13.1110   28.9630   51.1160 C.ar   93  PHE93      -0.0042
     55  CE1       10.8160   27.8750   49.8630 C.ar   93  PHE93      -0.0003
     56  CE2       13.1080   28.7290   49.7250 C.ar   93  PHE93      -0.0003
     57  CZ        11.9960   28.1990   49.1130 C.ar   93  PHE93      -0.0000
     58  N         22.0210   32.2390   44.3140 N.3   134  VAL134     -0.1245
     59  CA        21.0930   33.1810   45.0470 C.3   134  VAL134      0.1561
     60  C         20.8400   32.6870   46.4700 C.2   134  VAL134      0.2260
     61  O         20.7630   31.4960   46.7170 O.2   134  VAL134     -0.2867
     62  CB        19.8190   33.2700   44.1910 C.3   134  VAL134      0.0252
     63  CG1       18.5740   33.8350   44.9330 C.3   134  VAL134      0.0019
     64  CG2       20.0430   34.1580   42.9440 C.3   134  VAL134      0.0019
     65  N         17.8970   33.6020   49.2890 N.3   136  TRP136     -0.1241
     66  CA        16.6680   34.3220   49.7710 C.3   136  TRP136      0.1605
     67  C         16.4250   33.7830   51.2200 C.2   136  TRP136      0.2264
     68  O         15.9620   32.6480   51.3550 O.2   136  TRP136     -0.2867
     69  CB        15.4530   34.0020   48.8560 C.3   136  TRP136      0.0550
     70  CG        14.1490   34.5330   49.4240 C.ar  136  TRP136      0.0003
     71  CD1       13.8680   35.8740   49.6800 C.ar  136  TRP136      0.0946
     72  CD2       12.9980   33.8070   49.8480 C.ar  136  TRP136      0.0152
     73  NE1       12.6180   35.9750   50.2590 N.ar  136  TRP136     -0.2442
     74  CE2       12.0530   34.7210   50.3560 C.ar  136  TRP136      0.0810
     75  CE3       12.6920   32.4380   49.8910 C.ar  136  TRP136      0.0012
     76  CZ2       10.8240   34.3430   50.8430 C.ar  136  TRP136      0.0191
     77  CZ3       11.4560   32.0270   50.4130 C.ar  136  TRP136      0.0001
     78  CH2       10.5140   32.9790   50.8490 C.ar  136  TRP136      0.0015
     79  N         18.7880   38.0570   47.8230 N.3   180  GLU180     -0.1245
     80  CA        17.4530   38.5390   47.3590 C.3   180  GLU180      0.1567
     81  C         16.6380   39.0600   48.5320 C.2   180  GLU180      0.2260
     82  O         16.2460   38.3060   49.4530 O.2   180  GLU180     -0.2867
     83  CB        16.6850   37.3370   46.7700 C.3   180  GLU180      0.0388
     84  CG        15.2790   37.6750   46.2500 C.3   180  GLU180      0.1160
     85  CD        14.5900   36.6290   45.4490 C.2   180  GLU180      0.3649
     86  OE1       15.3060   35.6730   45.0880 O.co2 180  GLU180     -0.2457
     87  OE2       13.3950   36.7930   45.1720 O.co2 180  GLU180     -0.2457
     88  N         13.2970   40.7350   50.5610 N.3   182  LYS182     -0.1245
     89  CA        11.8000   40.6580   50.5940 C.3   182  LYS182      0.1561
     90  C         11.4110   41.2940   51.9260 C.2   182  LYS182      0.2260
     91  O         12.0900   40.9960   52.9350 O.2   182  LYS182     -0.2867
     92  CB        11.3030   39.1900   50.4970 C.3   182  LYS182      0.0271
     93  CG         9.7700   39.1410   50.3040 C.3   182  LYS182      0.0035
     94  CD         9.2810   37.6720   50.2440 C.3   182  LYS182      0.0206
     95  CE         7.8100   37.6120   49.8670 C.3   182  LYS182      0.1093
     96  NZ         7.4240   36.1410   49.8290 N.3   182  LYS182     -0.1314
     97  N         19.9590   40.1940   43.9990 N.3   214  ASN214     -0.1240
     98  CA        18.9720   39.5830   43.0780 C.3   214  ASN214      0.1653
     99  C         17.5960   40.2160   43.4260 C.2   214  ASN214      0.2266
    100  O         16.7750   39.5980   44.1570 O.2   214  ASN214     -0.2867
    101  CB        18.8830   38.0360   43.2790 C.3   214  ASN214      0.1155
    102  CG        17.8890   37.3870   42.3190 C.2   214  ASN214      0.2627
    103  OD1       16.9740   36.5820   42.7010 O.2   214  ASN214     -0.2716
    104  ND2       17.9600   37.7700   41.0850 N.am  214  ASN214     -0.0877
    105  N         13.7110   41.4730   43.1750 N.3   216  GLU216     -0.1245
    106  CA        12.5100   40.9610   42.5120 C.3   216  GLU216      0.1567
    107  C         11.4760   42.0690   42.4340 C.2   216  GLU216      0.2260
    108  O         11.1790   42.7590   43.3890 O.2   216  GLU216     -0.2867
    109  CB        11.8700   39.8050   43.3240 C.3   216  GLU216      0.0388
    110  CG        10.5990   39.2360   42.6490 C.3   216  GLU216      0.1160
    111  CD         9.9810   38.0930   43.3710 C.2   216  GLU216      0.3649
    112  OE1       10.6490   37.1050   43.6240 O.co2 216  GLU216     -0.2457
    113  OE2        8.8090   38.1070   43.6590 O.co2 216  GLU216     -0.2457
    114  N          8.7140   42.1280   45.0930 N.3   219  HIS219     -0.1241
    115  CA         9.1510   42.3570   46.5430 C.3   219  HIS219      0.1621
    116  C          9.3260   43.7860   46.8810 C.2   219  HIS219      0.2264
    117  O          8.8640   44.2710   47.9370 O.2   219  HIS219     -0.2867
    118  CB        10.4360   41.5290   46.7780 C.3   219  HIS219      0.0745
    119  CG        10.1300   40.0490   46.6890 C.ar  219  HIS219      0.0817
    120  ND1       11.1320   39.1380   46.9510 N.ar  219  HIS219     -0.2268
    121  CD2        8.9790   39.3170   46.5330 C.ar  219  HIS219      0.1154
    122  CE1       10.6010   37.9090   46.7880 C.ar  219  HIS219      0.1986
    123  NE2        9.3130   38.0300   46.5750 N.ar  219  HIS219     -0.2212
    124  N         14.9060   39.0360   39.2780 N.3   244  ASP244     -0.1239
    125  CA        13.6970   38.2330   39.1830 C.3   244  ASP244      0.1674
    126  C         12.5310   39.1190   38.6540 C.2   244  ASP244      0.2266
    127  O         12.1660   40.1060   39.3150 O.2   244  ASP244     -0.2867
    128  CB        13.2440   37.6890   40.5340 C.3   244  ASP244      0.1410
    129  CG        13.9570   36.4370   40.9820 C.2   244  ASP244      0.3668
    130  OD1       14.8460   35.9000   40.3430 O.co2 244  ASP244     -0.2456
    131  OD2       13.5840   35.9750   42.0700 O.co2 244  ASP244     -0.2456
    132  N          2.4960   38.3840   48.4690 N.3   254  ASP254     -0.1239
    133  CA         3.3920   38.2650   47.2260 C.3   254  ASP254      0.1674
    134  C          2.6130   37.4740   46.1570 C.2   254  ASP254      0.2266
    135  O          2.4060   36.2590   46.2610 O.2   254  ASP254     -0.2867
    136  CB         4.6310   37.5440   47.7030 C.3   254  ASP254      0.1410
    137  CG         5.7480   37.2970   46.7280 C.2   254  ASP254      0.3668
    138  OD1        5.9890   38.1590   45.8630 O.co2 254  ASP254     -0.2456
    139  OD2        6.4560   36.2620   46.8330 O.co2 254  ASP254     -0.2456
    140  N          3.3180   37.1890   42.6270 N.3   256  ASP256     -0.1239
    141  CA         4.1160   36.5030   41.5970 C.3   256  ASP256      0.1674
    142  C          3.3240   36.3370   40.2960 C.2   256  ASP256      0.2266
    143  O          3.3420   35.2440   39.6880 O.2   256  ASP256     -0.2867
    144  CB         4.6180   35.1490   42.1510 C.3   256  ASP256      0.1410
    145  CG         5.6770   35.2680   43.1920 C.2   256  ASP256      0.3668
    146  OD1        6.1910   36.3900   43.4790 O.co2 256  ASP256     -0.2456
    147  OD2        6.1150   34.2330   43.7480 O.co2 256  ASP256     -0.2456
    148  N         10.4180   34.7910   38.0250 N.3   286  ASP286     -0.1239
    149  CA        10.0490   34.0690   39.2930 C.3   286  ASP286      0.1674
    150  C          8.5330   34.3680   39.4370 C.2   286  ASP286      0.2266
    151  O          8.1500   35.4320   39.9780 O.2   286  ASP286     -0.2867
    152  CB        10.8510   34.5540   40.4960 C.3   286  ASP286      0.1410
    153  CG        10.4510   33.7510   41.7480 C.2   286  ASP286      0.3668
    154  OD1        9.6820   32.8000   41.7220 O.co2 286  ASP286     -0.2456
    155  OD2       10.8990   34.2290   42.8160 O.co2 286  ASP286     -0.2456
    156  N          4.2040   32.6290   39.3500 N.3   288  LYS288     -0.1245
    157  CA         3.3430   31.4490   39.5660 C.3   288  LYS288      0.1561
    158  C          2.1450   31.5480   38.6740 C.2   288  LYS288      0.2260
    159  O          1.3530   32.5260   38.7270 O.2   288  LYS288     -0.2867
    160  CB         2.8160   31.4870   41.0190 C.3   288  LYS288      0.0271
    161  CG         3.8200   31.0320   42.0620 C.3   288  LYS288      0.0035
    162  CD         3.3290   31.3510   43.4800 C.3   288  LYS288      0.0206
    163  CE         4.3200   30.8230   44.5040 C.3   288  LYS288      0.1093
    164  NZ         5.6750   31.4260   44.3470 N.3   288  LYS288     -0.1314
@<TRIPOS>BOND
     1    25    26    1
     2   148   149    1
     3    26    29    1
     4    26    27    1
     5   126   125    1
     6   126   127    2
     7   158   159    2
     8   158   157    1
     9    29    30    1
    10    28    27    2
    11   125   124    1
    12   125   128    1
    13   149   150    1
    14   149   152    1
    15   156   157    1
    16   150   151    2
    17   157   160    1
    18   143   142    2
    19     1     2    1
    20    30    31    1
    21   142   141    1
    22   130   129   ar
    23    32    31    1
    24     3     2    1
    25     3     4    2
    26   152   153    1
    27   128   129    1
    28     2     5    1
    29   129   131   ar
    30   160   161    1
    31   104   102   am
    32    13    14   ar
    33    13    11   ar
    34    14    12   ar
    35    11     8   ar
    36   141   144    1
    37   141   140    1
    38    12    10   ar
    39   154   153   ar
    40   153   155   ar
    41     8    10   ar
    42     8     6   ar
    43    10     9   ar
    44   161   162    1
    45   144   145    1
    46     9     7   ar
    47     6     5    1
    48     6     7   ar
    49   102   103    2
    50   102   101    1
    51   107   106    1
    52   107   108    2
    53   106   105    1
    54   106   109    1
    55   110   109    1
    56   110   111    1
    57    64    62    1
    58    98   101    1
    59    98    99    1
    60    98    97    1
    61    15    16    1
    62   145   146   ar
    63   145   147   ar
    64   111   112   ar
    65   111   113   ar
    66    99   100    2
    67   162   163    1
    68    33    34    1
    69    18    17    2
    70    62    63    1
    71    62    59    1
    72    58    59    1
    73   164   163    1
    74    39    37    1
    75    16    17    1
    76    16    19    1
    77    21    23   ar
    78    21    20   ar
    79    23    24   ar
    80    59    60    1
    81    37    34    1
    82    37    38    1
    83    86    85   ar
    84   114   115    1
    85    87    85   ar
    86    34    35    1
    87    85    84    1
    88    19    20    1
    89    20    22   ar
    90    36    35    2
    91   138   137   ar
    92    24    22   ar
    93    35    40   am
    94   134   135    2
    95   134   133    1
    96    84    83    1
    97    60    61    2
    98   121   123   ar
    99   121   119   ar
   100   115   118    1
   101   115   116    1
   102   123   122   ar
   103   119   118    1
   104   119   120   ar
   105   137   139   ar
   106   137   136    1
   107    83    80    1
   108   122   120   ar
   109   116   117    2
   110   133   136    1
   111   133   132    1
   112    80    79    1
   113    80    81    1
   114    40    41    1
   115    41    42    1
   116    41    44    1
   117    81    82    2
   118    69    70    1
   119    69    66    1
   120    42    43    2
   121    57    56   ar
   122    57    55   ar
   123    45    44    1
   124    65    66    1
   125    70    71   ar
   126    70    72   ar
   127    44    46    1
   128    71    73   ar
   129    56    54   ar
   130    66    67    1
   131    96    95    1
   132    72    75   ar
   133    72    74   ar
   134    55    53   ar
   135    95    94    1
   136    75    77   ar
   137    94    93    1
   138    73    74   ar
   139    93    92    1
   140    74    76   ar
   141    77    78   ar
   142    92    89    1
   143    88    89    1
   144    89    90    1
   145    76    78   ar
   146    54    52   ar
   147    67    68    2
   148    53    52   ar
   149    52    51    1
   150    90    91    2
   151    51    48    1
   152    47    48    1
   153    48    49    1
   154    49    50    2
