@<TRIPOS>MOLECULE
tmp/4xitA00.pdb
 182 171 0 0 0
SMALL
GASTEIGER

@<TRIPOS>ATOM
      1  N         -0.9560  -11.5360  -16.5470 N.3    33  LEU33      -0.1245
      2  CA        -1.6040  -12.1970  -17.6890 C.3    33  LEU33       0.1561
      3  C         -2.8350  -11.4200  -18.1310 C.2    33  LEU33       0.2260
      4  O         -3.0040  -11.1910  -19.3370 O.2    33  LEU33      -0.2867
      5  CB        -1.9870  -13.6490  -17.3560 C.3    33  LEU33       0.0270
      6  CG        -0.8500  -14.6490  -17.4290 C.3    33  LEU33       0.0019
      7  CD1       -1.0490  -15.7470  -16.4530 C.3    33  LEU33       0.0001
      8  CD2       -0.7270  -15.2220  -18.8000 C.3    33  LEU33       0.0001
      9  N         -1.7880   -8.0290  -19.8240 N.3    36  ASN36      -0.1225
     10  CA        -1.3250   -8.2710  -21.2100 C.3    36  ASN36       0.1785
     11  C         -2.5440   -8.4780  -22.1130 C.2    36  ASN36       0.2597
     12  O         -2.5750   -7.9350  -23.2190 O.2    36  ASN36      -0.2718
     13  CB        -0.3820   -9.4790  -21.2870 C.3    36  ASN36       0.1169
     14  CG         1.0520   -9.2310  -20.8450 C.2    36  ASN36       0.2627
     15  OD1        1.8180  -10.1730  -20.6430 O.2    36  ASN36      -0.2716
     16  ND2        1.4650   -7.9780  -20.6890 N.am   36  ASN36      -0.0877
     17  N         -3.5590   -9.2230  -21.6050 N.am   37  SER37      -0.1952
     18  CA        -4.8240   -9.4950  -22.2980 C.3    37  SER37       0.1924
     19  C         -5.5660   -8.1810  -22.5240 C.2    37  SER37       0.2314
     20  O         -5.9960   -7.9290  -23.6490 O.2    37  SER37      -0.2863
     21  CB        -5.6740  -10.4820  -21.5040 C.3    37  SER37       0.2116
     22  OG        -5.1070  -11.7780  -21.5920 O.3    37  SER37      -0.2180
     23  N         -3.8420   -6.0000  -25.1800 N.3    40  ALA40      -0.1245
     24  CA        -4.0910   -6.6380  -26.4820 C.3    40  ALA40       0.1562
     25  C         -5.5110   -6.3100  -26.9770 C.2    40  ALA40       0.2260
     26  O         -5.7140   -6.1070  -28.1810 O.2    40  ALA40      -0.2867
     27  CB        -3.9010   -8.1390  -26.3700 C.3    40  ALA40       0.0290
     28  N         -5.6260   -2.5100  -27.9960 N.3    43  LYS43      -0.1245
     29  CA        -5.0020   -2.3780  -29.3200 C.3    43  LYS43       0.1561
     30  C         -5.9530   -2.6990  -30.4730 C.2    43  LYS43       0.2260
     31  O         -6.0540   -1.8880  -31.4060 O.2    43  LYS43      -0.2867
     32  CB        -3.7140   -3.2120  -29.4290 C.3    43  LYS43       0.0271
     33  CG        -2.5290   -2.6440  -28.6690 C.3    43  LYS43       0.0035
     34  CD        -1.3420   -3.5540  -28.8390 C.3    43  LYS43       0.0206
     35  CE        -0.2460   -3.2230  -27.8700 C.3    43  LYS43       0.1093
     36  NZ         0.8540   -4.2150  -27.9670 N.3    43  LYS43      -0.1314
     37  N         -8.0620  -14.5300  -24.4170 N.3    78  ASP78      -0.1239
     38  CA        -8.4770  -13.1790  -24.7560 C.3    78  ASP78       0.1674
     39  C         -8.7710  -13.1240  -26.2480 C.2    78  ASP78       0.2266
     40  O         -8.2620  -13.9540  -27.0160 O.2    78  ASP78      -0.2867
     41  CB        -7.4590  -12.1030  -24.3070 C.3    78  ASP78       0.1410
     42  CG        -6.1340  -12.0710  -25.0550 C.2    78  ASP78       0.3668
     43  OD1       -6.1420  -11.7570  -26.2670 O.co2  78  ASP78      -0.2456
     44  OD2       -5.0880  -12.3170  -24.4210 O.co2  78  ASP78      -0.2456
     45  N         -5.6500   -8.3630  -29.9940 N.3    81  ILE81      -0.1231
     46  CA        -4.9730   -8.2280  -31.2980 C.3    81  ILE81       0.1692
     47  C         -4.1160   -9.4780  -31.6810 C.2    81  ILE81       0.2593
     48  O         -3.8520   -9.6810  -32.8620 O.2    81  ILE81      -0.2718
     49  CB        -4.1620   -6.8910  -31.3330 C.3    81  ILE81       0.0266
     50  CG1       -3.9060   -6.4250  -32.8060 C.3    81  ILE81       0.0019
     51  CG2       -2.8560   -6.9380  -30.4710 C.3    81  ILE81       0.0020
     52  CD1       -3.6010   -4.9110  -33.0070 C.3    81  ILE81       0.0001
     53  N         -3.7030  -10.2790  -30.6930 N.am   82  GLY82      -0.1942
     54  CA        -2.8790  -11.4580  -30.9270 C.3    82  GLY82       0.2014
     55  C         -1.4420  -11.0740  -31.2100 C.2    82  GLY82       0.2638
     56  O         -1.0420   -9.9120  -31.0360 O.2    82  GLY82      -0.2714
     57  N         -0.6620  -12.0600  -31.6510 N.am   83  MET83      -0.1976
     58  CA         0.7550  -11.8950  -31.9670 C.3    83  MET83       0.1605
     59  C          1.1000  -12.6020  -33.2510 C.2    83  MET83       0.2287
     60  O          0.5900  -13.6960  -33.5160 O.2    83  MET83      -0.2864
     61  CB         1.6380  -12.4320  -30.8190 C.3    83  MET83       0.0413
     62  CG         1.6980  -11.5010  -29.6040 C.3    83  MET83       0.0598
     63  SD         2.4800  -12.2150  -28.1330 S.3    83  MET83      -0.1393
     64  CE         1.2070  -13.3970  -27.6050 C.3    83  MET83       0.0692
     65  N          6.5730  -11.3100  -33.8230 N.3    87  ASP87      -0.1225
     66  CA         6.4020  -10.9280  -32.4110 C.3    87  ASP87       0.1805
     67  C          6.9430  -12.0370  -31.4920 C.2    87  ASP87       0.2597
     68  O          7.7350  -11.7440  -30.5920 O.2    87  ASP87      -0.2718
     69  CB         4.9160  -10.6470  -32.0640 C.3    87  ASP87       0.1424
     70  CG         4.2530   -9.4570  -32.7360 C.2    87  ASP87       0.3668
     71  OD1        4.9650   -8.4970  -33.0860 O.co2  87  ASP87      -0.2456
     72  OD2        3.0180   -9.4840  -32.9020 O.co2  87  ASP87      -0.2456
     73  N          6.5270  -13.2980  -31.7480 N.am   88  LEU88      -0.1979
     74  CA         6.9000  -14.4950  -30.9830 C.3    88  LEU88       0.1596
     75  C          8.3720  -14.8760  -31.0030 C.2    88  LEU88       0.2287
     76  O          8.8570  -15.4090  -30.0030 O.2    88  LEU88      -0.2864
     77  CB         6.0910  -15.7250  -31.4410 C.3    88  LEU88       0.0297
     78  CG         4.5770  -15.7600  -31.2240 C.3    88  LEU88       0.0022
     79  CD1        4.0040  -16.9820  -31.8910 C.3    88  LEU88       0.0001
     80  CD2        4.2020  -15.7640  -29.7260 C.3    88  LEU88       0.0001
     81  N         10.7580   -9.6660  -32.4290 N.3    91  ASN91      -0.1225
     82  CA        10.2710   -8.3920  -31.9060 C.3    91  ASN91       0.1785
     83  C         10.1800   -8.2580  -30.3710 C.2    91  ASN91       0.2597
     84  O         10.7010   -7.2740  -29.8370 O.2    91  ASN91      -0.2718
     85  CB         8.9110   -8.0660  -32.5230 C.3    91  ASN91       0.1169
     86  CG         8.7430   -7.9080  -34.0310 C.2    91  ASN91       0.2627
     87  OD1        7.6050   -7.8300  -34.5250 O.2    91  ASN91      -0.2716
     88  ND2        9.8210   -7.8310  -34.8020 N.am   91  ASN91      -0.0877
     89  N          9.5230   -9.2120  -29.6730 N.am   92  LEU92      -0.1966
     90  CA         9.3530   -9.1250  -28.2180 C.3    92  LEU92       0.1728
     91  C         10.6240   -9.4680  -27.4280 C.2    92  LEU92       0.2616
     92  O         10.7370   -9.0140  -26.2890 O.2    92  LEU92      -0.2715
     93  CB         8.1350   -9.9270  -27.7240 C.3    92  LEU92       0.0311
     94  CG         6.7820   -9.2220  -27.9960 C.3    92  LEU92       0.0022
     95  CD1        5.6310  -10.1640  -27.8950 C.3    92  LEU92       0.0001
     96  CD2        6.5710   -7.9930  -27.0940 C.3    92  LEU92       0.0001
     97  N         11.5700  -10.1850  -28.0530 N.am   93  GLY93      -0.1955
     98  CA        12.8620  -10.5700  -27.4760 C.3    93  GLY93       0.1869
     99  C         13.7550   -9.3910  -27.1800 C.2    93  GLY93       0.2309
    100  O         14.3670   -9.3190  -26.1080 O.2    93  GLY93      -0.2863
    101  N         12.7570   -6.1720  -26.8090 N.3    95  ILE95      -0.1231
    102  CA        12.0520   -5.4230  -25.7500 C.3    95  ILE95       0.1692
    103  C         12.3260   -6.0700  -24.3830 C.2    95  ILE95       0.2591
    104  O         12.7220   -5.3720  -23.4410 O.2    95  ILE95      -0.2718
    105  CB        10.5130   -5.3280  -26.0790 C.3    95  ILE95       0.0266
    106  CG1       10.2250   -4.6170  -27.4500 C.3    95  ILE95       0.0019
    107  CG2        9.6740   -4.7020  -24.9400 C.3    95  ILE95       0.0020
    108  CD1       10.9330   -3.2110  -27.7820 C.3    95  ILE95       0.0001
    109  N         12.1200   -7.4020  -24.2970 N.am   96  ALA96      -0.1980
    110  CA        12.3160   -8.1890  -23.0900 C.3    96  ALA96       0.1597
    111  C         13.7680   -8.1900  -22.5740 C.2    96  ALA96       0.2287
    112  O         13.9390   -8.2660  -21.3580 O.2    96  ALA96      -0.2864
    113  CB        11.7910   -9.6020  -23.2790 C.3    96  ALA96       0.0319
    114  N          7.9500   -4.4090  -18.4280 N.3   120  GLY120     -0.1210
    115  CA         7.3610   -5.0180  -19.6250 C.3   120  GLY120      0.1956
    116  C          7.6480   -6.4950  -19.8390 C.2   120  GLY120      0.2611
    117  O          7.4500   -6.9990  -20.9500 O.2   120  GLY120     -0.2717
    118  N          8.1110   -7.1980  -18.7820 N.am  121  VAL121     -0.1979
    119  CA         8.4460   -8.6340  -18.8150 C.3   121  VAL121      0.1595
    120  C          7.5070   -9.4510  -17.8830 C.2   121  VAL121      0.2287
    121  O          7.8300  -10.5890  -17.5100 O.2   121  VAL121     -0.2864
    122  CB         9.9620   -8.9270  -18.5760 C.3   121  VAL121      0.0276
    123  CG1       10.8040   -8.4190  -19.7360 C.3   121  VAL121      0.0022
    124  CG2       10.4710   -8.3720  -17.2420 C.3   121  VAL121      0.0022
    125  N          4.8750  -11.1110  -18.4740 N.3   123  PHE123     -0.1227
    126  CA         4.5200  -12.4290  -19.0350 C.3   123  PHE123      0.1736
    127  C          5.3010  -13.5710  -18.3410 C.2   123  PHE123      0.2595
    128  O          4.7160  -14.6060  -18.0440 O.2   123  PHE123     -0.2718
    129  CB         4.7750  -12.4890  -20.5710 C.3   123  PHE123      0.0547
    130  CG         4.7480  -13.9020  -21.1190 C.ar  123  PHE123     -0.0202
    131  CD1        3.5360  -14.5530  -21.3530 C.ar  123  PHE123     -0.0042
    132  CD2        5.9400  -14.6120  -21.3340 C.ar  123  PHE123     -0.0042
    133  CE1        3.5120  -15.8800  -21.8130 C.ar  123  PHE123     -0.0003
    134  CE2        5.9150  -15.9400  -21.7890 C.ar  123  PHE123     -0.0003
    135  CZ         4.7010  -16.5610  -22.0330 C.ar  123  PHE123     -0.0000
    136  N          6.6170  -13.3650  -18.1010 N.am  124  TYR124     -0.1976
    137  CA         7.5290  -14.3470  -17.5010 C.3   124  TYR124      0.1639
    138  C          7.1810  -14.7130  -16.0460 C.2   124  TYR124      0.2290
    139  O          7.6530  -15.7620  -15.5910 O.2   124  TYR124     -0.2864
    140  CB         9.0030  -13.9180  -17.6670 C.3   124  TYR124      0.0560
    141  CG         9.3810  -13.9790  -19.1330 C.ar  124  TYR124     -0.0198
    142  CD1        9.6440  -15.2030  -19.7590 C.ar  124  TYR124     -0.0009
    143  CD2        9.3910  -12.8250  -19.9200 C.ar  124  TYR124     -0.0009
    144  CE1        9.9380  -15.2710  -21.1250 C.ar  124  TYR124      0.0417
    145  CE2        9.6830  -12.8840  -21.2880 C.ar  124  TYR124      0.0417
    146  CZ         9.9580  -14.1070  -21.8830 C.ar  124  TYR124      0.1957
    147  OH        10.2420  -14.1670  -23.2250 O.3   124  TYR124     -0.2866
    148  N          1.5130  -20.8220  -25.4780 N.3   135  VAL135     -0.1245
    149  CA         0.8680  -19.6050  -25.9600 C.3   135  VAL135      0.1561
    150  C          0.3550  -19.8880  -27.3690 C.2   135  VAL135      0.2260
    151  O          1.1680  -20.0560  -28.2830 O.2   135  VAL135     -0.2867
    152  CB         1.8010  -18.3480  -25.8900 C.3   135  VAL135      0.0252
    153  CG1        1.1250  -17.1050  -26.4780 C.3   135  VAL135      0.0019
    154  CG2        2.2860  -18.0770  -24.4580 C.3   135  VAL135      0.0019
    155  N          3.4710  -21.2370  -29.3260 N.3   147  TRP147     -0.1241
    156  CA         4.7640  -20.9230  -28.7030 C.3   147  TRP147      0.1605
    157  C          4.7560  -21.7730  -27.4400 C.2   147  TRP147      0.2264
    158  O          3.7270  -21.8280  -26.7640 O.2   147  TRP147     -0.2867
    159  CB         4.8440  -19.4340  -28.3160 C.3   147  TRP147      0.0550
    160  CG         6.0980  -19.0120  -27.5880 C.ar  147  TRP147      0.0003
    161  CD1        7.1870  -18.4090  -28.1350 C.ar  147  TRP147      0.0946
    162  CD2        6.3710  -19.1260  -26.1730 C.ar  147  TRP147      0.0152
    163  NE1        8.1170  -18.1320  -27.1600 N.ar  147  TRP147     -0.2442
    164  CE2        7.6560  -18.5780  -25.9520 C.ar  147  TRP147      0.0810
    165  CE3        5.6560  -19.6430  -25.0680 C.ar  147  TRP147      0.0012
    166  CZ2        8.2420  -18.5110  -24.6720 C.ar  147  TRP147      0.0191
    167  CZ3        6.2450  -19.5980  -23.8010 C.ar  147  TRP147      0.0001
    168  CH2        7.5150  -19.0200  -23.6100 C.ar  147  TRP147      0.0015
    169  N         -5.3110  -14.5180  -28.0890 N.3   169  THR169     -0.1218
    170  CA        -4.2770  -15.3060  -27.4200 C.3   169  THR169      0.1862
    171  C         -4.8480  -16.1790  -26.2990 C.2   169  THR169      0.2287
    172  O         -5.6900  -15.7140  -25.5300 O.2   169  THR169     -0.2866
    173  CB        -3.1520  -14.3570  -26.9270 C.3   169  THR169      0.1770
    174  OG1       -2.6530  -13.6030  -28.0280 O.3   169  THR169     -0.2211
    175  CG2       -1.9910  -15.0900  -26.2640 C.3   169  THR169      0.0375
    176  N         -3.2580  -18.5870  -23.2060 N.3   171  VAL171     -0.1245
    177  CA        -2.0630  -18.8890  -22.4040 C.3   171  VAL171      0.1561
    178  C         -2.4440  -20.0770  -21.5380 C.2   171  VAL171      0.2260
    179  O         -3.2950  -19.9480  -20.6590 O.2   171  VAL171     -0.2867
    180  CB        -1.5000  -17.7160  -21.5650 C.3   171  VAL171      0.0252
    181  CG1       -0.2250  -18.1410  -20.8300 C.3   171  VAL171      0.0019
    182  CG2       -1.2250  -16.5040  -22.4370 C.3   171  VAL171      0.0019
@<TRIPOS>BOND
     1    88    86   am
     2    87    86    2
     3    86    85    1
     4    65    66    1
     5    60    59    2
     6    59    58    1
     7    71    70   ar
     8    52    50    1
     9    72    70   ar
    10    48    47    2
    11    50    49    1
    12    70    69    1
    13    85    82    1
    14    81    82    1
    15    66    69    1
    16    66    67    1
    17    58    57    1
    18    58    61    1
    19    82    83    1
    20    79    78    1
    21    73    67   am
    22    73    74    1
    23    47    46    1
    24    47    53   am
    25    57    55   am
    26    67    68    2
    27    77    78    1
    28    77    74    1
    29    31    30    2
    30    49    46    1
    31    49    51    1
    32    46    45    1
    33    78    80    1
    34    55    56    2
    35    55    54    1
    36    75    74    1
    37    75    76    2
    38    54    53    1
    39    61    62    1
    40    30    29    1
    41    83    84    2
    42    83    89   am
    43    89    90    1
    44    62    63    1
    45    32    29    1
    46    32    33    1
    47   155   156    1
    48    29    28    1
    49    34    33    1
    50    34    35    1
    51   156   159    1
    52   156   157    1
    53   159   160    1
    54   151   150    2
    55    90    93    1
    56    90    91    1
    57    26    25    2
    58   161   160   ar
    59   161   163   ar
    60    63    64    1
    61   169   170    1
    62    97    98    1
    63    97    91   am
    64   174   173    1
    65    94    95    1
    66    94    93    1
    67    94    96    1
    68    36    35    1
    69   108   106    1
    70   160   162   ar
    71    98    99    1
    72   106   105    1
    73   157   158    2
    74    91    92    2
    75   170   173    1
    76   170   171    1
    77   150   149    1
    78    99   100    2
    79   163   164   ar
    80    40    39    2
    81    25    24    1
    82   173   175    1
    83   101   102    1
    84    24    27    1
    85    24    23    1
    86   153   152    1
    87   171   172    2
    88    43    42   ar
    89    39    38    1
    90   162   164   ar
    91   162   165   ar
    92   105   102    1
    93   105   107    1
    94   149   152    1
    95   149   148    1
    96   164   166   ar
    97   152   154    1
    98   102   103    1
    99   165   167   ar
   100    42    44   ar
   101    42    41    1
   102    38    37    1
   103    38    41    1
   104   166   168   ar
   105   103   109   am
   106   103   104    2
   107   109   110    1
   108   167   168   ar
   109    20    19    2
   110   113   110    1
   111   147   146    1
   112    12    11    2
   113   176   177    1
   114   110   111    1
   115   111   112    2
   116    19    18    1
   117   182   180    1
   118   177   180    1
   119   177   178    1
   120    18    17    1
   121    18    21    1
   122    11    17   am
   123    11    10    1
   124   135   133   ar
   125   135   134   ar
   126   146   145   ar
   127   146   144   ar
   128   133   131   ar
   129   134   132   ar
   130    22    21    1
   131   180   181    1
   132   178   179    2
   133   131   130   ar
   134   132   130   ar
   135   145   143   ar
   136    13    10    1
   137    13    14    1
   138    10     9    1
   139   144   142   ar
   140   130   129    1
   141   117   116    2
   142    14    16   am
   143    14    15    2
   144   129   126    1
   145   143   141   ar
   146   116   115    1
   147   116   118   am
   148   142   141   ar
   149   123   122    1
   150   115   114    1
   151     4     3    2
   152   141   140    1
   153   126   125    1
   154   126   127    1
   155   119   118    1
   156   119   122    1
   157   119   120    1
   158     8     6    1
   159   122   124    1
   160   127   136   am
   161   127   128    2
   162     3     2    1
   163   136   137    1
   164   120   121    2
   165     2     5    1
   166     2     1    1
   167   140   137    1
   168   137   138    1
   169     6     5    1
   170     6     7    1
   171   138   139    2
