@<TRIPOS>MOLECULE
tmp/4xivB00.pdb
 139 130 0 0 0
SMALL
GASTEIGER

@<TRIPOS>ATOM
      1  N        -10.7540   70.1400   40.7710 N.3   117  HIS117     -0.1226
      2  CA       -11.0300   70.7110   42.0810 C.3   117  HIS117      0.1752
      3  C        -10.6740   72.1920   42.1220 C.2   117  HIS117      0.2595
      4  O        -11.4620   73.0140   42.5910 O.2   117  HIS117     -0.2718
      5  CB       -10.2610   69.9550   43.1640 C.3   117  HIS117      0.0759
      6  CG       -10.6870   70.3000   44.5550 C.ar  117  HIS117      0.0818
      7  ND1      -11.9860   70.1550   44.9930 N.ar  117  HIS117     -0.2268
      8  CD2       -9.9870   70.7860   45.6080 C.ar  117  HIS117      0.1154
      9  CE1      -12.0680   70.5360   46.2540 C.ar  117  HIS117      0.1986
     10  NE2      -10.8690   70.9230   46.6520 N.ar  117  HIS117     -0.2212
     11  N         -9.4850   72.5250   41.6270 N.am  118  LEU118     -0.1980
     12  CA        -9.0300   73.9100   41.5850 C.3   118  LEU118      0.1596
     13  C         -9.9400   74.7490   40.6950 C.2   118  LEU118      0.2287
     14  O        -10.2200   75.9100   40.9960 O.2   118  LEU118     -0.2864
     15  CB        -7.5870   73.9910   41.0840 C.3   118  LEU118      0.0297
     16  CG        -6.5530   73.1170   41.7980 C.3   118  LEU118      0.0022
     17  CD1       -5.1610   73.3670   41.2390 C.3   118  LEU118      0.0001
     18  CD2       -6.5800   73.3480   43.2980 C.3   118  LEU118      0.0001
     19  N        -13.1450   73.9620   40.0880 N.3   120  ARG120     -0.1231
     20  CA       -14.4020   74.0170   40.8260 C.3   120  ARG120      0.1694
     21  C        -14.3310   75.0840   41.9130 C.2   120  ARG120      0.2592
     22  O        -15.3090   75.7860   42.1740 O.2   120  ARG120     -0.2718
     23  CB       -14.7300   72.6520   41.4360 C.3   120  ARG120      0.0321
     24  CG       -16.1660   72.5120   41.9200 C.3   120  ARG120      0.0489
     25  CD       -16.4340   71.1120   42.4530 C.3   120  ARG120      0.2205
     26  NE       -15.7560   70.8690   43.7240 N.pl3 120  ARG120     -0.0865
     27  CZ       -15.6820   69.6820   44.3180 C.cat 120  ARG120      0.5346
     28  NH1      -16.2380   68.6190   43.7530 N.pl3 120  ARG120      0.1354
     29  NH2      -15.0470   69.5560   45.4750 N.pl3 120  ARG120      0.1354
     30  N        -13.1630   75.2010   42.5370 N.am  121  ASN121     -0.1960
     31  CA       -12.9150   76.2340   43.5350 C.3   121  ASN121      0.1819
     32  C        -13.0530   77.6360   42.9610 C.2   121  ASN121      0.2621
     33  O        -13.8130   78.4570   43.4770 O.2   121  ASN121     -0.2715
     34  CB       -11.5200   76.0690   44.1390 C.3   121  ASN121      0.1195
     35  CG       -11.4740   75.0140   45.2230 C.2   121  ASN121      0.2630
     36  OD1      -12.4660   74.3340   45.4880 O.2   121  ASN121     -0.2716
     37  ND2      -10.3160   74.8680   45.8560 N.am  121  ASN121     -0.0877
     38  N        -12.3120   77.8980   41.8890 N.am  122  ALA122     -0.1977
     39  CA       -12.2800   79.2160   41.2650 C.3   122  ALA122      0.1597
     40  C        -13.6680   79.6810   40.8320 C.2   122  ALA122      0.2287
     41  O        -13.9680   80.8710   40.8760 O.2   122  ALA122     -0.2864
     42  CB       -11.3330   79.2110   40.0780 C.3   122  ALA122      0.0319
     43  N        -15.7860   79.7600   45.0160 N.3   125  HIS125     -0.1226
     44  CA       -15.2770   80.7430   45.9660 C.3   125  HIS125      0.1752
     45  C        -14.4490   81.8290   45.2920 C.2   125  HIS125      0.2596
     46  O        -14.3620   82.9530   45.7890 O.2   125  HIS125     -0.2718
     47  CB       -14.4470   80.0470   47.0420 C.3   125  HIS125      0.0759
     48  CG       -15.1810   78.9510   47.7490 C.ar  125  HIS125      0.0818
     49  ND1      -16.3290   79.1770   48.4770 N.ar  125  HIS125     -0.2268
     50  CD2      -14.9350   77.6240   47.8360 C.ar  125  HIS125      0.1154
     51  CE1      -16.7580   78.0350   48.9840 C.ar  125  HIS125      0.1986
     52  NE2      -15.9290   77.0760   48.6100 N.ar  125  HIS125     -0.2212
     53  N        -13.8400   81.4900   44.1610 N.am  126  GLY126     -0.1957
     54  CA       -13.0060   82.4320   43.4390 C.3   126  GLY126      0.1869
     55  C        -13.8010   83.5460   42.7870 C.2   126  GLY126      0.2309
     56  O        -13.7270   84.6990   43.2070 O.2   126  GLY126     -0.2863
     57  N         -7.6240   82.5840   38.2000 N.3   161  ASP161     -0.1239
     58  CA        -8.8520   83.3470   38.0370 C.3   161  ASP161      0.1674
     59  C         -8.6360   84.7820   38.4920 C.2   161  ASP161      0.2266
     60  O         -7.5890   85.1170   39.0450 O.2   161  ASP161     -0.2867
     61  CB        -9.9950   82.7110   38.8300 C.3   161  ASP161      0.1410
     62  CG        -9.7340   82.7040   40.3250 C.2   161  ASP161      0.3668
     63  OD1       -9.2030   81.6940   40.8330 O.co2 161  ASP161     -0.2456
     64  OD2      -10.0580   83.7100   40.9920 O.co2 161  ASP161     -0.2456
     65  N        -10.0790   86.9080   45.5040 N.3   165  GLY165     -0.1210
     66  CA        -8.8180   86.4950   46.0860 C.3   165  GLY165      0.1956
     67  C         -9.0980   85.6030   47.2770 C.2   165  GLY165      0.2611
     68  O        -10.2310   85.1620   47.4760 O.2   165  GLY165     -0.2717
     69  N         -8.0710   85.3290   48.0710 N.am  166  ILE166     -0.1979
     70  CA        -8.2490   84.5600   49.2930 C.3   166  ILE166      0.1595
     71  C         -8.0220   85.4520   50.5040 C.2   166  ILE166      0.2287
     72  O         -7.0220   86.1660   50.5770 O.2   166  ILE166     -0.2864
     73  CB        -7.2930   83.3550   49.3580 C.3   166  ILE166      0.0276
     74  CG1       -7.5460   82.4090   48.1830 C.3   166  ILE166      0.0022
     75  CG2       -7.4560   82.6150   50.6780 C.3   166  ILE166      0.0022
     76  CD1       -6.6870   81.1650   48.2070 C.3   166  ILE166      0.0001
     77  N         -8.4640   85.7520   57.4530 N.3   170  LYS170     -0.1245
     78  CA        -9.3610   84.6980   57.9170 C.3   170  LYS170      0.1561
     79  C         -8.5750   83.4270   58.2030 C.2   170  LYS170      0.2260
     80  O         -8.8570   82.7110   59.1630 O.2   170  LYS170     -0.2867
     81  CB       -10.4570   84.4200   56.8850 C.3   170  LYS170      0.0271
     82  CG       -11.4540   83.3530   57.3130 C.3   170  LYS170      0.0035
     83  CD       -12.4750   83.0690   56.2220 C.3   170  LYS170      0.0206
     84  CE       -13.4290   81.9550   56.6350 C.3   170  LYS170      0.1093
     85  NZ       -14.4070   81.6200   55.5610 N.3   170  LYS170     -0.1314
     86  N         -3.7300   76.1740   54.0620 N.3   198  LEU198     -0.1245
     87  CA        -4.8000   75.5460   53.2980 C.3   198  LEU198      0.1561
     88  C         -4.4890   74.0780   53.0230 C.2   198  LEU198      0.2260
     89  O         -5.3920   73.2750   52.7900 O.2   198  LEU198     -0.2867
     90  CB        -5.0250   76.2940   51.9850 C.3   198  LEU198      0.0270
     91  CG        -5.4700   77.7500   52.1320 C.3   198  LEU198      0.0019
     92  CD1       -5.4780   78.4540   50.7840 C.3   198  LEU198      0.0001
     93  CD2       -6.8420   77.8160   52.7860 C.3   198  LEU198      0.0001
     94  N         -8.8000   73.8410   56.3430 N.3   204  SER204     -0.1202
     95  CA        -9.7140   74.6100   55.5060 C.3   204  SER204      0.2020
     96  C        -11.1750   74.1860   55.6320 C.2   204  SER204      0.2619
     97  O        -12.0530   74.7970   55.0240 O.2   204  SER204     -0.2717
     98  CB        -9.2800   74.5200   54.0430 C.3   204  SER204      0.2103
     99  OG        -9.4550   73.2100   53.5330 O.3   204  SER204     -0.2182
    100  N        -11.4430   73.1510   56.4190 N.am  205  THR205     -0.1952
    101  CA       -12.8200   72.7190   56.6200 C.3   205  THR205      0.1897
    102  C        -13.2420   72.8680   58.0800 C.2   205  THR205      0.2313
    103  O        -12.4050   72.9780   58.9780 O.2   205  THR205     -0.2863
    104  CB       -13.0270   71.2560   56.1680 C.3   205  THR205      0.1794
    105  OG1      -14.4170   71.0230   55.9100 O.3   205  THR205     -0.2208
    106  CG2      -12.5330   70.2830   57.2290 C.3   205  THR205      0.0378
    107  N        -12.3490   65.2630   50.3440 N.3   217  VAL217     -0.1231
    108  CA       -12.2460   66.3550   49.3910 C.3   217  VAL217      0.1692
    109  C        -11.6520   67.5770   50.0890 C.2   217  VAL217      0.2593
    110  O        -12.1210   67.9850   51.1530 O.2   217  VAL217     -0.2718
    111  CB       -13.6240   66.6970   48.7790 C.3   217  VAL217      0.0266
    112  CG1      -14.7100   66.6900   49.8520 C.3   217  VAL217      0.0020
    113  CG2      -13.5770   68.0300   48.0540 C.3   217  VAL217      0.0020
    114  N        -10.6040   68.1450   49.5040 N.am  218  GLY218     -0.1942
    115  CA        -9.9420   69.2910   50.0990 C.3   218  GLY218      0.2014
    116  C         -8.5740   69.5590   49.5040 C.2   218  GLY218      0.2638
    117  O         -8.0200   68.7210   48.7930 O.2   218  GLY218     -0.2714
    118  N         -8.0250   70.7320   49.8050 N.am  219  MET219     -0.1976
    119  CA        -6.7280   71.1340   49.2740 C.3   219  MET219      0.1605
    120  C         -5.5870   70.3220   49.8810 C.2   219  MET219      0.2287
    121  O         -4.4650   70.3460   49.3770 O.2   219  MET219     -0.2864
    122  CB        -6.4920   72.6260   49.5180 C.3   219  MET219      0.0413
    123  CG        -7.4370   73.5430   48.7590 C.3   219  MET219      0.0598
    124  SD        -7.1280   73.5580   46.9830 S.3   219  MET219     -0.1393
    125  CE        -5.4650   74.2220   46.9300 C.3   219  MET219      0.0692
    126  N         -6.8850   84.4600   42.2350 N.3   243  THR243     -0.1218
    127  CA        -6.1020   83.3600   42.7830 C.3   243  THR243      0.1862
    128  C         -5.3630   82.6280   41.6700 C.2   243  THR243      0.2287
    129  O         -5.9310   82.3570   40.6120 O.2   243  THR243     -0.2866
    130  CB        -6.9900   82.3590   43.5460 C.3   243  THR243      0.1770
    131  OG1       -7.8310   83.0640   44.4680 O.3   243  THR243     -0.2211
    132  CG2       -6.1360   81.3540   44.3020 C.3   243  THR243      0.0375
    133  N         -3.0770   79.2230   41.1920 N.3   245  VAL245     -0.1245
    134  CA        -2.5040   77.9870   41.7120 C.3   245  VAL245      0.1561
    135  C         -1.5330   77.3790   40.7040 C.2   245  VAL245      0.2260
    136  O         -1.8250   77.3240   39.5100 O.2   245  VAL245     -0.2867
    137  CB        -3.5950   76.9580   42.0520 C.3   245  VAL245      0.0252
    138  CG1       -3.0180   75.8450   42.9110 C.3   245  VAL245      0.0019
    139  CG2       -4.7550   77.6340   42.7660 C.3   245  VAL245      0.0019
@<TRIPOS>BOND
     1    58    57    1
     2    58    59    1
     3    58    61    1
     4    59    60    2
     5    61    62    1
     6   136   135    2
     7    42    39    1
     8    19    20    1
     9    62    63   ar
    10    62    64   ar
    11   129   128    2
    12    13    14    2
    13    13    12    1
    14   135   134    1
    15     1     2    1
    16    20    23    1
    17    20    21    1
    18    40    41    2
    19    40    39    1
    20    15    12    1
    21    15    16    1
    22   133   134    1
    23    17    16    1
    24    39    38    1
    25    23    24    1
    26    12    11    1
    27    11     3   am
    28   128   127    1
    29   134   137    1
    30    16    18    1
    31    38    32   am
    32    21    22    2
    33    21    30   am
    34    24    25    1
    35   137   139    1
    36   137   138    1
    37     2     3    1
    38     2     5    1
    39     3     4    2
    40   126   127    1
    41    25    26    1
    42    30    31    1
    43   127   130    1
    44    55    56    2
    45    55    54    1
    46    32    33    2
    47    32    31    1
    48     5     6    1
    49    54    53    1
    50    31    34    1
    51   130   132    1
    52   130   131    1
    53    26    27    2
    54    28    27    1
    55    34    35    1
    56    53    45   am
    57    27    29    1
    58     6     7   ar
    59     6     8   ar
    60     7     9   ar
    61    43    44    1
    62    35    36    2
    63    35    37   am
    64    45    46    2
    65    45    44    1
    66    65    66    1
    67     8    10   ar
    68    44    47    1
    69    66    67    1
    70     9    10   ar
    71   125   124    1
    72   124   123    1
    73    47    48    1
    74    67    68    2
    75    67    69   am
    76    48    50   ar
    77    48    49   ar
    78    50    52   ar
    79   113   111    1
    80    69    70    1
    81    74    76    1
    82    74    73    1
    83    49    51   ar
    84    52    51   ar
    85   123   122    1
    86   111   108    1
    87   111   112    1
    88   117   116    2
    89   119   122    1
    90   119   118    1
    91   119   120    1
    92    70    73    1
    93    70    71    1
    94    73    75    1
    95   121   120    2
    96   108   109    1
    97   108   107    1
    98   116   118   am
    99   116   115    1
   100   114   109   am
   101   114   115    1
   102   109   110    2
   103    71    72    2
   104    92    91    1
   105    90    91    1
   106    90    87    1
   107    91    93    1
   108    89    88    2
   109    88    87    1
   110    87    86    1
   111    99    98    1
   112    98    95    1
   113    97    96    2
   114    95    96    1
   115    95    94    1
   116    85    84    1
   117    96   100   am
   118   105   104    1
   119   104   101    1
   120   104   106    1
   121    83    84    1
   122    83    82    1
   123   100   101    1
   124   101   102    1
   125    81    82    1
   126    81    78    1
   127    77    78    1
   128    78    79    1
   129   102   103    2
   130    79    80    2
