@<TRIPOS>MOLECULE
tmp/4xivA00.pdb
 143 134 0 0 0
SMALL
GASTEIGER

@<TRIPOS>ATOM
      1  N          2.2440   37.2290   -4.0960 N.3   115  HIS115     -0.1226
      2  CA         2.6960   36.2670   -5.0920 C.3   115  HIS115      0.1752
      3  C          1.6870   35.1290   -5.2610 C.2   115  HIS115      0.2595
      4  O          1.2180   34.8650   -6.3670 O.2   115  HIS115     -0.2718
      5  CB         4.0650   35.7090   -4.7000 C.3   115  HIS115      0.0759
      6  CG         4.7240   34.9060   -5.7730 C.ar  115  HIS115      0.0818
      7  ND1        4.2660   34.8820   -7.0760 N.ar  115  HIS115     -0.2268
      8  CD2        5.8100   34.0990   -5.7480 C.ar  115  HIS115      0.1154
      9  CE1        5.0370   34.0970   -7.7980 C.ar  115  HIS115      0.1986
     10  NE2        5.9850   33.6050   -7.0160 N.ar  115  HIS115     -0.2212
     11  N          1.3540   34.4690   -4.1550 N.am  116  LEU116     -0.1980
     12  CA         0.4010   33.3620   -4.1630 C.3   116  LEU116      0.1596
     13  C         -0.9570   33.7710   -4.7190 C.2   116  LEU116      0.2287
     14  O         -1.6120   32.9950   -5.4200 O.2   116  LEU116     -0.2864
     15  CB         0.2310   32.8040   -2.7520 C.3   116  LEU116      0.0297
     16  CG         1.5070   32.2360   -2.1360 C.3   116  LEU116      0.0022
     17  CD1        1.2680   31.8320   -0.6930 C.3   116  LEU116      0.0001
     18  CD2        2.0000   31.0540   -2.9560 C.3   116  LEU116      0.0001
     19  N         -1.4580   36.2180   -6.9370 N.3   118  ARG118     -0.1231
     20  CA        -1.2760   36.3880   -8.3710 C.3   118  ARG118      0.1694
     21  C         -1.2380   35.0350   -9.0630 C.2   118  ARG118      0.2592
     22  O         -1.7920   34.8720  -10.1470 O.2   118  ARG118     -0.2718
     23  CB         0.0000   37.1750   -8.6720 C.3   118  ARG118      0.0321
     24  CG         0.2550   37.3760  -10.1600 C.3   118  ARG118      0.0489
     25  CD         1.4220   38.3160  -10.4140 C.3   118  ARG118      0.2205
     26  NE         1.1030   39.7010  -10.0850 N.pl3 118  ARG118     -0.0865
     27  CZ         1.9790   40.6990  -10.1410 C.cat 118  ARG118      0.5346
     28  NH1        3.2320   40.4630  -10.5090 N.pl3 118  ARG118      0.1354
     29  NH2        1.6050   41.9320   -9.8260 N.pl3 118  ARG118      0.1354
     30  N         -0.5940   34.0640   -8.4240 N.am  119  ASN119     -0.1960
     31  CA        -0.5380   32.7080   -8.9570 C.3   119  ASN119      0.1819
     32  C         -1.9290   32.1140   -9.1520 C.2   119  ASN119      0.2621
     33  O         -2.1960   31.4590  -10.1580 O.2   119  ASN119     -0.2715
     34  CB         0.2930   31.8090   -8.0410 C.3   119  ASN119      0.1195
     35  CG         1.7800   31.9650   -8.2690 C.2   119  ASN119      0.2630
     36  OD1        2.2540   31.9070   -9.4030 O.2   119  ASN119     -0.2716
     37  ND2        2.5260   32.1760   -7.1920 N.am  119  ASN119     -0.0877
     38  N         -2.8140   32.3570   -8.1910 N.am  120  ALA120     -0.1977
     39  CA        -4.1800   31.8560   -8.2780 C.3   120  ALA120      0.1597
     40  C         -4.9430   32.5230   -9.4200 C.2   120  ALA120      0.2287
     41  O         -5.6680   31.8600  -10.1620 O.2   120  ALA120     -0.2864
     42  CB        -4.9080   32.0670   -6.9590 C.3   120  ALA120      0.0319
     43  N         -3.5870   34.0830  -12.0320 N.3   122  ASP122     -0.1225
     44  CA        -2.9000   33.8460  -13.2970 C.3   122  ASP122      0.1805
     45  C         -3.0450   32.4040  -13.7760 C.2   122  ASP122      0.2598
     46  O         -3.7090   32.1370  -14.7770 O.2   122  ASP122     -0.2718
     47  CB        -1.4190   34.2030  -13.1700 C.3   122  ASP122      0.1424
     48  CG        -0.6640   34.0220  -14.4670 C.2   122  ASP122      0.3668
     49  OD1       -1.2770   34.1840  -15.5420 O.co2 122  ASP122     -0.2456
     50  OD2        0.5450   33.7200  -14.4120 O.co2 122  ASP122     -0.2456
     51  N         -2.4220   31.4770  -13.0560 N.am  123  HIS123     -0.1961
     52  CA        -2.3650   30.0870  -13.4930 C.3   123  HIS123      0.1787
     53  C         -3.5120   29.2470  -12.9550 C.2   123  HIS123      0.2620
     54  O         -3.8360   28.1990  -13.5110 O.2   123  HIS123     -0.2715
     55  CB        -1.0360   29.4580  -13.0720 C.3   123  HIS123      0.0785
     56  CG         0.1660   30.1880  -13.5850 C.ar  123  HIS123      0.0821
     57  ND1        0.5190   30.1940  -14.9180 N.ar  123  HIS123     -0.2267
     58  CD2        1.0970   30.9320  -12.9440 C.ar  123  HIS123      0.1154
     59  CE1        1.6170   30.9130  -15.0750 C.ar  123  HIS123      0.1986
     60  NE2        1.9880   31.3720  -13.8940 N.ar  123  HIS123     -0.2212
     61  N         -4.1280   29.7080  -11.8740 N.am  124  GLY124     -0.1954
     62  CA        -5.1250   28.9140  -11.1810 C.3   124  GLY124      0.1869
     63  C         -6.5110   28.9110  -11.7990 C.2   124  GLY124      0.2309
     64  O         -7.0190   27.8650  -12.1990 O.2   124  GLY124     -0.2863
     65  N         -8.0430   28.4980   -4.0590 N.3   159  ASP159     -0.1239
     66  CA        -8.8080   28.8090   -5.2650 C.3   159  ASP159      0.1674
     67  C         -9.4600   27.5450   -5.8200 C.2   159  ASP159      0.2266
     68  O         -9.0050   26.4360   -5.5480 O.2   159  ASP159     -0.2867
     69  CB        -7.9170   29.4600   -6.3260 C.3   159  ASP159      0.1410
     70  CG        -6.7920   28.5510   -6.7870 C.2   159  ASP159      0.3668
     71  OD1       -7.0230   27.7400   -7.7120 O.co2 159  ASP159     -0.2456
     72  OD2       -5.6760   28.6540   -6.2300 O.co2 159  ASP159     -0.2456
     73  N         -6.0990   23.9130  -10.8650 N.3   163  GLY163     -0.1210
     74  CA        -5.2950   23.0140  -10.0630 C.3   163  GLY163      0.1956
     75  C         -3.9240   22.8750  -10.6960 C.2   163  GLY163      0.2611
     76  O         -3.6350   23.5130  -11.7090 O.2   163  GLY163     -0.2717
     77  N         -3.0780   22.0400  -10.1050 N.am  164  ILE164     -0.1979
     78  CA        -1.7140   21.8750  -10.5900 C.3   164  ILE164      0.1595
     79  C         -1.5250   20.5170  -11.2590 C.2   164  ILE164      0.2287
     80  O         -1.9750   19.4930  -10.7440 O.2   164  ILE164     -0.2864
     81  CB        -0.6950   22.0340   -9.4440 C.3   164  ILE164      0.0276
     82  CG1       -0.9290   23.3540   -8.7060 C.3   164  ILE164      0.0022
     83  CG2        0.7270   21.9690   -9.9740 C.3   164  ILE164      0.0022
     84  CD1        0.0600   23.6170   -7.5930 C.3   164  ILE164      0.0001
     85  N          3.1500   16.8680  -15.1470 N.3   168  LYS168     -0.1245
     86  CA         4.0540   17.8450  -15.7430 C.3   168  LYS168      0.1561
     87  C          5.2340   18.1190  -14.8140 C.2   168  LYS168      0.2260
     88  O          6.3610   18.3260  -15.2690 O.2   168  LYS168     -0.2867
     89  CB         3.2960   19.1370  -16.0590 C.3   168  LYS168      0.0271
     90  CG         4.1560   20.3130  -16.4980 C.3   168  LYS168      0.0035
     91  CD         3.2890   21.5540  -16.6830 C.3   168  LYS168      0.0206
     92  CE         4.0930   22.8410  -16.5740 C.3   168  LYS168      0.1093
     93  NZ         4.9090   23.0950  -17.7870 N.3   168  LYS168     -0.1314
     94  N          7.9310   22.4530   -6.4740 N.3   196  LEU196     -0.1245
     95  CA         7.7030   23.8300   -6.8980 C.3   196  LEU196      0.1561
     96  C          8.5550   24.8300   -6.1190 C.2   196  LEU196      0.2260
     97  O          8.8000   25.9420   -6.5880 O.2   196  LEU196     -0.2867
     98  CB         6.2230   24.1870   -6.7590 C.3   196  LEU196      0.0270
     99  CG         5.2740   23.5010   -7.7440 C.3   196  LEU196      0.0019
    100  CD1        3.8310   23.8500   -7.4280 C.3   196  LEU196      0.0001
    101  CD2        5.6140   23.8920   -9.1710 C.3   196  LEU196      0.0001
    102  N          9.8400   28.0360  -16.9380 N.3   204  LYS204     -0.1245
    103  CA         9.8440   29.5020  -17.0020 C.3   204  LYS204      0.1561
    104  C         10.9510   30.1040  -17.8890 C.2   204  LYS204      0.2260
    105  O         10.8130   30.1710  -19.1170 O.2   204  LYS204     -0.2867
    106  CB         9.9820   30.0680  -15.5850 C.3   204  LYS204      0.0271
    107  CG         9.7760   29.0360  -14.4870 C.3   204  LYS204      0.0035
    108  CD         8.3420   29.0080  -13.9650 C.3   204  LYS204      0.0206
    109  CE         8.1230   27.8910  -12.9310 C.3   204  LYS204      0.1093
    110  NZ         9.1920   27.7400  -11.8910 N.3   204  LYS204     -0.1314
    111  N         13.1330   35.0520   -7.4320 N.3   215  VAL215     -0.1231
    112  CA        11.9620   35.6040   -8.0920 C.3   215  VAL215      0.1692
    113  C         10.6510   35.0440   -7.5860 C.2   215  VAL215      0.2593
    114  O          9.7960   35.7930   -7.1280 O.2   215  VAL215     -0.2718
    115  CB        12.0060   35.3560   -9.6040 C.3   215  VAL215      0.0266
    116  CG1       10.6360   35.6190  -10.2360 C.3   215  VAL215      0.0020
    117  CG2       13.0840   36.2180  -10.2480 C.3   215  VAL215      0.0020
    118  N         10.5010   33.7230   -7.6690 N.am  216  GLY216     -0.1942
    119  CA         9.2050   33.0900   -7.4810 C.3   216  GLY216      0.2014
    120  C          8.9310   32.1710   -6.3070 C.2   216  GLY216      0.2638
    121  O          9.3230   32.4750   -5.1880 O.2   216  GLY216     -0.2714
    122  N          8.2760   31.0400   -6.5660 N.am  217  MET217     -0.1976
    123  CA         7.8770   30.1130   -5.5020 C.3   217  MET217      0.1605
    124  C          8.9500   29.6210   -4.5240 C.2   217  MET217      0.2287
    125  O          8.6180   29.2440   -3.3970 O.2   217  MET217     -0.2864
    126  CB         7.2280   28.8850   -6.1280 C.3   217  MET217      0.0413
    127  CG         5.7080   28.9720   -6.3360 C.3   217  MET217      0.0598
    128  SD         4.7930   29.1950   -4.7940 S.3   217  MET217     -0.1393
    129  CE         3.8610   27.6660   -4.6780 C.3   217  MET217      0.0692
    130  N         -6.6950   24.6190   -5.7890 N.3   241  THR241     -0.1218
    131  CA        -5.3900   24.6150   -5.1430 C.3   241  THR241      0.1862
    132  C         -5.4340   25.3980   -3.8360 C.2   241  THR241      0.2287
    133  O         -6.0340   26.4720   -3.7680 O.2   241  THR241     -0.2866
    134  CB        -4.3100   25.2300   -6.0520 C.3   241  THR241      0.1770
    135  OG1       -4.3910   24.6530   -7.3620 O.3   241  THR241     -0.2211
    136  CG2       -2.9240   24.9950   -5.4730 C.3   241  THR241      0.0375
    137  N         -2.7860   26.7400   -0.7220 N.3   243  VAL243     -0.1245
    138  CA        -1.4830   26.8640   -0.0880 C.3   243  VAL243      0.1561
    139  C         -1.6760   27.1860    1.3900 C.2   243  VAL243      0.2260
    140  O         -2.4250   28.0970    1.7370 O.2   243  VAL243     -0.2867
    141  CB        -0.6200   27.9520   -0.7620 C.3   243  VAL243      0.0252
    142  CG1        0.7770   27.9770   -0.1570 C.3   243  VAL243      0.0019
    143  CG2       -0.5440   27.7130   -2.2620 C.3   243  VAL243      0.0019
@<TRIPOS>BOND
     1   105   104    2
     2   104   103    1
     3    93    92    1
     4   103   102    1
     5   103   106    1
     6    91    92    1
     7    91    90    1
     8    90    89    1
     9    89    86    1
    10    86    85    1
    11    86    87    1
    12   106   107    1
    13    49    48   ar
    14    88    87    2
    15    59    57   ar
    16    59    60   ar
    17    57    56   ar
    18    46    45    2
    19   107   108    1
    20    48    50   ar
    21    48    47    1
    22   108   109    1
    23    60    58   ar
    24    45    44    1
    25    45    51   am
    26    56    55    1
    27    56    58   ar
    28    54    53    2
    29    52    55    1
    30    52    51    1
    31    52    53    1
    32    44    47    1
    33    44    43    1
    34    53    61   am
    35   109   110    1
    36    64    63    2
    37    61    62    1
    38    63    62    1
    39    76    75    2
    40    79    80    2
    41    79    78    1
    42    73    74    1
    43    75    77   am
    44    75    74    1
    45    78    77    1
    46    78    81    1
    47    28    27    1
    48    25    24    1
    49    25    26    1
    50   117   115    1
    51   116   115    1
    52    41    40    2
    53    24    23    1
    54    33    32    2
    55    22    21    2
    56    27    26    2
    57    27    29    1
    58    83    81    1
    59   115   112    1
    60    81    82    1
    61    40    39    1
    62    36    35    2
    63   101    99    1
    64    32    31    1
    65    32    38   am
    66    21    30   am
    67    21    20    1
    68    31    30    1
    69    31    34    1
    70    82    84    1
    71    23    20    1
    72    20    19    1
    73    39    38    1
    74    39    42    1
    75    35    34    1
    76    35    37   am
    77   112   113    1
    78   112   111    1
    79     9     7   ar
    80     9    10   ar
    81    99   100    1
    82    99    98    1
    83    71    70   ar
    84   118   113   am
    85   118   119    1
    86   113   114    2
    87   119   120    1
    88   135   134    1
    89     7     6   ar
    90    10     8   ar
    91    95    98    1
    92    95    94    1
    93    95    96    1
    94    70    69    1
    95    70    72   ar
    96    97    96    2
    97   122   120   am
    98   122   123    1
    99     4     3    2
   100   127   126    1
   101   127   128    1
   102    69    66    1
   103   120   121    2
   104   126   123    1
   105   134   136    1
   106   134   131    1
   107    67    68    2
   108    67    66    1
   109   130   131    1
   110     6     8   ar
   111     6     5    1
   112   123   124    1
   113    14    13    2
   114    66    65    1
   115     3     2    1
   116     3    11   am
   117   131   132    1
   118     2     5    1
   119     2     1    1
   120   128   129    1
   121    13    12    1
   122   124   125    2
   123    12    11    1
   124    12    15    1
   125   132   133    2
   126    18    16    1
   127    15    16    1
   128   143   141    1
   129    16    17    1
   130   141   142    1
   131   141   138    1
   132   137   138    1
   133   138   139    1
   134   139   140    2
