@<TRIPOS>MOLECULE
tmp/4xiwC00.pdb
 128 125 0 0 0
SMALL
GASTEIGER

@<TRIPOS>ATOM
      1  N       -108.8010  -25.0410   25.5030 N.3    67  GLN67      -0.1245
      2  CA      -108.3760  -25.4950   24.1800 C.3    67  GLN67       0.1566
      3  C       -109.1640  -24.7530   23.1220 C.2    67  GLN67       0.2260
      4  O       -110.3990  -24.7630   23.1280 O.2    67  GLN67      -0.2867
      5  CB      -108.4930  -27.0170   24.0700 C.3    67  GLN67       0.0367
      6  CG      -109.3040  -27.5480   22.9600 C.3    67  GLN67       0.0905
      7  CD      -109.2040  -29.0650   22.8830 C.2    67  GLN67       0.2608
      8  OE1     -108.5830  -29.7090   23.7450 O.2    67  GLN67      -0.2717
      9  NE2     -109.8310  -29.6540   21.8540 N.am   67  GLN67      -0.0878
     10  N       -106.1180  -28.4660   14.3360 N.3    86  LEU86      -0.1231
     11  CA      -107.3870  -28.7480   14.9800 C.3    86  LEU86       0.1693
     12  C       -107.5920  -27.7780   16.1230 C.2    86  LEU86       0.2591
     13  O       -108.6660  -27.1670   16.2640 O.2    86  LEU86      -0.2718
     14  CB      -107.3740  -30.1640   15.5060 C.3    86  LEU86       0.0284
     15  CG      -106.9080  -31.0980   14.4080 C.3    86  LEU86       0.0019
     16  CD1     -106.7470  -32.4870   14.9620 C.3    86  LEU86       0.0001
     17  CD2     -107.9090  -31.0530   13.1790 C.3    86  LEU86       0.0001
     18  N       -106.5510  -27.6230   16.9380 N.am   87  GLN87      -0.1979
     19  CA      -106.6660  -26.8550   18.1730 C.3    87  GLN87       0.1601
     20  C       -105.3150  -26.5230   18.7600 C.2    87  GLN87       0.2287
     21  O       -104.3270  -27.2450   18.5430 O.2    87  GLN87      -0.2864
     22  CB      -107.4610  -27.6630   19.1990 C.3    87  GLN87       0.0394
     23  CG      -106.9640  -29.1180   19.3640 C.3    87  GLN87       0.0908
     24  CD      -106.2650  -29.3570   20.7270 C.2    87  GLN87       0.2608
     25  OE1     -105.6620  -28.4450   21.2970 O.2    87  GLN87      -0.2717
     26  NE2     -106.3450  -30.5800   21.2360 N.am   87  GLN87      -0.0878
     27  N       -103.6680  -25.6290   22.7280 N.3    89  HIS89      -0.1241
     28  CA      -103.8620  -25.4790   24.1730 C.3    89  HIS89       0.1621
     29  C       -102.4700  -25.2750   24.7560 C.2    89  HIS89       0.2264
     30  O       -101.4790  -25.1700   23.9960 O.2    89  HIS89      -0.2867
     31  CB      -104.5200  -26.7220   24.7400 C.3    89  HIS89       0.0745
     32  CG      -103.7010  -27.9540   24.5540 C.ar   89  HIS89       0.0817
     33  ND1     -103.9170  -28.8430   23.5320 N.ar   89  HIS89      -0.2268
     34  CD2     -102.6410  -28.4260   25.2470 C.ar   89  HIS89       0.1154
     35  CE1     -103.0380  -29.8290   23.6080 C.ar   89  HIS89       0.1986
     36  NE2     -102.2560  -29.5990   24.6410 N.ar   89  HIS89      -0.2212
     37  N        -99.4790  -25.6200   28.2560 N.3    91  HIS91      -0.1241
     38  CA       -98.9960  -26.2790   29.4390 C.3    91  HIS91       0.1621
     39  C        -98.0580  -25.3270   30.1560 C.2    91  HIS91       0.2264
     40  O        -97.3810  -24.5230   29.5010 O.2    91  HIS91      -0.2867
     41  CB       -98.2730  -27.5600   29.0840 C.3    91  HIS91       0.0745
     42  CG       -99.1630  -28.6150   28.5200 C.ar   91  HIS91       0.0817
     43  ND1      -99.7700  -29.5790   29.2990 N.ar   91  HIS91      -0.2268
     44  CD2      -99.5210  -28.8810   27.2450 C.ar   91  HIS91       0.1154
     45  CE1     -100.4680  -30.3910   28.5240 C.ar   91  HIS91       0.1986
     46  NE2     -100.3360  -29.9840   27.2730 N.ar   91  HIS91      -0.2212
     47  N        -99.2010  -26.1410   22.5350 N.3   108  HIS108     -0.1241
     48  CA       -99.3260  -27.2880   21.6610 C.3   108  HIS108      0.1621
     49  C       -100.3920  -26.9790   20.6240 C.2   108  HIS108      0.2264
     50  O       -101.5480  -26.7560   20.9830 O.2   108  HIS108     -0.2867
     51  CB       -99.7380  -28.5250   22.4380 C.3   108  HIS108      0.0745
     52  CG       -98.6580  -29.0790   23.3070 C.ar  108  HIS108      0.0817
     53  ND1      -98.8800  -30.1150   24.1890 N.ar  108  HIS108     -0.2268
     54  CD2      -97.3500  -28.7550   23.4280 C.ar  108  HIS108      0.1154
     55  CE1      -97.7590  -30.4090   24.8140 C.ar  108  HIS108      0.1986
     56  NE2      -96.8150  -29.5970   24.3750 N.ar  108  HIS108     -0.2212
     57  N       -102.1230  -28.8020   17.8180 N.3   110  VAL110     -0.1245
     58  CA      -102.3480  -30.1800   17.4090 C.3   110  VAL110      0.1561
     59  C       -102.9960  -30.2710   16.0290 C.2   110  VAL110      0.2260
     60  O       -104.0290  -29.6670   15.7730 O.2   110  VAL110     -0.2867
     61  CB      -103.2730  -30.8640   18.3810 C.3   110  VAL110      0.0252
     62  CG1     -103.4150  -32.3410   18.0390 C.3   110  VAL110      0.0019
     63  CG2     -102.7560  -30.6900   19.7700 C.3   110  VAL110      0.0019
     64  N       -101.9180  -38.0790   14.0860 N.3   119  LEU119     -0.1245
     65  CA      -101.8560  -36.7750   14.7210 C.3   119  LEU119      0.1561
     66  C       -100.4330  -36.2650   14.6610 C.2   119  LEU119      0.2260
     67  O        -99.4840  -37.0410   14.6910 O.2   119  LEU119     -0.2867
     68  CB      -102.2470  -36.9010   16.2030 C.3   119  LEU119      0.0270
     69  CG      -103.7170  -37.1650   16.5230 C.3   119  LEU119      0.0019
     70  CD1     -103.8880  -37.6430   17.9520 C.3   119  LEU119      0.0001
     71  CD2     -104.5480  -35.9110   16.3120 C.3   119  LEU119      0.0001
     72  N        -98.1550  -32.9530   16.5930 N.3   121  VAL121     -0.1245
     73  CA       -98.2240  -31.8200   17.5050 C.3   121  VAL121      0.1561
     74  C        -96.9990  -30.9210   17.3430 C.2   121  VAL121      0.2260
     75  O        -95.8300  -31.3720   17.4040 O.2   121  VAL121     -0.2867
     76  CB       -98.3900  -32.2800   18.9860 C.3   121  VAL121      0.0252
     77  CG1      -98.6040  -31.0880   19.8780 C.3   121  VAL121      0.0019
     78  CG2      -99.5740  -33.2310   19.1220 C.3   121  VAL121      0.0019
     79  N        -99.5360  -38.6130   22.8060 N.3   182  LEU182     -0.1231
     80  CA      -100.2310  -37.6190   23.6220 C.3   182  LEU182      0.1693
     81  C        -99.5940  -37.5480   25.0230 C.2   182  LEU182      0.2593
     82  O        -99.0100  -38.5270   25.4880 O.2   182  LEU182     -0.2718
     83  CB      -101.6920  -38.0010   23.7840 C.3   182  LEU182      0.0284
     84  CG      -102.3980  -38.2830   22.4710 C.3   182  LEU182      0.0019
     85  CD1     -103.7620  -38.7940   22.7700 C.3   182  LEU182      0.0001
     86  CD2     -102.4620  -37.0210   21.6640 C.3   182  LEU182      0.0001
     87  N        -99.7260  -36.4100   25.7000 N.am  183  THR183     -0.1939
     88  CA       -99.1610  -36.2440   27.0410 C.3   183  THR183      0.2028
     89  C       -100.2020  -36.3210   28.1770 C.2   183  THR183      0.2643
     90  O        -99.8600  -36.2270   29.3630 O.2   183  THR183     -0.2714
     91  CB       -98.4790  -34.8980   27.1500 C.3   183  THR183      0.1808
     92  OG1      -99.4650  -33.8760   26.9770 O.3   183  THR183     -0.2208
     93  CG2      -97.4050  -34.7760   26.1070 C.3   183  THR183      0.0379
     94  N       -101.4670  -36.4510   27.8140 N.am  184  THR184     -0.1937
     95  CA      -102.5010  -36.7100   28.7890 C.3   184  THR184      0.2013
     96  C       -103.1500  -38.0510   28.4820 C.2   184  THR184      0.2484
     97  O       -103.0780  -38.5280   27.3520 O.2   184  THR184     -0.2729
     98  CB      -103.5580  -35.6260   28.7780 C.3   184  THR184      0.1807
     99  OG1     -104.1490  -35.5620   27.4830 O.3   184  THR184     -0.2208
    100  CG2     -102.9380  -34.2960   29.1350 C.3   184  THR184      0.0379
    101  N       -103.7350  -38.6920   29.5100 N.am  185  PRO185     -0.2715
    102  CA      -104.3900  -39.9690   29.2420 C.3   185  PRO185      0.1521
    103  C       -105.3430  -39.7730   28.0700 C.2   185  PRO185      0.2440
    104  O       -105.9850  -38.7370   28.0020 O.2   185  PRO185     -0.2731
    105  CB      -105.1520  -40.2490   30.5330 C.3   185  PRO185      0.0310
    106  CG      -104.3670  -39.5440   31.5950 C.3   185  PRO185      0.0237
    107  CD      -103.7800  -38.3290   30.9410 C.3   185  PRO185      0.0939
    108  N       -105.4530  -40.7630   27.1800 N.am  186  PRO186     -0.2727
    109  CA      -104.8840  -42.1070   27.3500 C.3   186  PRO186      0.1402
    110  C       -103.4670  -42.2540   26.8060 C.2   186  PRO186      0.2269
    111  O       -103.0020  -43.3840   26.6460 O.2   186  PRO186     -0.2865
    112  CB      -105.8450  -42.9720   26.5750 C.3   186  PRO186      0.0296
    113  CG      -106.2990  -42.0500   25.4200 C.3   186  PRO186      0.0237
    114  CD      -106.3120  -40.6620   25.9870 C.3   186  PRO186      0.0939
    115  N        -94.0970  -35.5210   16.5980 N.3   193  TRP193     -0.1241
    116  CA       -93.8640  -34.3550   17.4020 C.3   193  TRP193      0.1605
    117  C        -92.8170  -33.5510   16.7470 C.2   193  TRP193      0.2264
    118  O        -91.7400  -34.0880   16.4440 O.2   193  TRP193     -0.2867
    119  CB       -93.3740  -34.7270   18.8410 C.3   193  TRP193      0.0550
    120  CG       -94.4410  -34.9030   19.7840 C.ar  193  TRP193      0.0003
    121  CD1      -95.0380  -36.0650   20.1120 C.ar  193  TRP193      0.0946
    122  CD2      -95.1110  -33.8710   20.5230 C.ar  193  TRP193      0.0152
    123  NE1      -96.0290  -35.8370   21.0580 N.ar  193  TRP193     -0.2442
    124  CE2      -96.0960  -34.4930   21.3100 C.ar  193  TRP193      0.0810
    125  CE3      -94.9700  -32.4790   20.5920 C.ar  193  TRP193      0.0012
    126  CZ2      -96.9340  -33.7780   22.1630 C.ar  193  TRP193      0.0191
    127  CZ3      -95.7980  -31.7670   21.4390 C.ar  193  TRP193      0.0001
    128  CH2      -96.7700  -32.4170   22.2100 C.ar  193  TRP193      0.0015
@<TRIPOS>BOND
     1    17    15    1
     2    64    65    1
     3    10    11    1
     4    15    16    1
     5    15    14    1
     6    66    67    2
     7    66    65    1
     8    65    68    1
     9    11    14    1
    10    11    12    1
    11    60    59    2
    12    59    58    1
    13    12    13    2
    14    12    18   am
    15    68    69    1
    16    71    69    1
    17   118   117    2
    18    69    70    1
    19    72    73    1
    20   115   116    1
    21   117   116    1
    22    18    19    1
    23    74    75    2
    24    74    73    1
    25   116   119    1
    26    58    57    1
    27    58    61    1
    28    73    76    1
    29    62    61    1
    30    19    20    1
    31    19    22    1
    32    61    63    1
    33    21    20    2
    34   119   120    1
    35    76    78    1
    36    76    77    1
    37    22    23    1
    38    23    24    1
    39   120   121   ar
    40   120   122   ar
    41   121   123   ar
    42   122   125   ar
    43   122   124   ar
    44   125   127   ar
    45    49    50    2
    46    49    48    1
    47    24    26   am
    48    24    25    2
    49   123   124   ar
    50   124   126   ar
    51   127   128   ar
    52    48    51    1
    53    48    47    1
    54    86    84    1
    55     9     7   am
    56   126   128   ar
    57    51    52    1
    58    84    85    1
    59    84    83    1
    60    27    28    1
    61    79    80    1
    62     7     6    1
    63     7     8    2
    64     6     5    1
    65     3     4    2
    66     3     2    1
    67    52    54   ar
    68    52    53   ar
    69    54    56   ar
    70    33    35   ar
    71    33    32   ar
    72    35    36   ar
    73    80    83    1
    74    80    81    1
    75    30    29    2
    76     5     2    1
    77    28    31    1
    78    28    29    1
    79     2     1    1
    80    53    55   ar
    81    56    55   ar
    82    32    31    1
    83    32    34   ar
    84    36    34   ar
    85    81    82    2
    86    81    87   am
    87   113   114    1
    88   113   112    1
    89    87    88    1
    90   114   108    1
    91    93    91    1
    92   112   109    1
    93   111   110    2
    94   110   109    1
    95    92    91    1
    96    88    91    1
    97    88    89    1
    98   108   109    1
    99   108   103   am
   100    44    46   ar
   101    44    42   ar
   102    46    45   ar
   103    97    96    2
   104    99    98    1
   105    94    89   am
   106    94    95    1
   107   104   103    2
   108   103   102    1
   109    89    90    2
   110    37    38    1
   111    96    95    1
   112    96   101   am
   113    42    41    1
   114    42    43   ar
   115    45    43   ar
   116    98    95    1
   117    98   100    1
   118    41    38    1
   119   102   101    1
   120   102   105    1
   121    38    39    1
   122    40    39    2
   123   101   107    1
   124   105   106    1
   125   107   106    1
