@<TRIPOS>MOLECULE
tmp/4xj0A00.pdb
 185 173 0 0 0
SMALL
GASTEIGER

@<TRIPOS>ATOM
      1  N        -21.1380  -42.4440  -24.9210 N.3    20  ILE20      -0.1231
      2  CA       -19.8480  -42.3400  -25.6110 C.3    20  ILE20       0.1692
      3  C        -18.7290  -42.9320  -24.7300 C.2    20  ILE20       0.2593
      4  O        -18.1040  -43.9160  -25.1320 O.2    20  ILE20      -0.2718
      5  CB       -19.5300  -40.9180  -26.1600 C.3    20  ILE20       0.0266
      6  CG1      -20.3680  -40.6230  -27.4220 C.3    20  ILE20       0.0019
      7  CG2      -18.0250  -40.7460  -26.4600 C.3    20  ILE20       0.0020
      8  CD1      -20.4470  -39.1500  -27.8130 C.3    20  ILE20       0.0001
      9  N        -18.5050  -42.3440  -23.5540 N.am   21  GLY21      -0.1942
     10  CA       -17.4630  -42.7730  -22.6270 C.3    21  GLY21       0.2014
     11  C        -17.6640  -42.3150  -21.1980 C.2    21  GLY21       0.2639
     12  O        -18.6260  -41.6050  -20.9010 O.2    21  GLY21      -0.2714
     13  N        -16.7580  -42.7390  -20.2930 N.am   22  GLU22      -0.1963
     14  CA       -16.7980  -42.3770  -18.8710 C.3    22  GLU22       0.1733
     15  C        -15.4000  -42.3130  -18.2200 C.2    22  GLU22       0.2616
     16  O        -14.4120  -42.7880  -18.7890 O.2    22  GLU22      -0.2715
     17  CB       -17.7600  -43.2830  -18.0750 C.3    22  GLU22       0.0429
     18  CG       -17.2720  -44.6930  -17.8180 C.3    22  GLU22       0.1163
     19  CD       -18.3800  -45.5860  -17.3060 C.2    22  GLU22       0.3649
     20  OE1      -18.6010  -45.6140  -16.0740 O.co2  22  GLU22      -0.2457
     21  OE2      -19.0660  -46.2160  -18.1430 O.co2  22  GLU22      -0.2457
     22  N        -15.3490  -41.6930  -17.0460 N.am   23  GLY23      -0.1955
     23  CA       -14.1420  -41.5210  -16.2470 C.3    23  GLY23       0.1869
     24  C        -14.4310  -41.5830  -14.7600 C.2    23  GLY23       0.2309
     25  O        -15.5050  -42.0390  -14.3450 O.2    23  GLY23      -0.2863
     26  N        -16.8580  -38.1950  -14.4310 N.3    26  GLY26      -0.1210
     27  CA       -17.5980  -37.7360  -15.5970 C.3    26  GLY26       0.1956
     28  C        -18.0520  -38.8130  -16.5560 C.2    26  GLY26       0.2612
     29  O        -17.5080  -39.9170  -16.5590 O.2    26  GLY26      -0.2717
     30  N        -19.0460  -38.4780  -17.3950 N.am   27  MET27      -0.1965
     31  CA       -19.6020  -39.3480  -18.4340 C.3    27  MET27       0.1736
     32  C        -19.9480  -38.5000  -19.6660 C.2    27  MET27       0.2616
     33  O        -20.4630  -37.3910  -19.5180 O.2    27  MET27      -0.2715
     34  CB       -20.8410  -40.0970  -17.9260 C.3    27  MET27       0.0427
     35  CG       -21.2190  -41.2630  -18.7970 C.3    27  MET27       0.0599
     36  SD       -22.9860  -41.5820  -18.7780 S.3    27  MET27      -0.1393
     37  CE       -23.0770  -42.8250  -17.5210 C.3    27  MET27       0.0692
     38  N        -19.6600  -39.0190  -20.8740 N.am   28  VAL28      -0.1977
     39  CA       -19.9150  -38.3200  -22.1370 C.3    28  VAL28       0.1596
     40  C        -20.9840  -39.0350  -22.9680 C.2    28  VAL28       0.2287
     41  O        -20.9310  -40.2510  -23.1420 O.2    28  VAL28      -0.2864
     42  CB       -18.6150  -38.0770  -22.9550 C.3    28  VAL28       0.0276
     43  CG1      -18.8580  -37.1260  -24.1280 C.3    28  VAL28       0.0022
     44  CG2      -17.4840  -37.5530  -22.0710 C.3    28  VAL28       0.0022
     45  N        -22.3410  -33.0920  -28.3330 N.3    41  ALA41      -0.1245
     46  CA       -21.7610  -33.9000  -27.2710 C.3    41  ALA41       0.1562
     47  C        -22.0630  -33.2030  -25.9530 C.2    41  ALA41       0.2260
     48  O        -22.0250  -31.9650  -25.8890 O.2    41  ALA41      -0.2867
     49  CB       -20.2610  -34.0520  -27.4530 C.3    41  ALA41       0.0290
     50  N        -21.0150  -33.5110  -21.8440 N.3    43  LYS43      -0.1245
     51  CA       -20.1040  -33.9540  -20.8040 C.3    43  LYS43       0.1561
     52  C        -20.7490  -33.7400  -19.4160 C.2    43  LYS43       0.2260
     53  O        -20.8170  -32.6040  -18.9350 O.2    43  LYS43      -0.2867
     54  CB       -18.8180  -33.1250  -20.8830 C.3    43  LYS43       0.0271
     55  CG       -17.6310  -33.8460  -21.4550 C.3    43  LYS43       0.0035
     56  CD       -16.3200  -33.2060  -20.9990 C.3    43  LYS43       0.0206
     57  CE       -16.1320  -31.7470  -21.3510 C.3    43  LYS43       0.1093
     58  NZ       -14.7930  -31.2720  -20.9360 N.3    43  LYS43      -0.1314
     59  N        -20.2560  -33.7860  -15.7090 N.3    45  ILE45      -0.1245
     60  CA       -19.1100  -33.7440  -14.7930 C.3    45  ILE45       0.1561
     61  C        -19.5970  -33.5110  -13.3720 C.2    45  ILE45       0.2260
     62  O        -20.3340  -32.5590  -13.1290 O.2    45  ILE45      -0.2867
     63  CB       -18.0060  -32.7280  -15.2640 C.3    45  ILE45       0.0252
     64  CG1      -17.3900  -33.1630  -16.5970 C.3    45  ILE45       0.0019
     65  CG2      -16.8820  -32.5280  -14.2310 C.3    45  ILE45       0.0019
     66  CD1      -17.5020  -32.1400  -17.6110 C.3    45  ILE45       0.0001
     67  N        -10.9820  -25.5020  -17.3570 N.3    60  GLU60      -0.1245
     68  CA       -11.5020  -25.7350  -18.6970 C.3    60  GLU60       0.1567
     69  C        -12.6820  -24.8180  -19.0740 C.2    60  GLU60       0.2260
     70  O        -12.7890  -24.4280  -20.2350 O.2    60  GLU60      -0.2867
     71  CB       -11.8860  -27.2000  -18.8730 C.3    60  GLU60       0.0388
     72  CG       -11.8280  -27.6080  -20.3330 C.3    60  GLU60       0.1160
     73  CD       -12.7460  -28.7270  -20.7610 C.2    60  GLU60       0.3649
     74  OE1      -13.9700  -28.6250  -20.5220 O.co2  60  GLU60      -0.2457
     75  OE2      -12.2470  -29.6780  -21.3990 O.co2  60  GLU60      -0.2457
     76  N        -11.8890  -26.8880  -29.3740 N.3    73  ILE73      -0.1245
     77  CA       -13.2980  -27.2100  -29.1070 C.3    73  ILE73       0.1561
     78  C        -13.9150  -26.0250  -28.3020 C.2    73  ILE73       0.2260
     79  O        -13.2180  -25.3610  -27.5350 O.2    73  ILE73      -0.2867
     80  CB       -13.4320  -28.5790  -28.3550 C.3    73  ILE73       0.0252
     81  CG1      -14.8480  -29.1910  -28.4970 C.3    73  ILE73       0.0019
     82  CG2      -13.0290  -28.4660  -26.8750 C.3    73  ILE73       0.0019
     83  CD1      -15.2020  -29.8060  -29.8140 C.3    73  ILE73       0.0001
     84  N        -20.8990  -29.4120  -26.1100 N.3    94  GLN94      -0.1231
     85  CA       -19.8960  -29.0760  -27.1270 C.3    94  GLN94       0.1698
     86  C        -20.2870  -29.6700  -28.4950 C.2    94  GLN94       0.2592
     87  O        -21.1510  -30.5510  -28.5570 O.2    94  GLN94      -0.2718
     88  CB       -18.4960  -29.5980  -26.7180 C.3    94  GLN94       0.0381
     89  CG       -18.0370  -29.1940  -25.3240 C.3    94  GLN94       0.0905
     90  CD       -16.6770  -29.7380  -24.9750 C.2    94  GLN94       0.2608
     91  OE1      -16.4870  -30.9430  -24.7920 O.2    94  GLN94      -0.2717
     92  NE2      -15.7150  -28.8470  -24.7980 N.am   94  GLN94      -0.0878
     93  N        -19.6400  -29.2020  -29.5840 N.am   95  ASP95      -0.1960
     94  CA       -19.8560  -29.7370  -30.9320 C.3    95  ASP95       0.1840
     95  C        -19.4570  -31.2140  -30.9240 C.2    95  ASP95       0.2622
     96  O        -18.4700  -31.5790  -30.2720 O.2    95  ASP95      -0.2715
     97  CB       -19.0220  -28.9680  -31.9810 C.3    95  ASP95       0.1450
     98  CG       -19.4480  -27.5260  -32.2370 C.2    95  ASP95       0.3671
     99  OD1      -20.6600  -27.2080  -32.0500 O.co2  95  ASP95      -0.2456
    100  OD2      -18.5870  -26.7210  -32.6500 O.co2  95  ASP95      -0.2456
    101  N        -20.2680  -32.0680  -31.5640 N.am   96  LEU96      -0.1963
    102  CA       -20.0130  -33.5040  -31.5920 C.3    96  LEU96       0.1728
    103  C        -18.9330  -33.7920  -32.5880 C.2    96  LEU96       0.2616
    104  O        -18.9850  -33.2950  -33.7140 O.2    96  LEU96      -0.2715
    105  CB       -21.2940  -34.2950  -31.9410 C.3    96  LEU96       0.0311
    106  CG       -21.2070  -35.8420  -31.9650 C.3    96  LEU96       0.0022
    107  CD1      -20.7590  -36.4210  -30.6130 C.3    96  LEU96       0.0001
    108  CD2      -22.5400  -36.4450  -32.3700 C.3    96  LEU96       0.0001
    109  N        -17.9460  -34.5800  -32.1790 N.am   97  MET97      -0.1963
    110  CA       -16.8510  -34.9600  -33.0680 C.3    97  MET97       0.1736
    111  C        -16.9500  -36.4350  -33.3750 C.2    97  MET97       0.2616
    112  O        -17.3460  -37.2010  -32.5020 O.2    97  MET97      -0.2715
    113  CB       -15.4820  -34.5690  -32.4780 C.3    97  MET97       0.0427
    114  CG       -15.3750  -33.0780  -32.1320 C.3    97  MET97       0.0599
    115  SD       -15.4950  -31.9500  -33.5470 S.3    97  MET97      -0.1393
    116  CE       -13.8150  -32.1740  -34.2610 C.3    97  MET97       0.0692
    117  N        -16.6380  -36.8340  -34.6110 N.am   98  GLU98      -0.1963
    118  CA       -16.7020  -38.2410  -35.0230 C.3    98  GLU98       0.1733
    119  C        -15.8120  -39.1320  -34.1640 C.2    98  GLU98       0.2617
    120  O        -16.2840  -40.1490  -33.6580 O.2    98  GLU98      -0.2715
    121  CB       -16.3490  -38.4250  -36.5200 C.3    98  GLU98       0.0429
    122  CG       -16.8490  -39.7510  -37.0790 C.3    98  GLU98       0.1163
    123  CD       -16.0230  -40.3840  -38.1870 C.2    98  GLU98       0.3649
    124  OE1      -16.2400  -40.0240  -39.3670 O.co2  98  GLU98      -0.2457
    125  OE2      -15.2100  -41.2890  -37.8850 O.co2  98  GLU98      -0.2457
    126  N        -14.5250  -38.7630  -34.0200 N.am   99  THR99      -0.1937
    127  CA       -13.5390  -39.5560  -33.2690 C.3    99  THR99       0.2028
    128  C        -12.4060  -38.6620  -32.7440 C.2    99  THR99       0.2642
    129  O        -12.5580  -37.4350  -32.7200 O.2    99  THR99      -0.2714
    130  CB       -13.0500  -40.7380  -34.1530 C.3    99  THR99       0.1808
    131  OG1      -12.3000  -41.6380  -33.3510 O.3    99  THR99      -0.2208
    132  CG2      -12.2430  -40.2910  -35.3840 C.3    99  THR99       0.0379
    133  N        -11.2790  -39.2760  -32.3340 N.am  100  ASP100     -0.1971
    134  CA       -10.0570  -38.6070  -31.8770 C.3   100  ASP100      0.1709
    135  C         -8.8640  -39.2990  -32.5370 C.2   100  ASP100      0.2293
    136  O         -9.0280  -40.4190  -33.0310 O.2   100  ASP100     -0.2864
    137  CB        -9.9410  -38.6300  -30.3430 C.3   100  ASP100      0.1436
    138  CG        -9.8380  -40.0080  -29.7100 C.2   100  ASP100      0.3671
    139  OD1       -9.0570  -40.8420  -30.2220 O.co2 100  ASP100     -0.2456
    140  OD2      -10.4730  -40.2220  -28.6440 O.co2 100  ASP100     -0.2456
    141  N         -7.9120  -43.1030  -31.3880 N.3   103  LYS103     -0.1245
    142  CA        -8.7620  -44.1290  -32.0010 C.3   103  LYS103      0.1561
    143  C         -8.3810  -44.3450  -33.4680 C.2   103  LYS103      0.2260
    144  O         -8.2770  -45.4990  -33.9030 O.2   103  LYS103     -0.2867
    145  CB       -10.2520  -43.7630  -31.8670 C.3   103  LYS103      0.0271
    146  CG       -10.7860  -43.8210  -30.4270 C.3   103  LYS103      0.0035
    147  CD       -12.0830  -43.0480  -30.2750 C.3   103  LYS103      0.0206
    148  CE       -13.2640  -43.9560  -30.0610 C.3   103  LYS103      0.1093
    149  NZ       -14.4220  -43.5880  -30.9300 N.3   103  LYS103     -0.1314
    150  N         -5.4460  -38.5630  -27.8420 N.3   141  SER141     -0.1202
    151  CA        -6.8530  -38.6320  -27.3940 C.3   141  SER141      0.2020
    152  C         -7.4890  -37.2590  -27.0990 C.2   141  SER141      0.2618
    153  O         -8.7140  -37.1790  -26.9770 O.2   141  SER141     -0.2717
    154  CB        -7.0410  -39.5980  -26.2300 C.3   141  SER141      0.2103
    155  OG        -6.2110  -39.3030  -25.1230 O.3   141  SER141     -0.2182
    156  N         -6.6730  -36.1800  -27.0480 N.am  142  ASN142     -0.1974
    157  CA        -7.1490  -34.8060  -26.8380 C.3   142  ASN142      0.1688
    158  C         -7.2030  -34.0240  -28.1570 C.2   142  ASN142      0.2292
    159  O         -7.4090  -32.8060  -28.1770 O.2   142  ASN142     -0.2864
    160  CB        -6.3470  -34.0850  -25.7360 C.3   142  ASN142      0.1181
    161  CG        -6.7000  -34.5460  -24.3320 C.2   142  ASN142      0.2629
    162  OD1       -7.7980  -35.0600  -24.0650 O.2   142  ASN142     -0.2716
    163  ND2       -5.7760  -34.3800  -23.4020 N.am  142  ASN142     -0.0877
    164  N         -9.4820  -34.1560  -31.1590 N.3   144  LEU144     -0.1245
    165  CA       -10.7700  -34.5570  -31.7120 C.3   144  LEU144      0.1561
    166  C        -10.8140  -34.3560  -33.2300 C.2   144  LEU144      0.2260
    167  O        -10.2970  -33.3670  -33.7350 O.2   144  LEU144     -0.2867
    168  CB       -11.8940  -33.7730  -31.0320 C.3   144  LEU144      0.0270
    169  CG       -12.0600  -33.9620  -29.5360 C.3   144  LEU144      0.0019
    170  CD1      -13.1950  -33.0960  -29.0170 C.3   144  LEU144      0.0001
    171  CD2      -12.2600  -35.4360  -29.1670 C.3   144  LEU144      0.0001
    172  N         -8.8830  -30.5300  -27.4750 N.3   154  CYS154     -0.1221
    173  CA        -9.8280  -30.4890  -26.3600 C.3   154  CYS154      0.1808
    174  C         -9.1350  -30.7580  -25.0150 C.2   154  CYS154      0.2601
    175  O         -7.9210  -30.9800  -24.9800 O.2   154  CYS154     -0.2717
    176  CB       -11.0160  -31.4140  -26.6020 C.3   154  CYS154      0.0970
    177  SG       -10.7000  -33.1500  -26.2170 S.3   154  CYS154     -0.0800
    178  N         -9.9170  -30.7180  -23.9170 N.am  155  ASP155     -0.1973
    179  CA        -9.5200  -30.9490  -22.5210 C.3   155  ASP155      0.1709
    180  C         -8.4590  -29.9730  -22.0100 C.2   155  ASP155      0.2293
    181  O         -7.2670  -30.2880  -22.0020 O.2   155  ASP155     -0.2864
    182  CB        -9.1000  -32.4010  -22.2620 C.3   155  ASP155      0.1436
    183  CG        -9.2240  -32.7990  -20.8070 C.2   155  ASP155      0.3671
    184  OD1       -9.8310  -32.0260  -20.0240 O.co2 155  ASP155     -0.2456
    185  OD2       -8.7220  -33.8810  -20.4480 O.co2 155  ASP155     -0.2456
@<TRIPOS>BOND
     1   124   123   ar
     2   123   125   ar
     3   123   122    1
     4   122   121    1
     5   121   118    1
     6   132   130    1
     7   118   117    1
     8   118   119    1
     9   117   111   am
    10   116   115    1
    11   119   126   am
    12   119   120    2
    13   130   131    1
    14   130   127    1
    15   126   127    1
    16   144   143    2
    17   167   166    2
    18   104   103    2
    19   115   114    1
    20   143   142    1
    21   111   110    1
    22   111   112    2
    23   127   128    1
    24   166   165    1
    25   110   113    1
    26   110   109    1
    27   136   135    2
    28   128   129    2
    29   128   133   am
    30   100    98   ar
    31   103   109   am
    32   103   102    1
    33   135   134    1
    34   113   114    1
    35   108   106    1
    36   133   134    1
    37    98    99   ar
    38    98    97    1
    39   142   145    1
    40   142   141    1
    41    97    94    1
    42   106   105    1
    43   106   107    1
    44   105   102    1
    45   134   137    1
    46   145   146    1
    47   165   164    1
    48   165   168    1
    49   102   101    1
    50   101    95   am
    51   168   169    1
    52    94    95    1
    53    94    93    1
    54   149   148    1
    55    95    96    2
    56   146   147    1
    57   137   138    1
    58   147   148    1
    59   139   138   ar
    60    83    81    1
    61   138   140   ar
    62    93    86   am
    63   169   171    1
    64   169   170    1
    65    76    77    1
    66    77    80    1
    67    77    78    1
    68    87    86    2
    69    81    80    1
    70    86    85    1
    71    80    82    1
    72    45    46    1
    73    78    79    2
    74   159   158    2
    75   158   157    1
    76   150   151    1
    77     8     6    1
    78   172   173    1
    79    49    46    1
    80     6     5    1
    81   151   152    1
    82   151   154    1
    83    46    47    1
    84    85    88    1
    85    85    84    1
    86   152   156   am
    87   152   153    2
    88   156   157    1
    89   157   160    1
    90    88    89    1
    91   176   173    1
    92   176   177    1
    93     7     5    1
    94   173   174    1
    95   154   155    1
    96     5     2    1
    97    47    48    2
    98   160   161    1
    99     2     1    1
   100     2     3    1
   101    89    90    1
   102     4     3    2
   103   174   175    2
   104   174   178   am
   105    90    92   am
   106    90    91    2
   107     3     9   am
   108   161   162    2
   109   161   163   am
   110    43    42    1
   111   178   179    1
   112     9    10    1
   113    41    40    2
   114    40    39    1
   115    42    39    1
   116    42    44    1
   117    10    11    1
   118   179   182    1
   119   179   180    1
   120   182   183    1
   121    39    38    1
   122   180   181    2
   123    50    51    1
   124    55    56    1
   125    55    54    1
   126    75    73   ar
   127    57    56    1
   128    57    58    1
   129    11    12    2
   130    11    13   am
   131    54    51    1
   132    38    32   am
   133   183   185   ar
   134   183   184   ar
   135    51    52    1
   136    73    74   ar
   137    73    72    1
   138    72    71    1
   139    13    14    1
   140    70    69    2
   141    32    33    2
   142    32    31    1
   143    52    53    2
   144    69    68    1
   145    71    68    1
   146    14    15    1
   147    14    17    1
   148    35    36    1
   149    35    34    1
   150    16    15    2
   151    36    37    1
   152    68    67    1
   153    31    34    1
   154    31    30    1
   155    15    22   am
   156    21    19   ar
   157    17    18    1
   158    18    19    1
   159    66    64    1
   160    30    28   am
   161    19    20   ar
   162    22    23    1
   163    64    63    1
   164    29    28    2
   165    28    27    1
   166    23    24    1
   167    59    60    1
   168    27    26    1
   169    63    60    1
   170    63    65    1
   171    60    61    1
   172    24    25    2
   173    61    62    2
