@<TRIPOS>MOLECULE
tmp/4xj2A00.pdb
 160 155 0 0 0
SMALL
GASTEIGER

@<TRIPOS>ATOM
      1  N          6.3170    0.3660   21.8200 N.3    23  VAL23      -0.1245
      2  CA         7.2340    1.4680   21.7980 C.3    23  VAL23       0.1561
      3  C          7.1000    2.2020   20.4570 C.2    23  VAL23       0.2260
      4  O          7.1930    1.5610   19.4040 O.2    23  VAL23      -0.2867
      5  CB         8.6890    1.0100   21.9980 C.3    23  VAL23       0.0252
      6  CG1        9.5730    2.2430   22.0560 C.3    23  VAL23       0.0019
      7  CG2        8.8530    0.2300   23.3090 C.3    23  VAL23       0.0019
      8  N         10.5790   11.7830   18.8680 N.3    37  MET37      -0.1230
      9  CA        10.4920   11.5770   20.3520 C.3    37  MET37       0.1702
     10  C          9.9450   10.1450   20.5650 C.2    37  MET37       0.2593
     11  O          8.8980    9.7880   19.9970 O.2    37  MET37      -0.2718
     12  CB         9.5850   12.6740   20.9770 C.3    37  MET37       0.0401
     13  CG         9.4640   12.5980   22.5230 C.3    37  MET37       0.0596
     14  SD         8.2240   13.8080   23.0790 S.3    37  MET37      -0.1393
     15  CE         9.4680   15.0740   23.1700 C.3    37  MET37       0.0692
     16  N         10.6780    9.3560   21.3420 N.am   38  THR38      -0.1939
     17  CA        10.2430    8.0660   21.7560 C.3    38  THR38       0.2028
     18  C          9.1020    8.2670   22.8170 C.2    38  THR38       0.2642
     19  O          9.2320    8.9910   23.8190 O.2    38  THR38      -0.2714
     20  CB        11.3890    7.1750   22.2770 C.3    38  THR38       0.1808
     21  OG1       12.3310    6.9100   21.1910 O.3    38  THR38      -0.2208
     22  CG2       10.8580    5.8160   22.7880 C.3    38  THR38       0.0379
     23  N          8.0650    7.5190   22.5530 N.am   39  VAL39      -0.1963
     24  CA         6.7570    7.6150   23.2510 C.3    39  VAL39       0.1727
     25  C          6.2120    6.2130   23.4960 C.2    39  VAL39       0.2616
     26  O          6.0930    5.4220   22.5130 O.2    39  VAL39      -0.2715
     27  CB         5.8300    8.4810   22.3250 C.3    39  VAL39       0.0290
     28  CG1        4.3380    8.3220   22.6230 C.3    39  VAL39       0.0023
     29  CG2        6.2460    9.9730   22.4090 C.3    39  VAL39       0.0023
     30  N          5.6880    5.9370   24.7260 N.am   40  ASN40      -0.1958
     31  CA         4.8180    4.8140   24.9060 C.3    40  ASN40       0.1819
     32  C          3.4080    5.0860   25.4200 C.2    40  ASN40       0.2622
     33  O          2.6760    4.1310   25.6800 O.2    40  ASN40      -0.2715
     34  CB         5.4480    3.6880   25.7450 C.3    40  ASN40       0.1195
     35  CG         5.5080    4.0300   27.2240 C.2    40  ASN40       0.2630
     36  OD1        5.5410    5.2310   27.5960 O.2    40  ASN40      -0.2716
     37  ND2        5.6070    2.9910   28.0880 N.am   40  ASN40      -0.0877
     38  N          3.0540    6.3540   25.5900 N.am   41  SER41      -0.1950
     39  CA         1.7650    6.8220   25.9810 C.3    41  SER41       0.1924
     40  C          0.8010    6.9310   24.7460 C.2    41  SER41       0.2314
     41  O         -0.1300    7.6980   24.7400 O.2    41  SER41      -0.2863
     42  CB         1.9030    8.1960   26.5970 C.3    41  SER41       0.2116
     43  OG         2.4100    9.0580   25.5760 O.3    41  SER41      -0.2180
     44  N          0.8830   11.3180   24.2700 N.3    55  CYS55      -0.1221
     45  CA         1.0320   12.3670   25.2550 C.3    55  CYS55       0.1794
     46  C          2.5000   12.8520   25.2880 C.2    55  CYS55       0.2443
     47  O          3.3350   12.2220   25.8910 O.2    55  CYS55      -0.2733
     48  CB         0.6210   11.8570   26.6340 C.3    55  CYS55       0.0970
     49  SG        -1.0440   11.1500   26.6740 S.3    55  CYS55      -0.0800
     50  N          2.7860   14.0590   24.7420 N.am   56  PRO56      -0.2718
     51  CA         4.1270   14.6120   24.9290 C.3    56  PRO56       0.1535
     52  C          4.2830   15.2430   26.2840 C.2    56  PRO56       0.2598
     53  O          3.3880   15.9240   26.7880 O.2    56  PRO56      -0.2715
     54  CB         4.2000   15.6920   23.8240 C.3    56  PRO56       0.0310
     55  CG         2.7700   16.1690   23.6910 C.3    56  PRO56       0.0237
     56  CD         2.0000   14.8770   23.7750 C.3    56  PRO56       0.0939
     57  N          5.4470   15.0400   26.8730 N.am   57  ALA57      -0.1978
     58  CA         5.7170   15.6830   28.2210 C.3    57  ALA57       0.1597
     59  C          5.8470   17.2180   27.9980 C.2    57  ALA57       0.2287
     60  O          6.5310   17.6750   27.0690 O.2    57  ALA57      -0.2864
     61  CB         7.0160   15.1470   28.8610 C.3    57  ALA57       0.0319
     62  N          7.5290   19.0540   29.9410 N.3    59  THR59      -0.1203
     63  CA         8.8880   19.3350   30.3450 C.3    59  THR59       0.1994
     64  C          9.9230   19.0560   29.2560 C.2    59  THR59       0.2618
     65  O         11.1080   19.2600   29.5010 O.2    59  THR59      -0.2717
     66  CB         9.2080   18.5250   31.6110 C.3    59  THR59       0.1784
     67  OG1        9.0570   17.1050   31.3060 O.3    59  THR59      -0.2211
     68  CG2        8.2300   18.9150   32.7240 C.3    59  THR59       0.0376
     69  N          9.5170   18.7090   28.0290 N.am   60  SER60      -0.1951
     70  CA        10.4660   18.5200   26.9180 C.3    60  SER60       0.1924
     71  C         10.6110   19.7780   26.0460 C.2    60  SER60       0.2314
     72  O          9.6440   20.4490   25.7230 O.2    60  SER60      -0.2863
     73  CB        10.0440   17.2990   26.0290 C.3    60  SER60       0.2116
     74  OG        10.7200   17.3050   24.7390 O.3    60  SER60      -0.2180
     75  N         10.9110   19.7600   23.0410 N.3    62  ARG62      -0.1245
     76  CA        10.1980   19.5290   21.7380 C.3    62  ARG62       0.1563
     77  C          8.6960   19.6100   21.8760 C.2    62  ARG62       0.2260
     78  O          7.9780   19.4670   20.8760 O.2    62  ARG62      -0.2867
     79  CB        10.4550   18.1050   21.2150 C.3    62  ARG62       0.0307
     80  CG        11.8520   17.8090   20.7120 C.3    62  ARG62       0.0489
     81  CD        12.2210   16.3180   20.7350 C.3    62  ARG62       0.2205
     82  NE        13.5830   16.2700   20.2020 N.pl3  62  ARG62      -0.0865
     83  CZ        14.7000   16.2820   20.9450 C.cat  62  ARG62       0.5346
     84  NH1       14.6150   16.2560   22.2760 N.pl3  62  ARG62       0.1354
     85  NH2       15.9170   16.2970   20.3600 N.pl3  62  ARG62       0.1354
     86  N         14.4700    3.1650   18.8160 N.3    85  CYS85      -0.1221
     87  CA        13.9810    3.6670   20.1170 C.3    85  CYS85       0.1808
     88  C         14.9480    4.6280   20.8770 C.2    85  CYS85       0.2601
     89  O         14.6110    5.7600   21.3170 O.2    85  CYS85      -0.2717
     90  CB        13.6210    2.4700   20.9930 C.3    85  CYS85       0.0970
     91  SG        13.2880    2.8600   22.6820 S.3    85  CYS85      -0.0800
     92  N         16.1770    4.2030   20.9760 N.am   86  LEU86      -0.1979
     93  CA        17.1700    4.9120   21.7750 C.3    86  LEU86       0.1596
     94  C         17.6790    6.2130   21.0770 C.2    86  LEU86       0.2287
     95  O         18.0430    7.1730   21.7550 O.2    86  LEU86      -0.2864
     96  CB        18.2940    3.9430   22.0620 C.3    86  LEU86       0.0297
     97  CG        17.8940    2.7470   22.9410 C.3    86  LEU86       0.0022
     98  CD1       19.1330    1.8880   23.1200 C.3    86  LEU86       0.0001
     99  CD2       17.3520    3.1650   24.3060 C.3    86  LEU86       0.0001
    100  N         15.8220    8.4020   19.8400 N.3    88  PHE88      -0.1227
    101  CA        14.7760    9.4150   20.1120 C.3    88  PHE88       0.1736
    102  C         14.3440    9.5320   21.5670 C.2    88  PHE88       0.2596
    103  O         13.3950   10.2460   21.8870 O.2    88  PHE88      -0.2718
    104  CB        13.5990    9.2100   19.1550 C.3    88  PHE88       0.0547
    105  CG        13.9990    9.3410   17.7190 C.ar   88  PHE88      -0.0202
    106  CD1       14.2370   10.5880   17.1970 C.ar   88  PHE88      -0.0042
    107  CD2       14.2200    8.2070   16.8930 C.ar   88  PHE88      -0.0042
    108  CE1       14.6100   10.7290   15.8480 C.ar   88  PHE88      -0.0003
    109  CE2       14.6210    8.3750   15.5310 C.ar   88  PHE88      -0.0003
    110  CZ        14.8100    9.6150   15.0360 C.ar   88  PHE88      -0.0000
    111  N         15.1360    8.9150   22.4530 N.am   89  THR89      -0.1939
    112  CA        15.0650    9.1560   23.8970 C.3    89  THR89       0.2028
    113  C         16.0960   10.2310   24.2970 C.2    89  THR89       0.2642
    114  O         16.9840   10.5600   23.4960 O.2    89  THR89      -0.2714
    115  CB        15.3900    7.8790   24.7220 C.3    89  THR89       0.1808
    116  OG1       16.6890    7.3510   24.3520 O.3    89  THR89      -0.2208
    117  CG2       14.3880    6.8820   24.5760 C.3    89  THR89       0.0379
    118  N         15.9920   10.6820   25.5550 N.am   90  ARG90      -0.1977
    119  CA        16.7910   11.7230   26.2290 C.3    90  ARG90       0.1597
    120  C         18.1060   11.9660   25.6040 C.2    90  ARG90       0.2287
    121  O         18.3760   13.0760   25.0970 O.2    90  ARG90      -0.2864
    122  CB        17.0820   11.3150   27.6840 C.3    90  ARG90       0.0334
    123  CG        17.9520   12.2870   28.5010 C.3    90  ARG90       0.0492
    124  CD        17.1300   13.1130   29.4920 C.3    90  ARG90       0.2205
    125  NE        17.8970   13.8300   30.5270 N.pl3  90  ARG90      -0.0865
    126  CZ        18.2650   15.1240   30.5020 C.cat  90  ARG90       0.5346
    127  NH1       17.9710   15.9190   29.4710 N.pl3  90  ARG90       0.1354
    128  NH2       18.9460   15.6330   31.5340 N.pl3  90  ARG90       0.1354
    129  N          1.7640   16.5250   31.2120 N.3   130  HIS130     -0.1241
    130  CA         1.7700   16.1090   29.7990 C.3   130  HIS130      0.1621
    131  C          0.5800   16.8160   29.1020 C.2   130  HIS130      0.2264
    132  O         -0.2960   17.3970   29.7910 O.2   130  HIS130     -0.2867
    133  CB         1.6350   14.5530   29.6140 C.3   130  HIS130      0.0745
    134  CG         2.9080   13.7850   29.8370 C.ar  130  HIS130      0.0817
    135  ND1        3.5770   13.8160   31.0370 N.ar  130  HIS130     -0.2268
    136  CD2        3.6220   12.9600   29.0350 C.ar  130  HIS130      0.1154
    137  CE1        4.6620   13.0710   30.9680 C.ar  130  HIS130      0.1986
    138  NE2        4.7180   12.5370   29.7660 N.ar  130  HIS130     -0.2212
    139  N          7.7950   -2.8470   26.1950 N.3   152  PHE152     -0.1241
    140  CA         8.3960   -2.1860   27.3480 C.3   152  PHE152      0.1605
    141  C          7.4900   -2.5110   28.4910 C.2   152  PHE152      0.2264
    142  O          6.3240   -2.0870   28.4930 O.2   152  PHE152     -0.2867
    143  CB         8.4810   -0.6690   27.1560 C.3   152  PHE152      0.0534
    144  CG         9.3440    0.0450   28.2210 C.ar  152  PHE152     -0.0203
    145  CD1       10.7100   -0.2370   28.3560 C.ar  152  PHE152     -0.0042
    146  CD2        8.7900    1.0060   29.0650 C.ar  152  PHE152     -0.0042
    147  CE1       11.4850    0.3840   29.3420 C.ar  152  PHE152     -0.0003
    148  CE2        9.5710    1.6470   29.9950 C.ar  152  PHE152     -0.0003
    149  CZ        10.9120    1.3370   30.1430 C.ar  152  PHE152     -0.0000
    150  N         13.0590   -3.5760   28.4170 N.3   157  PHE157     -0.1241
    151  CA        12.6590   -3.8640   27.0260 C.3   157  PHE157      0.1605
    152  C         12.6340   -5.3770   26.8620 C.2   157  PHE157      0.2264
    153  O         13.3950   -6.0940   27.5440 O.2   157  PHE157     -0.2867
    154  CB        13.5940   -3.2150   25.9940 C.3   157  PHE157      0.0534
    155  CG        13.5550   -1.7110   26.0010 C.ar  157  PHE157     -0.0203
    156  CD1       12.5910   -1.0190   25.3130 C.ar  157  PHE157     -0.0042
    157  CD2       14.5280   -0.9860   26.6930 C.ar  157  PHE157     -0.0042
    158  CE1       12.5630    0.3650   25.3310 C.ar  157  PHE157     -0.0003
    159  CE2       14.4930    0.4070   26.7110 C.ar  157  PHE157     -0.0003
    160  CZ        13.5310    1.0800   26.0110 C.ar  157  PHE157     -0.0000
@<TRIPOS>BOND
     1   110   109   ar
     2   110   108   ar
     3   109   107   ar
     4   108   106   ar
     5   107   105   ar
     6   106   105   ar
     7   105   104    1
     8    86    87    1
     9     8     9    1
    10   104   101    1
    11     4     3    2
    12   100   101    1
    13    11    10    2
    14   101   102    1
    15    87    88    1
    16    87    90    1
    17    82    81    1
    18    82    83    2
    19     9    10    1
    20     9    12    1
    21    85    83    1
    22     3     2    1
    23    10    16   am
    24    80    81    1
    25    80    79    1
    26    78    77    2
    27    88    92   am
    28    88    89    2
    29    83    84    1
    30    92    93    1
    31    12    13    1
    32    90    91    1
    33    94    95    2
    34    94    93    1
    35    21    20    1
    36    79    76    1
    37    16    17    1
    38   102   103    2
    39   102   111   am
    40    76    77    1
    41    76    75    1
    42    17    20    1
    43    17    18    1
    44    93    96    1
    45     2     1    1
    46     2     5    1
    47     5     6    1
    48     5     7    1
    49    96    97    1
    50    20    22    1
    51    27    29    1
    52    27    28    1
    53    27    24    1
    54   111   112    1
    55    26    25    2
    56    13    14    1
    57    23    18   am
    58    23    24    1
    59    18    19    2
    60    97    98    1
    61    97    99    1
    62    14    15    1
    63    24    25    1
    64   114   113    2
    65    25    30   am
    66    55    56    1
    67    55    54    1
    68    56    50    1
    69    54    51    1
    70   112   113    1
    71   112   115    1
    72    44    45    1
    73   113   118   am
    74   116   115    1
    75   117   115    1
    76    30    31    1
    77    74    73    1
    78    41    40    2
    79    50    51    1
    80    50    46   am
    81    40    39    1
    82    31    32    1
    83    31    34    1
    84    51    52    1
    85   121   120    2
    86    45    46    1
    87    45    48    1
    88    46    47    2
    89   156   158   ar
    90   156   155   ar
    91   158   160   ar
    92    32    38   am
    93    32    33    2
    94   118   119    1
    95    43    42    1
    96    38    39    1
    97   120   119    1
    98    72    71    2
    99    34    35    1
   100    39    42    1
   101   154   155    1
   102   154   151    1
   103   155   157   ar
   104   160   159   ar
   105    73    70    1
   106    71    70    1
   107   139   140    1
   108   119   122    1
   109    52    53    2
   110    52    57   am
   111    48    49    1
   112   157   159   ar
   113   152   151    1
   114   152   153    2
   115    57    58    1
   116    70    69    1
   117   151   150    1
   118    60    59    2
   119   143   140    1
   120   143   144    1
   121    35    36    2
   122    35    37   am
   123   140   141    1
   124   122   123    1
   125    59    58    1
   126    69    64   am
   127    58    61    1
   128   144   145   ar
   129   144   146   ar
   130   145   147   ar
   131   141   142    2
   132   123   124    1
   133   136   138   ar
   134   136   134   ar
   135   146   148   ar
   136   131   132    2
   137   131   130    1
   138    64    65    2
   139    64    63    1
   140   147   149   ar
   141   127   126    1
   142   124   125    1
   143   133   130    1
   144   133   134    1
   145   138   137   ar
   146   130   129    1
   147   134   135   ar
   148    62    63    1
   149   148   149   ar
   150    63    66    1
   151   126   125    2
   152   126   128    1
   153   137   135   ar
   154    67    66    1
   155    66    68    1
