@<TRIPOS>MOLECULE
tmp/4xj3A01.pdb
 142 132 0 0 0
SMALL
GASTEIGER

@<TRIPOS>ATOM
      1  N         44.6780   23.9510   61.2970 N.3   111  GLN111     -0.1245
      2  CA        44.2540   23.6360   59.9300 C.3   111  GLN111      0.1566
      3  C         43.9600   24.9430   59.2150 C.2   111  GLN111      0.2260
      4  O         43.9650   25.9940   59.8390 O.2   111  GLN111     -0.2867
      5  CB        43.0100   22.7440   59.9480 C.3   111  GLN111      0.0367
      6  CG        41.7960   23.4070   60.5970 C.3   111  GLN111      0.0905
      7  CD        40.6540   22.4350   60.8500 C.2   111  GLN111      0.2608
      8  OE1       40.7930   21.4860   61.6120 O.2   111  GLN111     -0.2717
      9  NE2       39.5240   22.6680   60.2030 N.am  111  GLN111     -0.0878
     10  N         40.9670   34.5430   60.2130 N.3   130  ASP130     -0.1239
     11  CA        40.6120   33.3530   60.9880 C.3   130  ASP130      0.1674
     12  C         41.8750   32.5180   61.2170 C.2   130  ASP130      0.2266
     13  O         42.7030   32.3870   60.3160 O.2   130  ASP130     -0.2867
     14  CB        39.5140   32.5810   60.2230 C.3   130  ASP130      0.1410
     15  CG        39.3070   31.1630   60.7050 C.2   130  ASP130      0.3668
     16  OD1       39.3340   30.9080   61.9300 O.co2 130  ASP130     -0.2456
     17  OD2       39.0710   30.2960   59.8380 O.co2 130  ASP130     -0.2456
     18  N         42.4490   28.5900   62.5500 N.3   132  ASP132     -0.1239
     19  CA        41.6970   27.3890   62.8850 C.3   132  ASP132      0.1674
     20  C         42.5320   26.4000   63.6820 C.2   132  ASP132      0.2266
     21  O         43.2930   25.6290   63.1080 O.2   132  ASP132     -0.2867
     22  CB        41.2010   26.7180   61.6050 C.3   132  ASP132      0.1410
     23  CG        40.3840   27.6470   60.7390 C.2   132  ASP132      0.3668
     24  OD1       39.3300   28.1000   61.2140 O.co2 132  ASP132     -0.2456
     25  OD2       40.7830   27.9080   59.5760 O.co2 132  ASP132     -0.2456
     26  N         31.2520   32.3580   70.3860 N.3   170  GLU170     -0.1245
     27  CA        30.2370   31.9410   69.4360 C.3   170  GLU170      0.1567
     28  C         30.2750   30.4260   69.3160 C.2   170  GLU170      0.2260
     29  O         31.3330   29.8500   69.0740 O.2   170  GLU170     -0.2867
     30  CB        30.4810   32.5800   68.0670 C.3   170  GLU170      0.0388
     31  CG        29.3400   33.4020   67.5280 C.3   170  GLU170      0.1160
     32  CD        29.7030   34.0720   66.2220 C.2   170  GLU170      0.3649
     33  OE1       30.2570   33.3820   65.3400 O.co2 170  GLU170     -0.2457
     34  OE2       29.4540   35.2910   66.0870 O.co2 170  GLU170     -0.2457
     35  N         29.4980   27.3690   67.0820 N.3   172  LYS172     -0.1231
     36  CA        29.1840   26.9960   65.7070 C.3   172  LYS172      0.1693
     37  C         28.9470   25.4950   65.6100 C.2   172  LYS172      0.2592
     38  O         29.2790   24.7460   66.5300 O.2   172  LYS172     -0.2718
     39  CB        30.3020   27.4210   64.7530 C.3   172  LYS172      0.0285
     40  CG        30.4240   28.9300   64.5870 C.3   172  LYS172      0.0035
     41  CD        29.0390   29.5750   64.5500 C.3   172  LYS172      0.0206
     42  CE        28.9550   30.6690   63.5010 C.3   172  LYS172      0.1093
     43  NZ        29.1050   30.1140   62.1290 N.3   172  LYS172     -0.1314
     44  N         28.3690   25.0530   64.4990 N.am  173  GLN173     -0.1966
     45  CA        28.0720   23.6370   64.3410 C.3   173  GLN173      0.1733
     46  C         29.3420   22.7960   64.4020 C.2   173  GLN173      0.2617
     47  O         29.3460   21.7050   64.9670 O.2   173  GLN173     -0.2715
     48  CB        27.3260   23.3840   63.0260 C.3   173  GLN173      0.0408
     49  CG        27.1570   21.9060   62.6570 C.3   173  GLN173      0.0908
     50  CD        26.1780   21.1440   63.5440 C.2   173  GLN173      0.2608
     51  OE1       25.8770   21.5450   64.6710 O.2   173  GLN173     -0.2717
     52  NE2       25.6780   20.0270   63.0310 N.am  173  GLN173     -0.0878
     53  N         30.4270   23.3200   63.8430 N.am  174  THR174     -0.1937
     54  CA        31.6600   22.5520   63.7310 C.3   174  THR174      0.2028
     55  C         32.7950   23.0570   64.6190 C.2   174  THR174      0.2642
     56  O         33.8930   22.5020   64.5870 O.2   174  THR174     -0.2714
     57  CB        32.1680   22.5340   62.2790 C.3   174  THR174      0.1808
     58  OG1       32.5180   23.8600   61.8820 O.3   174  THR174     -0.2208
     59  CG2       31.0840   22.0010   61.3470 C.3   174  THR174      0.0379
     60  N         32.5410   24.0930   65.4140 N.am  175  CYS175     -0.1967
     61  CA        33.5880   24.6200   66.2780 C.3   175  CYS175      0.1712
     62  C         33.0830   25.5590   67.3620 C.2   175  CYS175      0.2296
     63  O         31.9510   26.0450   67.3230 O.2   175  CYS175     -0.2864
     64  CB        34.6440   25.3510   65.4460 C.3   175  CYS175      0.0983
     65  SG        34.0630   26.8890   64.6920 S.3   175  CYS175     -0.0798
     66  N         34.1780   29.2910   68.8730 N.3   177  ARG177     -0.1245
     67  CA        34.8610   30.4400   68.2790 C.3   177  ARG177      0.1563
     68  C         35.0440   31.5540   69.2930 C.2   177  ARG177      0.2260
     69  O         34.1200   31.8730   70.0450 O.2   177  ARG177     -0.2867
     70  CB        34.0760   30.9560   67.0720 C.3   177  ARG177      0.0307
     71  CG        34.5650   32.2900   66.5210 C.3   177  ARG177      0.0489
     72  CD        33.7880   32.6920   65.2730 C.3   177  ARG177      0.2205
     73  NE        33.9530   31.7350   64.1850 N.pl3 177  ARG177     -0.0865
     74  CZ        33.2080   31.7220   63.0850 C.cat 177  ARG177      0.5346
     75  NH1       32.2510   32.6250   62.9230 N.pl3 177  ARG177      0.1354
     76  NH2       33.4220   30.8130   62.1460 N.pl3 177  ARG177      0.1354
     77  N         39.2590   36.2360   64.5270 N.3   186  HIS186     -0.1241
     78  CA        38.6430   35.2150   65.3710 C.3   186  HIS186      0.1621
     79  C         39.4310   33.9140   65.3020 C.2   186  HIS186      0.2264
     80  O         40.1360   33.6410   64.3270 O.2   186  HIS186     -0.2867
     81  CB        37.1690   34.9830   65.0040 C.3   186  HIS186      0.0745
     82  CG        36.9350   34.5250   63.5980 C.ar  186  HIS186      0.0817
     83  ND1       36.5860   35.3910   62.5840 N.ar  186  HIS186     -0.2268
     84  CD2       36.9580   33.2870   63.0450 C.ar  186  HIS186      0.1154
     85  CE1       36.4250   34.7100   61.4620 C.ar  186  HIS186      0.1986
     86  NE2       36.6510   33.4330   61.7120 N.ar  186  HIS186     -0.2212
     87  N         38.9050   29.8290   65.4750 N.3   188  ASP188     -0.1239
     88  CA        37.9530   28.7230   65.4090 C.3   188  ASP188      0.1674
     89  C         38.5590   27.4460   65.9830 C.2   188  ASP188      0.2266
     90  O         39.6660   27.0450   65.6050 O.2   188  ASP188     -0.2867
     91  CB        37.5160   28.4670   63.9650 C.3   188  ASP188      0.1410
     92  CG        36.4740   29.4620   63.4790 C.2   188  ASP188      0.3668
     93  OD1       36.1260   30.4000   64.2330 O.co2 188  ASP188     -0.2456
     94  OD2       36.0050   29.3030   62.3320 O.co2 188  ASP188     -0.2456
     95  N         37.7150   23.6780   66.1610 N.3   190  PRO190     -0.2116
     96  CA        37.0290   22.4030   65.9350 C.3   190  PRO190      0.1372
     97  C         37.5670   21.3520   66.9010 C.2   190  PRO190      0.2244
     98  O         38.7030   21.4840   67.3790 O.2   190  PRO190     -0.2868
     99  CB        37.3620   22.0640   64.4740 C.3   190  PRO190      0.0268
    100  CG        38.6410   22.7990   64.1930 C.3   190  PRO190      0.0207
    101  CD        38.6200   24.0410   65.0510 C.3   190  PRO190      0.0892
    102  N         38.1350   17.1580   67.6380 N.3   192  TYR192     -0.1241
    103  CA        38.2240   15.8460   67.0160 C.3   192  TYR192      0.1605
    104  C         38.4760   14.7470   68.0160 C.2   192  TYR192      0.2264
    105  O         39.2160   14.9340   68.9810 O.2   192  TYR192     -0.2867
    106  CB        39.3500   15.7940   65.9910 C.3   192  TYR192      0.0534
    107  CG        39.2270   16.8140   64.9010 C.ar  192  TYR192     -0.0201
    108  CD1       38.5260   16.5250   63.7370 C.ar  192  TYR192     -0.0009
    109  CD2       39.8190   18.0620   65.0270 C.ar  192  TYR192     -0.0009
    110  CE1       38.4070   17.4560   62.7360 C.ar  192  TYR192      0.0417
    111  CE2       39.7050   19.0080   64.0280 C.ar  192  TYR192      0.0417
    112  CZ        39.0010   18.6950   62.8840 C.ar  192  TYR192      0.1957
    113  OH        38.8830   19.6220   61.8800 O.3   192  TYR192     -0.2866
    114  N         35.3270   14.5240   63.4810 N.3   204  LEU204     -0.1245
    115  CA        34.9490   15.8750   63.8620 C.3   204  LEU204      0.1561
    116  C         33.6600   15.8600   64.6890 C.2   204  LEU204      0.2260
    117  O         32.6730   15.2410   64.3030 O.2   204  LEU204     -0.2867
    118  CB        34.7670   16.7480   62.6130 C.3   204  LEU204      0.0270
    119  CG        34.2360   18.1790   62.7680 C.3   204  LEU204      0.0019
    120  CD1       35.2490   19.0820   63.4530 C.3   204  LEU204      0.0001
    121  CD2       33.8700   18.7520   61.3920 C.3   204  LEU204      0.0001
    122  N         35.8770   13.5410   59.2100 N.3   216  SER216     -0.1217
    123  CA        36.3870   14.6090   58.3650 C.3   216  SER216      0.1889
    124  C         37.7860   15.0140   58.8050 C.2   216  SER216      0.2288
    125  O         37.9480   15.8740   59.6660 O.2   216  SER216     -0.2866
    126  CB        35.4390   15.8150   58.4000 C.3   216  SER216      0.2089
    127  OG        35.8200   16.8160   57.4590 O.3   216  SER216     -0.2183
    128  N         41.0370   16.9190   58.5790 N.3   218  PRO218     -0.2116
    129  CA        41.5390   18.1250   57.9080 C.3   218  PRO218      0.1372
    130  C         42.8980   17.8920   57.2500 C.2   218  PRO218      0.2244
    131  O         43.2840   18.6460   56.3630 O.2   218  PRO218     -0.2868
    132  CB        41.6460   19.1450   59.0480 C.3   218  PRO218      0.0268
    133  CG        41.8290   18.3130   60.2770 C.3   218  PRO218      0.0207
    134  CD        41.0350   17.0570   60.0500 C.3   218  PRO218      0.0892
    135  N         33.4770   13.8690   51.5740 N.3   305  ASP305     -0.1239
    136  CA        32.5250   14.9610   51.7970 C.3   305  ASP305      0.1674
    137  C         31.1470   14.5830   51.2410 C.2   305  ASP305      0.2266
    138  O         31.0510   13.9630   50.1840 O.2   305  ASP305     -0.2867
    139  CB        33.0030   16.2600   51.1510 C.3   305  ASP305      0.1410
    140  CG        34.0440   16.9870   51.9810 C.2   305  ASP305      0.3668
    141  OD1       34.4930   16.4280   53.0050 O.co2 305  ASP305     -0.2456
    142  OD2       34.4030   18.1240   51.6040 O.co2 305  ASP305     -0.2456
@<TRIPOS>BOND
     1   138   137    2
     2   139   136    1
     3   139   140    1
     4   137   136    1
     5   135   136    1
     6   142   140   ar
     7   140   141   ar
     8   131   130    2
     9   130   129    1
    10   127   126    1
    11   129   128    1
    12   129   132    1
    13   123   126    1
    14   123   124    1
    15   123   122    1
    16   128   134    1
    17   124   125    2
    18   132   133    1
    19     3     4    2
    20     3     2    1
    21    25    23   ar
    22    17    15   ar
    23     2     5    1
    24     2     1    1
    25     5     6    1
    26   134   133    1
    27     9     7   am
    28    10    11    1
    29    14    15    1
    30    14    11    1
    31    13    12    2
    32     6     7    1
    33    15    16   ar
    34    23    24   ar
    35    23    22    1
    36     7     8    2
    37    11    12    1
    38    59    57    1
    39   121   119    1
    40    85    86   ar
    41    85    83   ar
    42    22    19    1
    43    86    84   ar
    44   113   112    1
    45    58    57    1
    46    43    42    1
    47    76    74    1
    48    57    54    1
    49    94    92   ar
    50    18    19    1
    51    83    82   ar
    52   118   119    1
    53   118   115    1
    54    49    48    1
    55    49    50    1
    56   110   112   ar
    57   110   108   ar
    58   119   120    1
    59   112   111   ar
    60    19    20    1
    61    75    74    1
    62    48    45    1
    63    52    50   am
    64    84    82   ar
    65    74    73    2
    66    21    20    2
    67    92    91    1
    68    92    93   ar
    69   114   115    1
    70    42    41    1
    71    50    51    2
    72    82    81    1
    73    54    53    1
    74    54    55    1
    75   108   107   ar
    76    53    46   am
    77   115   116    1
    78    91    88    1
    79   111   109   ar
    80    73    72    1
    81   100    99    1
    82   100   101    1
    83   117   116    2
    84    80    79    2
    85    45    46    1
    86    45    44    1
    87    46    47    2
    88    99    96    1
    89    44    37   am
    90    77    78    1
    91    41    40    1
    92    40    39    1
    93    56    55    2
    94    55    60   am
    95    65    64    1
    96    39    36    1
    97   107   109   ar
    98   107   106    1
    99    81    78    1
   100   101    95    1
   101    72    71    1
   102    79    78    1
   103    33    32   ar
   104    88    87    1
   105    88    89    1
   106    60    61    1
   107    64    61    1
   108    90    89    2
   109    37    36    1
   110    37    38    2
   111    36    35    1
   112    96    95    1
   113    96    97    1
   114   106   103    1
   115    34    32   ar
   116    32    31    1
   117    61    62    1
   118    71    70    1
   119    97    98    2
   120   103   102    1
   121   103   104    1
   122    70    67    1
   123    63    62    2
   124    31    30    1
   125   104   105    2
   126    30    27    1
   127    67    66    1
   128    67    68    1
   129    29    28    2
   130    68    69    2
   131    28    27    1
   132    27    26    1
