@<TRIPOS>MOLECULE
tmp/4xj3A00.pdb
 178 164 0 0 0
SMALL
GASTEIGER

@<TRIPOS>ATOM
      1  N         44.6780   23.9510   61.2970 N.3   111  GLN111     -0.1231
      2  CA        44.2540   23.6360   59.9300 C.3   111  GLN111      0.1698
      3  C         43.9600   24.9430   59.2150 C.2   111  GLN111      0.2593
      4  O         43.9650   25.9940   59.8390 O.2   111  GLN111     -0.2718
      5  CB        43.0100   22.7440   59.9480 C.3   111  GLN111      0.0381
      6  CG        41.7960   23.4070   60.5970 C.3   111  GLN111      0.0905
      7  CD        40.6540   22.4350   60.8500 C.2   111  GLN111      0.2608
      8  OE1       40.7930   21.4860   61.6120 O.2   111  GLN111     -0.2717
      9  NE2       39.5240   22.6680   60.2030 N.am  111  GLN111     -0.0878
     10  N         43.6930   24.8950   57.9130 N.am  112  GLY112     -0.1942
     11  CA        43.2600   26.1000   57.2220 C.3   112  GLY112      0.2014
     12  C         44.3870   27.0130   56.7760 C.2   112  GLY112      0.2639
     13  O         45.5520   26.6310   56.7860 O.2   112  GLY112     -0.2714
     14  N         44.0290   28.2390   56.4020 N.am  113  SER113     -0.1949
     15  CA        44.9560   29.1220   55.6990 C.3   113  SER113      0.1924
     16  C         46.1470   29.5730   56.5390 C.2   113  SER113      0.2314
     17  O         47.1830   29.9560   55.9830 O.2   113  SER113     -0.2863
     18  CB        44.2060   30.3470   55.1380 C.3   113  SER113      0.2116
     19  OG        43.5310   31.0740   56.1460 O.3   113  SER113     -0.2180
     20  N         48.5580   26.3830   55.8680 N.3   116  TYR116     -0.1241
     21  CA        49.1490   26.2270   54.5400 C.3   116  TYR116      0.1605
     22  C         49.3780   27.5720   53.8280 C.2   116  TYR116      0.2264
     23  O         49.4800   27.6310   52.6020 O.2   116  TYR116     -0.2867
     24  CB        48.3070   25.2760   53.6650 C.3   116  TYR116      0.0534
     25  CG        46.7870   25.3850   53.7260 C.ar  116  TYR116     -0.0201
     26  CD1       46.1270   26.4950   53.2130 C.ar  116  TYR116     -0.0009
     27  CD2       46.0130   24.3320   54.2200 C.ar  116  TYR116     -0.0009
     28  CE1       44.7390   26.5730   53.2330 C.ar  116  TYR116      0.0417
     29  CE2       44.6280   24.4000   54.2420 C.ar  116  TYR116      0.0417
     30  CZ        43.9990   25.5300   53.7530 C.ar  116  TYR116      0.1957
     31  OH        42.6260   25.6120   53.7630 O.3   116  TYR116     -0.2866
     32  N         46.5560   32.8820   54.2380 N.3   119  LEU119     -0.1231
     33  CA        45.7050   33.7600   55.0310 C.3   119  LEU119      0.1693
     34  C         45.9080   35.2090   54.6290 C.2   119  LEU119      0.2592
     35  O         47.0050   35.7370   54.8090 O.2   119  LEU119     -0.2718
     36  CB        46.0180   33.5900   56.5230 C.3   119  LEU119      0.0284
     37  CG        45.2140   34.4300   57.5140 C.3   119  LEU119      0.0019
     38  CD1       43.7120   34.1730   57.3590 C.3   119  LEU119      0.0001
     39  CD2       45.6680   34.0760   58.9150 C.3   119  LEU119      0.0001
     40  N         44.8670   35.8490   54.0990 N.am  120  ASN120     -0.1974
     41  CA        44.9550   37.2520   53.6780 C.3   120  ASN120      0.1688
     42  C         44.5900   38.2340   54.7810 C.2   120  ASN120      0.2292
     43  O         43.7360   37.9380   55.6120 O.2   120  ASN120     -0.2864
     44  CB        44.0240   37.5470   52.5000 C.3   120  ASN120      0.1181
     45  CG        44.4270   36.8490   51.2270 C.2   120  ASN120      0.2629
     46  OD1       45.6050   36.5850   50.9850 O.2   120  ASN120     -0.2716
     47  ND2       43.4320   36.5620   50.3820 N.am  120  ASN120     -0.0877
     48  N         40.9670   34.5430   60.2130 N.3   130  ASP130     -0.1239
     49  CA        40.6120   33.3530   60.9880 C.3   130  ASP130      0.1674
     50  C         41.8750   32.5180   61.2170 C.2   130  ASP130      0.2266
     51  O         42.7030   32.3870   60.3160 O.2   130  ASP130     -0.2867
     52  CB        39.5140   32.5810   60.2230 C.3   130  ASP130      0.1410
     53  CG        39.3070   31.1630   60.7050 C.2   130  ASP130      0.3668
     54  OD1       39.3340   30.9080   61.9300 O.co2 130  ASP130     -0.2456
     55  OD2       39.0710   30.2960   59.8380 O.co2 130  ASP130     -0.2456
     56  N         42.4490   28.5900   62.5500 N.3   132  ASP132     -0.1239
     57  CA        41.6970   27.3890   62.8850 C.3   132  ASP132      0.1674
     58  C         42.5320   26.4000   63.6820 C.2   132  ASP132      0.2266
     59  O         43.2930   25.6290   63.1080 O.2   132  ASP132     -0.2867
     60  CB        41.2010   26.7180   61.6050 C.3   132  ASP132      0.1410
     61  CG        40.3840   27.6470   60.7390 C.2   132  ASP132      0.3668
     62  OD1       39.3300   28.1000   61.2140 O.co2 132  ASP132     -0.2456
     63  OD2       40.7830   27.9080   59.5760 O.co2 132  ASP132     -0.2456
     64  N         35.8770   13.5410   59.2100 N.3   216  SER216     -0.1202
     65  CA        36.3870   14.6090   58.3650 C.3   216  SER216      0.2020
     66  C         37.7860   15.0140   58.8050 C.2   216  SER216      0.2619
     67  O         37.9480   15.8740   59.6660 O.2   216  SER216     -0.2717
     68  CB        35.4390   15.8150   58.4000 C.3   216  SER216      0.2103
     69  OG        35.8200   16.8160   57.4590 O.3   216  SER216     -0.2182
     70  N         38.7930   14.3950   58.1990 N.am  217  ASP217     -0.1960
     71  CA        40.1820   14.6120   58.5760 C.3   217  ASP217      0.1825
     72  C         40.7460   15.8240   57.8480 C.2   217  ASP217      0.2464
     73  O         40.9350   15.7660   56.6430 O.2   217  ASP217     -0.2730
     74  CB        41.0100   13.3620   58.2550 C.3   217  ASP217      0.1450
     75  CG        42.4590   13.4890   58.6850 C.2   217  ASP217      0.3671
     76  OD1       42.8030   14.4910   59.3300 O.co2 217  ASP217     -0.2456
     77  OD2       43.2530   12.5760   58.3900 O.co2 217  ASP217     -0.2456
     78  N         41.0370   16.9190   58.5790 N.am  218  PRO218     -0.2727
     79  CA        41.5390   18.1250   57.9080 C.3   218  PRO218      0.1402
     80  C         42.8980   17.8920   57.2500 C.2   218  PRO218      0.2269
     81  O         43.2840   18.6460   56.3630 O.2   218  PRO218     -0.2865
     82  CB        41.6460   19.1450   59.0480 C.3   218  PRO218      0.0296
     83  CG        41.8290   18.3130   60.2770 C.3   218  PRO218      0.0237
     84  CD        41.0350   17.0570   60.0500 C.3   218  PRO218      0.0939
     85  N         42.8130   17.6690   53.3970 N.3   221  VAL221     -0.1245
     86  CA        42.8520   18.9160   52.6440 C.3   221  VAL221      0.1561
     87  C         44.2460   19.5410   52.6800 C.2   221  VAL221      0.2260
     88  O         44.7420   20.0360   51.6660 O.2   221  VAL221     -0.2867
     89  CB        41.8070   19.9150   53.1760 C.3   221  VAL221      0.0252
     90  CG1       42.0070   21.2850   52.5530 C.3   221  VAL221      0.0019
     91  CG2       40.4070   19.3920   52.9120 C.3   221  VAL221      0.0019
     92  N         40.8420   34.6860   46.5620 N.3   244  LYS244     -0.1245
     93  CA        40.1980   34.9830   47.8380 C.3   244  LYS244      0.1561
     94  C         40.0540   36.4930   48.0460 C.2   244  LYS244      0.2260
     95  O         39.0620   36.9580   48.6180 O.2   244  LYS244     -0.2867
     96  CB        40.9750   34.3550   48.9990 C.3   244  LYS244      0.0271
     97  CG        40.9330   32.8380   48.9740 C.3   244  LYS244      0.0035
     98  CD        41.9820   32.2440   49.8930 C.3   244  LYS244      0.0206
     99  CE        41.7290   32.6320   51.3300 C.3   244  LYS244      0.1093
    100  NZ        42.7630   31.9680   52.2050 N.3   244  LYS244     -0.1314
    101  N         37.1550   37.6320   46.1310 N.3   247  ARG247     -0.1245
    102  CA        35.9440   37.2510   46.8600 C.3   247  ARG247      0.1563
    103  C         35.6690   38.2590   47.9920 C.2   247  ARG247      0.2260
    104  O         34.5320   38.7100   48.1710 O.2   247  ARG247     -0.2867
    105  CB        36.1020   35.8170   47.4020 C.3   247  ARG247      0.0307
    106  CG        34.8500   35.1910   48.0160 C.3   247  ARG247      0.0489
    107  CD        34.7920   35.4020   49.5290 C.3   247  ARG247      0.2205
    108  NE        36.0970   35.3800   50.2080 N.pl3 247  ARG247     -0.0865
    109  CZ        36.7420   34.2830   50.6050 C.cat 247  ARG247      0.5346
    110  NH1       36.2330   33.0740   50.3950 N.pl3 247  ARG247      0.1354
    111  NH2       37.9190   34.3970   51.2150 N.pl3 247  ARG247      0.1354
    112  N         33.2550   29.7980   48.9830 N.3   257  SER257     -0.1202
    113  CA        34.1910   29.4640   50.0460 C.3   257  SER257      0.2020
    114  C         35.6220   29.5040   49.5570 C.2   257  SER257      0.2619
    115  O         35.8970   29.3190   48.3670 O.2   257  SER257     -0.2717
    116  CB        33.8910   28.0830   50.6070 C.3   257  SER257      0.2103
    117  OG        34.1580   27.0830   49.6330 O.3   257  SER257     -0.2182
    118  N         36.5430   29.7220   50.4850 N.am  258  SER258     -0.1937
    119  CA        37.9550   29.6880   50.1270 C.3   258  SER258      0.2055
    120  C         38.3480   28.3290   49.5650 C.2   258  SER258      0.2642
    121  O         39.1040   28.2440   48.5980 O.2   258  SER258     -0.2714
    122  CB        38.8050   30.0360   51.3430 C.3   258  SER258      0.2130
    123  OG        38.5110   31.3550   51.7080 O.3   258  SER258     -0.2179
    124  N         37.8190   27.2620   50.1500 N.am  259  ILE259     -0.1977
    125  CA        38.2060   25.9450   49.6770 C.3   259  ILE259      0.1596
    126  C         37.6530   25.6890   48.2610 C.2   259  ILE259      0.2287
    127  O         38.3070   25.0350   47.4530 O.2   259  ILE259     -0.2864
    128  CB        37.7730   24.8370   50.6710 C.3   259  ILE259      0.0276
    129  CG1       38.4040   23.4990   50.2890 C.3   259  ILE259      0.0022
    130  CG2       36.2330   24.7450   50.8090 C.3   259  ILE259      0.0022
    131  CD1       38.1790   22.3910   51.3380 C.3   259  ILE259      0.0001
    132  N         40.0580   27.3560   45.9120 N.3   262  MET262     -0.1245
    133  CA        41.3000   26.5860   45.8300 C.3   262  MET262      0.1570
    134  C         41.1320   25.3710   44.9310 C.2   262  MET262      0.2261
    135  O         41.9600   25.1130   44.0670 O.2   262  MET262     -0.2867
    136  CB        41.7590   26.1380   47.2240 C.3   262  MET262      0.0387
    137  CG        42.1740   27.2760   48.0970 C.3   262  MET262      0.0595
    138  SD        42.1110   26.8060   49.8420 S.3   262  MET262     -0.1393
    139  CE        43.4590   25.6430   49.9560 C.3   262  MET262      0.0692
    140  N         34.8980   18.3390   46.1810 N.3   300  SER300     -0.1217
    141  CA        35.8660   18.4460   47.2640 C.3   300  SER300      0.1889
    142  C         37.0870   17.5830   46.9830 C.2   300  SER300      0.2288
    143  O         36.9740   16.5150   46.3890 O.2   300  SER300     -0.2866
    144  CB        35.2310   18.0170   48.5930 C.3   300  SER300      0.2089
    145  OG        36.1810   18.1210   49.6520 O.3   300  SER300     -0.2183
    146  N         38.4340   16.1070   49.3220 N.3   302  ASP302     -0.1239
    147  CA        38.1160   14.9790   50.1930 C.3   302  ASP302      0.1674
    148  C         36.8890   14.2490   49.6590 C.2   302  ASP302      0.2266
    149  O         35.7670   14.7330   49.7880 O.2   302  ASP302     -0.2867
    150  CB        37.8620   15.4470   51.6310 C.3   302  ASP302      0.1410
    151  CG        37.6940   14.2900   52.6120 C.2   302  ASP302      0.3668
    152  OD1       37.4640   13.1380   52.1820 O.co2 302  ASP302     -0.2456
    153  OD2       37.7830   14.5400   53.8300 O.co2 302  ASP302     -0.2456
    154  N         33.4770   13.8690   51.5740 N.3   305  ASP305     -0.1239
    155  CA        32.5250   14.9610   51.7970 C.3   305  ASP305      0.1674
    156  C         31.1470   14.5830   51.2410 C.2   305  ASP305      0.2266
    157  O         31.0510   13.9630   50.1840 O.2   305  ASP305     -0.2867
    158  CB        33.0030   16.2600   51.1510 C.3   305  ASP305      0.1410
    159  CG        34.0440   16.9870   51.9810 C.2   305  ASP305      0.3668
    160  OD1       34.4930   16.4280   53.0050 O.co2 305  ASP305     -0.2456
    161  OD2       34.4030   18.1240   51.6040 O.co2 305  ASP305     -0.2456
    162  N         28.7060   16.6350   50.3560 N.3   307  LYS307     -0.1245
    163  CA        28.2360   17.5800   49.3600 C.3   307  LYS307      0.1561
    164  C         29.4410   18.1580   48.6450 C.2   307  LYS307      0.2260
    165  O         30.5310   18.1750   49.2130 O.2   307  LYS307     -0.2867
    166  CB        27.4270   18.7010   50.0100 C.3   307  LYS307      0.0271
    167  CG        28.2040   19.5950   50.9660 C.3   307  LYS307      0.0035
    168  CD        27.2620   20.6750   51.4400 C.3   307  LYS307      0.0206
    169  CE        27.7060   21.3020   52.7670 C.3   307  LYS307      0.1093
    170  NZ        28.9840   21.9700   52.6580 N.3   307  LYS307     -0.1314
    171  N         31.7290   21.3190   47.1510 N.3   309  LEU309     -0.1245
    172  CA        32.1060   22.5910   47.7530 C.3   309  LEU309      0.1561
    173  C         31.2510   23.7540   47.2510 C.2   309  LEU309      0.2260
    174  O         31.1450   24.7850   47.9020 O.2   309  LEU309     -0.2867
    175  CB        33.5730   22.8880   47.4680 C.3   309  LEU309      0.0270
    176  CG        34.5240   21.7630   47.8790 C.3   309  LEU309      0.0019
    177  CD1       35.9310   22.1810   47.4880 C.3   309  LEU309      0.0001
    178  CD2       34.4370   21.5450   49.3630 C.3   309  LEU309      0.0001
@<TRIPOS>BOND
     1   135   134    2
     2   134   133    1
     3   133   132    1
     4   133   136    1
     5   101   102    1
     6   140   141    1
     7   143   142    2
     8    92    93    1
     9   102   105    1
    10   102   103    1
    11   142   141    1
    12   171   172    1
    13   136   137    1
    14   173   172    1
    15   173   174    2
    16   141   144    1
    17   105   106    1
    18   127   126    2
    19   175   172    1
    20   175   176    1
    21   177   176    1
    22    93    94    1
    23    93    96    1
    24   176   178    1
    25   103   104    2
    26   106   107    1
    27    94    95    2
    28   137   138    1
    29   126   125    1
    30   115   114    2
    31   144   145    1
    32   121   120    2
    33   164   165    2
    34   164   163    1
    35    97    96    1
    36    97    98    1
    37   112   113    1
    38   146   147    1
    39   163   166    1
    40   163   162    1
    41   107   108    1
    42   114   113    1
    43   114   118   am
    44   120   119    1
    45   120   124   am
    46   117   116    1
    47   148   149    2
    48   148   147    1
    49   125   124    1
    50   125   128    1
    51   138   139    1
    52    98    99    1
    53   166   167    1
    54   113   116    1
    55   119   118    1
    56   119   122    1
    57   157   156    2
    58   147   150    1
    59   108   109    2
    60   129   128    1
    61   129   131    1
    62    47    45   am
    63   110   109    1
    64   109   111    1
    65   128   130    1
    66   167   168    1
    67    46    45    2
    68   158   155    1
    69   158   159    1
    70    45    44    1
    71   156   155    1
    72    99   100    1
    73   122   123    1
    74   168   169    1
    75   154   155    1
    76   161   159   ar
    77   150   151    1
    78    88    87    2
    79   159   160   ar
    80   152   151   ar
    81    44    41    1
    82    90    89    1
    83    23    22    2
    84   151   153   ar
    85    86    87    1
    86    86    89    1
    87    86    85    1
    88   170   169    1
    89    91    89    1
    90    26    28   ar
    91    26    25   ar
    92    28    30   ar
    93    24    25    1
    94    24    21    1
    95    41    40    1
    96    41    42    1
    97    25    27   ar
    98    30    31    1
    99    30    29   ar
   100    22    21    1
   101    40    34   am
   102    27    29   ar
   103    32    33    1
   104    21    20    1
   105    34    35    2
   106    34    33    1
   107    42    43    2
   108    33    36    1
   109    18    15    1
   110    18    19    1
   111    15    14    1
   112    15    16    1
   113    17    16    2
   114    81    80    2
   115    14    12   am
   116    36    37    1
   117    73    72    2
   118    12    13    2
   119    12    11    1
   120    11    10    1
   121    80    79    1
   122    38    37    1
   123    69    68    1
   124    37    39    1
   125    72    71    1
   126    72    78   am
   127    79    78    1
   128    79    82    1
   129    10     3   am
   130    70    71    1
   131    70    66   am
   132    74    71    1
   133    74    75    1
   134    65    68    1
   135    65    66    1
   136    65    64    1
   137    77    75   ar
   138    78    84    1
   139    75    76   ar
   140    66    67    2
   141    82    83    1
   142     3     4    2
   143     3     2    1
   144    63    61   ar
   145    55    53   ar
   146     2     5    1
   147     2     1    1
   148     5     6    1
   149    84    83    1
   150     9     7   am
   151    48    49    1
   152    52    53    1
   153    52    49    1
   154    51    50    2
   155     6     7    1
   156    53    54   ar
   157    61    62   ar
   158    61    60    1
   159     7     8    2
   160    49    50    1
   161    60    57    1
   162    56    57    1
   163    57    58    1
   164    59    58    2
