@<TRIPOS>MOLECULE
tmp/4xj4A01.pdb
 141 131 0 0 0
SMALL
GASTEIGER

@<TRIPOS>ATOM
      1  N         11.9010  -30.7610  -24.1510 N.3   111  GLN111     -0.1245
      2  CA        12.3520  -31.0730  -22.8040 C.3   111  GLN111      0.1566
      3  C         12.6320  -29.7560  -22.1200 C.2   111  GLN111      0.2260
      4  O         12.4910  -28.7000  -22.7240 O.2   111  GLN111     -0.2867
      5  CB        13.6070  -31.9590  -22.8270 C.3   111  GLN111      0.0367
      6  CG        14.7700  -31.3480  -23.5820 C.3   111  GLN111      0.0905
      7  CD        15.9830  -32.2900  -23.6460 C.2   111  GLN111      0.2608
      8  OE1       17.0210  -32.0320  -23.0280 O.2   111  GLN111     -0.2717
      9  NE2       15.8380  -33.3990  -24.3630 N.am  111  GLN111     -0.0878
     10  N         15.7760  -20.1450  -23.5680 N.3   130  ASP130     -0.1239
     11  CA        15.8050  -21.1520  -24.6210 C.3   130  ASP130      0.1674
     12  C         14.7180  -22.1780  -24.5250 C.2   130  ASP130      0.2266
     13  O         14.0340  -22.3270  -23.5120 O.2   130  ASP130     -0.2867
     14  CB        17.1730  -21.8640  -24.7220 C.3   130  ASP130      0.1410
     15  CG        17.5760  -22.6420  -23.4660 C.2   130  ASP130      0.3668
     16  OD1       16.7380  -23.1540  -22.7180 O.co2 130  ASP130     -0.2456
     17  OD2       18.7940  -22.7980  -23.2650 O.co2 130  ASP130     -0.2456
     18  N         14.3220  -26.2000  -25.4930 N.3   132  ASP132     -0.1239
     19  CA        15.1040  -27.3970  -25.7530 C.3   132  ASP132      0.1674
     20  C         14.2400  -28.4140  -26.4730 C.2   132  ASP132      0.2266
     21  O         13.3630  -29.0340  -25.8570 O.2   132  ASP132     -0.2867
     22  CB        15.6260  -27.9830  -24.4450 C.3   132  ASP132      0.1410
     23  CG        16.3680  -26.9670  -23.6180 C.2   132  ASP132      0.3668
     24  OD1       17.5020  -26.6640  -24.0230 O.co2 132  ASP132     -0.2456
     25  OD2       15.8320  -26.5000  -22.5710 O.co2 132  ASP132     -0.2456
     26  N         27.4340  -27.6180  -29.6830 N.3   176  LYS176     -0.1231
     27  CA        27.7010  -27.9100  -28.2870 C.3   176  LYS176      0.1693
     28  C         27.9160  -29.4040  -28.1480 C.2   176  LYS176      0.2592
     29  O         27.6010  -30.1600  -29.0580 O.2   176  LYS176     -0.2718
     30  CB        26.5410  -27.4540  -27.3910 C.3   176  LYS176      0.0285
     31  CG        26.1870  -25.9840  -27.5080 C.3   176  LYS176      0.0035
     32  CD        27.3330  -25.1150  -27.0240 C.3   176  LYS176      0.0206
     33  CE        27.6360  -25.3770  -25.5520 C.3   176  LYS176      0.1093
     34  NZ        28.7110  -24.4880  -25.0180 N.3   176  LYS176     -0.1314
     35  N         28.4380  -29.8350  -27.0040 N.am  177  GLN177     -0.1966
     36  CA        28.6660  -31.2580  -26.8230 C.3   177  GLN177      0.1733
     37  C         27.3890  -32.0830  -26.9170 C.2   177  GLN177      0.2617
     38  O         27.4070  -33.1970  -27.4510 O.2   177  GLN177     -0.2715
     39  CB        29.3490  -31.5270  -25.4870 C.3   177  GLN177      0.0408
     40  CG        29.5420  -33.0130  -25.1540 C.3   177  GLN177      0.0908
     41  CD        30.4720  -33.7580  -26.1200 C.2   177  GLN177      0.2608
     42  OE1       30.8230  -33.2670  -27.1990 O.2   177  GLN177     -0.2717
     43  NE2       30.9040  -34.9450  -25.7070 N.am  177  GLN177     -0.0878
     44  N         26.2720  -31.5420  -26.4340 N.am  178  THR178     -0.1937
     45  CA        25.0350  -32.3380  -26.3910 C.3   178  THR178      0.2028
     46  C         23.9590  -31.8780  -27.3560 C.2   178  THR178      0.2642
     47  O         22.8680  -32.4580  -27.3950 O.2   178  THR178     -0.2714
     48  CB        24.4280  -32.3490  -24.9780 C.3   178  THR178      0.1808
     49  OG1       24.0770  -31.0110  -24.5940 O.3   178  THR178     -0.2208
     50  CG2       25.4380  -32.9030  -24.0060 C.3   178  THR178      0.0379
     51  N         24.2370  -30.8380  -28.1360 N.am  179  CYS179     -0.1967
     52  CA        23.1950  -30.3330  -29.0490 C.3   179  CYS179      0.1712
     53  C         23.7690  -29.4090  -30.1080 C.2   179  CYS179      0.2296
     54  O         24.8950  -28.9110  -29.9740 O.2   179  CYS179     -0.2864
     55  CB        22.1060  -29.5840  -28.2650 C.3   179  CYS179      0.0983
     56  SG        22.6510  -28.0340  -27.4590 S.3   179  CYS179     -0.0798
     57  N         22.7280  -25.7310  -31.7440 N.3   181  ARG181     -0.1245
     58  CA        21.9940  -24.5730  -31.2320 C.3   181  ARG181      0.1563
     59  C         21.8340  -23.4980  -32.3020 C.2   181  ARG181      0.2260
     60  O         22.7750  -23.1920  -33.0270 O.2   181  ARG181     -0.2867
     61  CB        22.7090  -24.0000  -30.0120 C.3   181  ARG181      0.0307
     62  CG        22.2100  -22.6350  -29.5270 C.3   181  ARG181      0.0489
     63  CD        22.9590  -22.2320  -28.2720 C.3   181  ARG181      0.2205
     64  NE        22.6560  -23.1310  -27.1630 N.pl3 181  ARG181     -0.0865
     65  CZ        23.2540  -23.0840  -25.9730 C.cat 181  ARG181      0.5346
     66  NH1       24.2060  -22.1890  -25.7380 N.pl3 181  ARG181      0.1354
     67  NH2       22.9020  -23.9320  -25.0160 N.pl3 181  ARG181      0.1354
     68  N         17.5070  -18.6870  -27.7930 N.3   190  HIS190     -0.1241
     69  CA        18.0690  -19.7280  -28.6390 C.3   190  HIS190      0.1621
     70  C         17.2510  -21.0120  -28.5620 C.2   190  HIS190      0.2264
     71  O         16.4430  -21.1930  -27.6410 O.2   190  HIS190     -0.2867
     72  CB        19.5490  -19.9850  -28.3250 C.3   190  HIS190      0.0745
     73  CG        19.8630  -20.2770  -26.8940 C.ar  190  HIS190      0.0817
     74  ND1       20.1920  -19.2930  -25.9900 N.ar  190  HIS190     -0.2268
     75  CD2       19.9730  -21.4510  -26.2270 C.ar  190  HIS190      0.1154
     76  CE1       20.4700  -19.8430  -24.8210 C.ar  190  HIS190      0.1986
     77  NE2       20.3420  -21.1530  -24.9390 N.ar  190  HIS190     -0.2212
     78  N         17.8210  -25.1240  -28.5900 N.3   192  ASP192     -0.1239
     79  CA        18.7710  -26.2390  -28.5100 C.3   192  ASP192      0.1674
     80  C         18.1660  -27.5330  -29.0310 C.2   192  ASP192      0.2266
     81  O         17.0430  -27.8910  -28.6780 O.2   192  ASP192     -0.2867
     82  CB        19.2150  -26.4580  -27.0800 C.3   192  ASP192      0.1410
     83  CG        20.0670  -25.3260  -26.5570 C.2   192  ASP192      0.3668
     84  OD1       20.4210  -24.4040  -27.3340 O.co2 192  ASP192     -0.2456
     85  OD2       20.3990  -25.3810  -25.3620 O.co2 192  ASP192     -0.2456
     86  N         19.1070  -31.3040  -28.9840 N.3   194  PRO194     -0.2116
     87  CA        19.7630  -32.5800  -28.6850 C.3   194  PRO194      0.1372
     88  C         19.2160  -33.6740  -29.5750 C.2   194  PRO194      0.2244
     89  O         18.0460  -33.5960  -29.9760 O.2   194  PRO194     -0.2868
     90  CB        19.3960  -32.8380  -27.2220 C.3   194  PRO194      0.0268
     91  CG        18.0950  -32.1020  -27.0270 C.3   194  PRO194      0.0207
     92  CD        18.1760  -30.8850  -27.9160 C.3   194  PRO194      0.0892
     93  N         18.6440  -37.8990  -30.1800 N.3   196  TYR196     -0.1241
     94  CA        18.5950  -39.1800  -29.4810 C.3   196  TYR196      0.1605
     95  C         18.3620  -40.3210  -30.4400 C.2   196  TYR196      0.2264
     96  O         17.6260  -40.1640  -31.3890 O.2   196  TYR196     -0.2867
     97  CB        17.4720  -39.2220  -28.4400 C.3   196  TYR196      0.0534
     98  CG        17.5750  -38.1740  -27.3630 C.ar  196  TYR196     -0.0201
     99  CD1       17.0670  -36.8970  -27.5610 C.ar  196  TYR196     -0.0009
    100  CD2       18.2030  -38.4530  -26.1600 C.ar  196  TYR196     -0.0009
    101  CE1       17.1650  -35.9280  -26.5890 C.ar  196  TYR196      0.0417
    102  CE2       18.3030  -37.4910  -25.1710 C.ar  196  TYR196      0.0417
    103  CZ        17.8030  -36.2250  -25.3940 C.ar  196  TYR196      0.1957
    104  OH        17.9080  -35.2550  -24.4090 O.3   196  TYR196     -0.2866
    105  N         21.4210  -40.4400  -25.9460 N.3   207  LEU207     -0.1245
    106  CA        21.8000  -39.0950  -26.3380 C.3   207  LEU207      0.1561
    107  C         23.0970  -39.1060  -27.1270 C.2   207  LEU207      0.2260
    108  O         24.0960  -39.6980  -26.6960 O.2   207  LEU207     -0.2867
    109  CB        21.9650  -38.2130  -25.0920 C.3   207  LEU207      0.0270
    110  CG        22.4990  -36.8010  -25.3400 C.3   207  LEU207      0.0019
    111  CD1       21.4710  -35.9580  -26.0510 C.3   207  LEU207      0.0001
    112  CD2       22.8850  -36.1480  -24.0180 C.3   207  LEU207      0.0001
    113  N         25.4240  -41.5910  -24.8640 N.3   217  ILE217     -0.1245
    114  CA        25.2070  -41.9420  -23.4620 C.3   217  ILE217      0.1561
    115  C         23.7210  -42.1960  -23.2200 C.2   217  ILE217      0.2260
    116  O         22.8720  -41.5390  -23.8160 O.2   217  ILE217     -0.2867
    117  CB        25.6830  -40.8450  -22.4960 C.3   217  ILE217      0.0252
    118  CG1       25.0630  -39.5020  -22.8870 C.3   217  ILE217      0.0019
    119  CG2       27.2050  -40.7890  -22.4660 C.3   217  ILE217      0.0019
    120  CD1       25.2380  -38.4140  -21.8630 C.3   217  ILE217      0.0001
    121  N         20.6670  -41.5100  -21.6660 N.3   219  SER219     -0.1217
    122  CA        20.0780  -40.3980  -20.9290 C.3   219  SER219      0.1889
    123  C         18.6900  -40.0930  -21.4610 C.2   219  SER219      0.2288
    124  O         18.5550  -39.4050  -22.4640 O.2   219  SER219     -0.2866
    125  CB        20.9600  -39.1480  -21.0330 C.3   219  SER219      0.2089
    126  OG        20.4610  -38.0940  -20.2110 O.3   219  SER219     -0.2183
    127  N         15.4940  -38.0830  -21.3260 N.3   221  PRO221     -0.2116
    128  CA        15.0090  -36.8280  -20.7270 C.3   221  PRO221      0.1372
    129  C         13.6380  -36.9830  -20.0800 C.2   221  PRO221      0.2244
    130  O         13.3000  -36.1600  -19.2370 O.2   221  PRO221     -0.2868
    131  CB        14.9380  -35.8660  -21.9180 C.3   221  PRO221      0.0268
    132  CG        14.8020  -36.7380  -23.1180 C.3   221  PRO221      0.0207
    133  CD        15.5170  -38.0250  -22.8070 C.3   221  PRO221      0.0892
    134  N         22.4600  -42.2260  -13.5880 N.3   308  ASP308     -0.1239
    135  CA        23.5080  -41.2310  -13.7970 C.3   308  ASP308      0.1674
    136  C         24.2680  -41.0200  -12.5090 C.2   308  ASP308      0.2266
    137  O         23.7540  -40.4090  -11.5540 O.2   308  ASP308     -0.2867
    138  CB        22.9240  -39.8940  -14.2670 C.3   308  ASP308      0.1410
    139  CG        23.9930  -38.9050  -14.7290 C.2   308  ASP308      0.3668
    140  OD1       25.2060  -39.2050  -14.6210 O.co2 308  ASP308     -0.2456
    141  OD2       23.6110  -37.8080  -15.1960 O.co2 308  ASP308     -0.2456
@<TRIPOS>BOND
     1    60    59    2
     2    59    58    1
     3    57    58    1
     4    96    95    2
     5    58    61    1
     6    95    94    1
     7    93    94    1
     8    53    54    2
     9    53    52    1
    10    61    62    1
    11    89    88    2
    12    26    27    1
    13    88    87    1
    14    62    63    1
    15    94    97    1
    16    29    28    2
    17    52    55    1
    18    52    51    1
    19    80    81    2
    20    80    79    1
    21    86    87    1
    22    86    92    1
    23    87    90    1
    24    69    70    1
    25    69    72    1
    26    69    68    1
    27    78    79    1
    28    70    71    2
    29    79    82    1
    30    97    98    1
    31    72    73    1
    32    27    28    1
    33    27    30    1
    34    63    64    1
    35    55    56    1
    36    28    35   am
    37    51    46   am
    38    92    91    1
    39    99    98   ar
    40    99   101   ar
    41    31    30    1
    42    31    32    1
    43    38    37    2
    44    47    46    2
    45    98   100   ar
    46    46    45    1
    47    84    83   ar
    48    90    91    1
    49    42    41    2
    50    64    65    2
    51   107   108    2
    52   107   106    1
    53    82    83    1
    54    32    33    1
    55    35    36    1
    56    37    36    1
    57    37    44   am
    58    73    75   ar
    59    73    74   ar
    60    36    39    1
    61   101   103   ar
    62    83    85   ar
    63    20    21    2
    64    20    19    1
    65    44    45    1
    66    45    48    1
    67   106   105    1
    68   106   109    1
    69    75    77   ar
    70   100   102   ar
    71    41    43   am
    72    41    40    1
    73   111   110    1
    74    74    76   ar
    75    65    66    1
    76    65    67    1
    77    19    18    1
    78    19    22    1
    79    33    34    1
    80    39    40    1
    81   103   102   ar
    82   103   104    1
    83   110   109    1
    84   110   112    1
    85    48    49    1
    86    48    50    1
    87    77    76   ar
    88   113   114    1
    89    14    11    1
    90    14    15    1
    91    11    12    1
    92    11    10    1
    93    12    13    2
    94    22    23    1
    95     9     7   am
    96     1     2    1
    97    24    23   ar
    98   116   115    2
    99     7     6    1
   100     7     8    2
   101    23    25   ar
   102     6     5    1
   103    15    17   ar
   104    15    16   ar
   105   114   115    1
   106   114   117    1
   107   132   133    1
   108   132   131    1
   109   118   117    1
   110   118   120    1
   111     5     2    1
   112   133   127    1
   113     2     3    1
   114     4     3    2
   115   117   119    1
   116   124   123    2
   117   131   128    1
   118   121   122    1
   119   123   122    1
   120   127   128    1
   121   125   122    1
   122   125   126    1
   123   128   129    1
   124   129   130    2
   125   141   139   ar
   126   139   140   ar
   127   139   138    1
   128   138   135    1
   129   135   134    1
   130   135   136    1
   131   136   137    2
