@<TRIPOS>MOLECULE
tmp/4xj4A00.pdb
 188 173 0 0 0
SMALL
GASTEIGER

@<TRIPOS>ATOM
      1  N         11.9010  -30.7610  -24.1510 N.3   111  GLN111     -0.1231
      2  CA        12.3520  -31.0730  -22.8040 C.3   111  GLN111      0.1698
      3  C         12.6320  -29.7560  -22.1200 C.2   111  GLN111      0.2593
      4  O         12.4910  -28.7000  -22.7240 O.2   111  GLN111     -0.2718
      5  CB        13.6070  -31.9590  -22.8270 C.3   111  GLN111      0.0381
      6  CG        14.7700  -31.3480  -23.5820 C.3   111  GLN111      0.0905
      7  CD        15.9830  -32.2900  -23.6460 C.2   111  GLN111      0.2608
      8  OE1       17.0210  -32.0320  -23.0280 O.2   111  GLN111     -0.2717
      9  NE2       15.8380  -33.3990  -24.3630 N.am  111  GLN111     -0.0878
     10  N         13.0160  -29.8070  -20.8530 N.am  112  GLY112     -0.1942
     11  CA        13.4750  -28.5960  -20.1970 C.3   112  GLY112      0.2014
     12  C         12.3520  -27.6700  -19.7780 C.2   112  GLY112      0.2639
     13  O         11.1950  -28.0700  -19.7310 O.2   112  GLY112     -0.2714
     14  N         12.7110  -26.4300  -19.4510 N.am  113  SER113     -0.1949
     15  CA        11.7860  -25.5540  -18.7670 C.3   113  SER113      0.1924
     16  C         10.6120  -25.1270  -19.6360 C.2   113  SER113      0.2314
     17  O          9.5900  -24.7330  -19.0870 O.2   113  SER113     -0.2863
     18  CB        12.5170  -24.3200  -18.2120 C.3   113  SER113      0.2116
     19  OG        13.1480  -23.5730  -19.2370 O.3   113  SER113     -0.2180
     20  N          8.1490  -28.2650  -18.7610 N.3   116  TYR116     -0.1241
     21  CA         7.4690  -28.3070  -17.4760 C.3   116  TYR116      0.1605
     22  C          7.2720  -26.9230  -16.8450 C.2   116  TYR116      0.2264
     23  O          7.0900  -26.7980  -15.6300 O.2   116  TYR116     -0.2867
     24  CB         8.2030  -29.2440  -16.5320 C.3   116  TYR116      0.0534
     25  CG         9.7090  -29.2630  -16.6760 C.ar  116  TYR116     -0.0201
     26  CD1       10.4650  -28.2010  -16.2230 C.ar  116  TYR116     -0.0009
     27  CD2       10.3690  -30.3840  -17.1820 C.ar  116  TYR116     -0.0009
     28  CE1       11.8590  -28.2290  -16.3140 C.ar  116  TYR116      0.0417
     29  CE2       11.7580  -30.4210  -17.2900 C.ar  116  TYR116      0.0417
     30  CZ        12.4860  -29.3310  -16.8360 C.ar  116  TYR116      0.1957
     31  OH        13.8440  -29.3180  -16.9010 O.3   116  TYR116     -0.2866
     32  N          8.7930  -23.7320  -16.4260 N.3   118  THR118     -0.1203
     33  CA         9.6060  -22.9800  -15.4670 C.3   118  THR118      0.1994
     34  C         10.5350  -22.0460  -16.2270 C.2   118  THR118      0.2618
     35  O         11.5870  -21.6280  -15.7010 O.2   118  THR118     -0.2717
     36  CB        10.4440  -23.9080  -14.5790 C.3   118  THR118      0.1784
     37  OG1       11.1900  -24.7810  -15.4350 O.3   118  THR118     -0.2211
     38  CG2        9.5600  -24.7510  -13.6470 C.3   118  THR118      0.0376
     39  N         10.1710  -21.6950  -17.4620 N.am  119  LEU119     -0.1965
     40  CA        11.0600  -20.8590  -18.2910 C.3   119  LEU119      0.1728
     41  C         10.8950  -19.3800  -17.9310 C.2   119  LEU119      0.2616
     42  O          9.7960  -18.8080  -18.0590 O.2   119  LEU119     -0.2715
     43  CB        10.7760  -21.0830  -19.7780 C.3   119  LEU119      0.0311
     44  CG        11.5550  -20.2020  -20.7470 C.3   119  LEU119      0.0022
     45  CD1       13.0740  -20.3530  -20.5890 C.3   119  LEU119      0.0001
     46  CD2       11.1520  -20.5100  -22.1960 C.3   119  LEU119      0.0001
     47  N         11.9840  -18.7760  -17.4360 N.am  120  ASN120     -0.1972
     48  CA        11.9670  -17.3650  -17.0360 C.3   120  ASN120      0.1688
     49  C         12.3750  -16.4190  -18.1600 C.2   120  ASN120      0.2292
     50  O         13.2500  -16.7440  -18.9800 O.2   120  ASN120     -0.2864
     51  CB        12.9320  -17.0960  -15.8730 C.3   120  ASN120      0.1181
     52  CG        12.5110  -17.7520  -14.5670 C.2   120  ASN120      0.2629
     53  OD1       11.3200  -17.9670  -14.2990 O.2   120  ASN120     -0.2716
     54  ND2       13.4860  -18.0120  -13.6970 N.am  120  ASN120     -0.0877
     55  N         15.7760  -20.1450  -23.5680 N.3   130  ASP130     -0.1239
     56  CA        15.8050  -21.1520  -24.6210 C.3   130  ASP130      0.1674
     57  C         14.7180  -22.1780  -24.5250 C.2   130  ASP130      0.2266
     58  O         14.0340  -22.3270  -23.5120 O.2   130  ASP130     -0.2867
     59  CB        17.1730  -21.8640  -24.7220 C.3   130  ASP130      0.1410
     60  CG        17.5760  -22.6420  -23.4660 C.2   130  ASP130      0.3668
     61  OD1       16.7380  -23.1540  -22.7180 O.co2 130  ASP130     -0.2456
     62  OD2       18.7940  -22.7980  -23.2650 O.co2 130  ASP130     -0.2456
     63  N         14.3220  -26.2000  -25.4930 N.3   132  ASP132     -0.1239
     64  CA        15.1040  -27.3970  -25.7530 C.3   132  ASP132      0.1674
     65  C         14.2400  -28.4140  -26.4730 C.2   132  ASP132      0.2266
     66  O         13.3630  -29.0340  -25.8570 O.2   132  ASP132     -0.2867
     67  CB        15.6260  -27.9830  -24.4450 C.3   132  ASP132      0.1410
     68  CG        16.3680  -26.9670  -23.6180 C.2   132  ASP132      0.3668
     69  OD1       17.5020  -26.6640  -24.0230 O.co2 132  ASP132     -0.2456
     70  OD2       15.8320  -26.5000  -22.5710 O.co2 132  ASP132     -0.2456
     71  N         17.8210  -25.1240  -28.5900 N.3   192  ASP192     -0.1239
     72  CA        18.7710  -26.2390  -28.5100 C.3   192  ASP192      0.1674
     73  C         18.1660  -27.5330  -29.0310 C.2   192  ASP192      0.2266
     74  O         17.0430  -27.8910  -28.6780 O.2   192  ASP192     -0.2867
     75  CB        19.2150  -26.4580  -27.0800 C.3   192  ASP192      0.1410
     76  CG        20.0670  -25.3260  -26.5570 C.2   192  ASP192      0.3668
     77  OD1       20.4210  -24.4040  -27.3340 O.co2 192  ASP192     -0.2456
     78  OD2       20.3990  -25.3810  -25.3620 O.co2 192  ASP192     -0.2456
     79  N         18.6440  -37.8990  -30.1800 N.3   196  TYR196     -0.1241
     80  CA        18.5950  -39.1800  -29.4810 C.3   196  TYR196      0.1605
     81  C         18.3620  -40.3210  -30.4400 C.2   196  TYR196      0.2264
     82  O         17.6260  -40.1640  -31.3890 O.2   196  TYR196     -0.2867
     83  CB        17.4720  -39.2220  -28.4400 C.3   196  TYR196      0.0534
     84  CG        17.5750  -38.1740  -27.3630 C.ar  196  TYR196     -0.0201
     85  CD1       17.0670  -36.8970  -27.5610 C.ar  196  TYR196     -0.0009
     86  CD2       18.2030  -38.4530  -26.1600 C.ar  196  TYR196     -0.0009
     87  CE1       17.1650  -35.9280  -26.5890 C.ar  196  TYR196      0.0417
     88  CE2       18.3030  -37.4910  -25.1710 C.ar  196  TYR196      0.0417
     89  CZ        17.8030  -36.2250  -25.3940 C.ar  196  TYR196      0.1957
     90  OH        17.9080  -35.2550  -24.4090 O.3   196  TYR196     -0.2866
     91  N         20.6670  -41.5100  -21.6660 N.3   219  SER219     -0.1217
     92  CA        20.0780  -40.3980  -20.9290 C.3   219  SER219      0.1889
     93  C         18.6900  -40.0930  -21.4610 C.2   219  SER219      0.2288
     94  O         18.5550  -39.4050  -22.4640 O.2   219  SER219     -0.2866
     95  CB        20.9600  -39.1480  -21.0330 C.3   219  SER219      0.2089
     96  OG        20.4610  -38.0940  -20.2110 O.3   219  SER219     -0.2183
     97  N         15.4940  -38.0830  -21.3260 N.3   221  PRO221     -0.2116
     98  CA        15.0090  -36.8280  -20.7270 C.3   221  PRO221      0.1372
     99  C         13.6380  -36.9830  -20.0800 C.2   221  PRO221      0.2244
    100  O         13.3000  -36.1600  -19.2370 O.2   221  PRO221     -0.2868
    101  CB        14.9380  -35.8660  -21.9180 C.3   221  PRO221      0.0268
    102  CG        14.8020  -36.7380  -23.1180 C.3   221  PRO221      0.0207
    103  CD        15.5170  -38.0250  -22.8070 C.3   221  PRO221      0.0892
    104  N         13.5470  -37.1270  -16.1940 N.3   224  VAL224     -0.1245
    105  CA        13.5220  -35.8410  -15.4840 C.3   224  VAL224      0.1561
    106  C         12.1480  -35.2110  -15.5640 C.2   224  VAL224      0.2260
    107  O         11.6360  -34.6990  -14.5660 O.2   224  VAL224     -0.2867
    108  CB        14.5780  -34.8660  -16.0300 C.3   224  VAL224      0.0252
    109  CG1       14.3540  -33.4550  -15.4740 C.3   224  VAL224      0.0019
    110  CG2       15.9560  -35.3390  -15.6230 C.3   224  VAL224      0.0019
    111  N         16.0190  -19.9350   -9.9560 N.3   247  LYS247     -0.1245
    112  CA        16.6720  -19.6300  -11.2340 C.3   247  LYS247      0.1561
    113  C         16.8150  -18.1230  -11.4530 C.2   247  LYS247      0.2260
    114  O         17.8330  -17.6690  -12.0160 O.2   247  LYS247     -0.2867
    115  CB        15.9010  -20.2800  -12.3940 C.3   247  LYS247      0.0271
    116  CG        15.9950  -21.7760  -12.3190 C.3   247  LYS247      0.0035
    117  CD        14.9420  -22.4810  -13.1770 C.3   247  LYS247      0.0206
    118  CE        15.0960  -22.1200  -14.6260 C.3   247  LYS247      0.1093
    119  NZ        14.0350  -22.8310  -15.4690 N.3   247  LYS247     -0.1314
    120  N         19.7650  -17.0590   -9.5410 N.3   250  ARG250     -0.1245
    121  CA        20.9930  -17.4740  -10.2520 C.3   250  ARG250      0.1563
    122  C         21.2990  -16.4760  -11.3930 C.2   250  ARG250      0.2260
    123  O         22.4500  -16.0440  -11.5790 O.2   250  ARG250     -0.2867
    124  CB        20.7850  -18.9030  -10.7680 C.3   250  ARG250      0.0307
    125  CG        21.9980  -19.5630  -11.4260 C.3   250  ARG250      0.0489
    126  CD        22.0140  -19.4190  -12.9300 C.3   250  ARG250      0.2205
    127  NE        20.6970  -19.4860  -13.6060 N.pl3 250  ARG250     -0.0865
    128  CZ        20.0610  -20.5970  -13.9870 C.cat 250  ARG250      0.5346
    129  NH1       20.5500  -21.8110  -13.7520 N.pl3 250  ARG250      0.1354
    130  NH2       18.8720  -20.4820  -14.5930 N.pl3 250  ARG250      0.1354
    131  N         23.5430  -25.1600  -12.3800 N.3   260  SER260     -0.1202
    132  CA        22.6080  -25.5000  -13.4500 C.3   260  SER260      0.2020
    133  C         21.1770  -25.4130  -12.9570 C.2   260  SER260      0.2619
    134  O         20.9070  -25.5560  -11.7770 O.2   260  SER260     -0.2717
    135  CB        22.8760  -26.8800  -13.9680 C.3   260  SER260      0.2103
    136  OG        22.5800  -27.8410  -12.9710 O.3   260  SER260     -0.2182
    137  N         20.2620  -25.1670  -13.8770 N.am  261  SER261     -0.1937
    138  CA        18.8640  -25.1650  -13.5130 C.3   261  SER261      0.2055
    139  C         18.4300  -26.5100  -12.9020 C.2   261  SER261      0.2642
    140  O         17.6660  -26.5160  -11.9200 O.2   261  SER261     -0.2714
    141  CB        18.0450  -24.8090  -14.7620 C.3   261  SER261      0.2130
    142  OG        18.3390  -23.4430  -15.0460 O.3   261  SER261     -0.2179
    143  N         18.8960  -27.6140  -13.4540 N.am  262  ILE262     -0.1977
    144  CA        18.4620  -28.9250  -12.9830 C.3   262  ILE262      0.1596
    145  C         19.0430  -29.1830  -11.5750 C.2   262  ILE262      0.2287
    146  O         18.3950  -29.8140  -10.7410 O.2   262  ILE262     -0.2864
    147  CB        18.8270  -30.0560  -13.9630 C.3   262  ILE262      0.0276
    148  CG1       18.2110  -31.3940  -13.5280 C.3   262  ILE262      0.0022
    149  CG2       20.3730  -30.1920  -14.1210 C.3   262  ILE262      0.0022
    150  CD1       18.3540  -32.5110  -14.5760 C.3   262  ILE262      0.0001
    151  N         16.7260  -27.3670   -9.2350 N.3   265  MET265     -0.1245
    152  CA        15.4420  -28.0770   -9.1030 C.3   265  MET265      0.1570
    153  C         15.6030  -29.2820   -8.1730 C.2   265  MET265      0.2261
    154  O         14.7430  -29.5250   -7.3020 O.2   265  MET265     -0.2867
    155  CB        14.9260  -28.5340  -10.4650 C.3   265  MET265      0.0387
    156  CG        14.6080  -27.4020  -11.3870 C.3   265  MET265      0.0595
    157  SD        14.5050  -28.0160  -13.0930 S.3   265  MET265     -0.1393
    158  CE        13.2090  -29.2470  -12.9240 C.3   265  MET265      0.0692
    159  N         21.6430  -36.4700   -9.4640 N.3   303  SER303     -0.1217
    160  CA        20.6060  -36.4810  -10.4830 C.3   303  SER303      0.1889
    161  C         19.4070  -37.3330  -10.0680 C.2   303  SER303      0.2288
    162  O         19.5590  -38.4000   -9.4520 O.2   303  SER303     -0.2866
    163  CB        21.1550  -37.0220  -11.8120 C.3   303  SER303      0.2089
    164  OG        20.1040  -37.0490  -12.7710 O.3   303  SER303     -0.2183
    165  N         17.9160  -38.9750  -12.1350 N.3   305  ASP305     -0.1239
    166  CA        18.1550  -40.2120  -12.8730 C.3   305  ASP305      0.1674
    167  C         19.2050  -41.0330  -12.1090 C.2   305  ASP305      0.2266
    168  O         20.3980  -40.7170  -12.1190 O.2   305  ASP305     -0.2867
    169  CB        18.5890  -39.9030  -14.3050 C.3   305  ASP305      0.1410
    170  CG        18.9160  -41.1580  -15.1150 C.2   305  ASP305      0.3668
    171  OD1       18.7270  -42.2920  -14.6190 O.co2 305  ASP305     -0.2456
    172  OD2       19.3420  -40.9990  -16.2730 O.co2 305  ASP305     -0.2456
    173  N         22.4600  -42.2260  -13.5880 N.3   308  ASP308     -0.1239
    174  CA        23.5080  -41.2310  -13.7970 C.3   308  ASP308      0.1674
    175  C         24.2680  -41.0200  -12.5090 C.2   308  ASP308      0.2266
    176  O         23.7540  -40.4090  -11.5540 O.2   308  ASP308     -0.2867
    177  CB        22.9240  -39.8940  -14.2670 C.3   308  ASP308      0.1410
    178  CG        23.9930  -38.9050  -14.7290 C.2   308  ASP308      0.3668
    179  OD1       25.2060  -39.2050  -14.6210 O.co2 308  ASP308     -0.2456
    180  OD2       23.6110  -37.8080  -15.1960 O.co2 308  ASP308     -0.2456
    181  N         24.9660  -33.5460  -10.4240 N.3   312  LEU312     -0.1245
    182  CA        24.5440  -32.3090  -11.0640 C.3   312  LEU312      0.1561
    183  C         25.4060  -31.1310  -10.5930 C.2   312  LEU312      0.2260
    184  O         25.5070  -30.1160  -11.2650 O.2   312  LEU312     -0.2867
    185  CB        23.0620  -32.0520  -10.7500 C.3   312  LEU312      0.0270
    186  CG        22.1050  -33.1200  -11.2520 C.3   312  LEU312      0.0019
    187  CD1       20.6700  -32.7770  -10.8320 C.3   312  LEU312      0.0001
    188  CD2       22.2230  -33.2550  -12.7750 C.3   312  LEU312      0.0001
@<TRIPOS>BOND
     1    82    81    2
     2    81    80    1
     3    79    80    1
     4    80    83    1
     5    73    74    2
     6    73    72    1
     7    71    72    1
     8    72    75    1
     9    83    84    1
    10    85    84   ar
    11    85    87   ar
    12    84    86   ar
    13    77    76   ar
    14    75    76    1
    15    87    89   ar
    16    76    78   ar
    17    65    66    2
    18    65    64    1
    19    86    88   ar
    20    64    63    1
    21    64    67    1
    22    89    88   ar
    23    89    90    1
    24    59    56    1
    25    59    60    1
    26    56    57    1
    27    56    55    1
    28    57    58    2
    29    67    68    1
    30     9     7   am
    31     1     2    1
    32    69    68   ar
    33     7     6    1
    34     7     8    2
    35    68    70   ar
    36     6     5    1
    37    60    62   ar
    38    60    61   ar
    39   102   103    1
    40   102   101    1
    41     5     2    1
    42   103    97    1
    43     2     3    1
    44     4     3    2
    45    94    93    2
    46    46    44    1
    47     3    10   am
    48   101    98    1
    49    91    92    1
    50    93    92    1
    51    97    98    1
    52    95    92    1
    53    95    96    1
    54    10    11    1
    55    44    45    1
    56    44    43    1
    57    98    99    1
    58    11    12    1
    59    99   100    2
    60    43    40    1
    61    12    13    2
    62    12    14   am
    63    16    17    2
    64    16    15    1
    65    14    15    1
    66    19    18    1
    67    50    49    2
    68    15    18    1
    69    20    21    1
    70    40    41    1
    71    40    39    1
    72    49    48    1
    73    42    41    2
    74    41    47   am
    75    21    22    1
    76    21    24    1
    77    39    34   am
    78    47    48    1
    79    29    27   ar
    80    29    30   ar
    81    27    25   ar
    82    48    51    1
    83    31    30    1
    84    22    23    2
    85    30    28   ar
    86    25    24    1
    87    25    26   ar
    88    32    33    1
    89    28    26   ar
    90   172   170   ar
    91    34    35    2
    92    34    33    1
    93   104   105    1
    94   108   110    1
    95   108   105    1
    96   108   109    1
    97    51    52    1
    98   106   105    1
    99   106   107    2
   100   119   118    1
   101    33    36    1
   102    37    36    1
   103   180   178   ar
   104   170   171   ar
   105   170   169    1
   106   142   141    1
   107   141   138    1
   108   178   179   ar
   109   178   177    1
   110   118   117    1
   111   130   128    1
   112    36    38    1
   113   150   148    1
   114    52    53    2
   115    52    54   am
   116   169   166    1
   117   177   174    1
   118   149   147    1
   119   128   129    1
   120   128   127    2
   121   135   132    1
   122   135   136    1
   123   147   148    1
   124   147   144    1
   125   137   138    1
   126   137   133   am
   127   174   173    1
   128   174   175    1
   129   127   126    1
   130   138   139    1
   131   143   144    1
   132   143   139   am
   133   132   133    1
   134   132   131    1
   135   117   116    1
   136   157   158    1
   137   157   156    1
   138   144   145    1
   139   133   134    2
   140   126   125    1
   141   139   140    2
   142   166   165    1
   143   166   167    1
   144   188   186    1
   145   164   163    1
   146   175   176    2
   147   115   116    1
   148   115   112    1
   149   168   167    2
   150   114   113    2
   151   163   160    1
   152   123   122    2
   153   145   146    2
   154   113   112    1
   155   125   124    1
   156   122   121    1
   157   156   155    1
   158   184   183    2
   159   186   187    1
   160   186   185    1
   161   112   111    1
   162   182   185    1
   163   182   183    1
   164   182   181    1
   165   124   121    1
   166   160   161    1
   167   160   159    1
   168   155   152    1
   169   121   120    1
   170   161   162    2
   171   151   152    1
   172   152   153    1
   173   153   154    2
