@<TRIPOS>MOLECULE
tmp/4xj5A00.pdb
 114 104 0 0 0
SMALL
GASTEIGER

@<TRIPOS>ATOM
      1  N         44.8090   23.7550   60.5200 N.3   111  GLN111     -0.1245
      2  CA        44.3880   23.3830   59.1590 C.3   111  GLN111      0.1566
      3  C         44.0740   24.6580   58.4180 C.2   111  GLN111      0.2260
      4  O         44.1310   25.7300   58.9960 O.2   111  GLN111     -0.2867
      5  CB        43.1690   22.4540   59.2050 C.3   111  GLN111      0.0367
      6  CG        41.8870   23.0930   59.7890 C.3   111  GLN111      0.0905
      7  CD        40.8080   22.0700   60.1110 C.2   111  GLN111      0.2608
      8  OE1       40.9760   21.2790   61.0330 O.2   111  GLN111     -0.2717
      9  NE2       39.6890   22.0950   59.3770 N.am  111  GLN111     -0.0878
     10  N         40.9370   34.4290   59.5370 N.3   130  ASP130     -0.1239
     11  CA        40.5090   33.1510   60.1100 C.3   130  ASP130      0.1674
     12  C         41.7170   32.2640   60.4360 C.2   130  ASP130      0.2266
     13  O         42.6050   32.0900   59.6080 O.2   130  ASP130     -0.2867
     14  CB        39.5690   32.4680   59.0970 C.3   130  ASP130      0.1410
     15  CG        39.0650   31.1210   59.5490 C.2   130  ASP130      0.3668
     16  OD1       38.5830   31.0010   60.6950 O.co2 130  ASP130     -0.2456
     17  OD2       39.1460   30.1760   58.7490 O.co2 130  ASP130     -0.2456
     18  N         42.2310   28.3430   61.6500 N.3   132  ASP132     -0.1239
     19  CA        41.5410   27.0810   61.9200 C.3   132  ASP132      0.1674
     20  C         42.4460   26.1770   62.7320 C.2   132  ASP132      0.2266
     21  O         43.3260   25.5290   62.1930 O.2   132  ASP132     -0.2867
     22  CB        41.1700   26.3950   60.6090 C.3   132  ASP132      0.1410
     23  CG        40.2690   27.2350   59.7480 C.2   132  ASP132      0.3668
     24  OD1       39.0670   27.2820   60.0020 O.co2 132  ASP132     -0.2456
     25  OD2       40.7350   27.8210   58.7400 O.co2 132  ASP132     -0.2456
     26  N         29.3790   26.9160   66.2320 N.3   171  LYS171     -0.1245
     27  CA        29.1050   26.5060   64.8680 C.3   171  LYS171      0.1561
     28  C         28.9270   24.9990   64.8120 C.2   171  LYS171      0.2260
     29  O         29.2750   24.2700   65.7540 O.2   171  LYS171     -0.2867
     30  CB        30.2270   26.9400   63.9280 C.3   171  LYS171      0.0271
     31  CG        30.7990   28.3150   64.2430 C.3   171  LYS171      0.0035
     32  CD        30.2330   29.3610   63.3370 C.3   171  LYS171      0.0206
     33  CE        30.6680   29.1010   61.9020 C.3   171  LYS171      0.1093
     34  NZ        29.9020   29.9380   60.9570 N.3   171  LYS171     -0.1314
     35  N         30.5000   22.8530   63.1080 N.3   173  THR173     -0.1203
     36  CA        31.7610   22.1300   62.9690 C.3   173  THR173      0.1994
     37  C         32.8370   22.6430   63.9110 C.2   173  THR173      0.2618
     38  O         33.9500   22.1190   63.9190 O.2   173  THR173     -0.2717
     39  CB        32.3080   22.2100   61.5200 C.3   173  THR173      0.1784
     40  OG1       32.5540   23.5760   61.1850 O.3   173  THR173     -0.2211
     41  CG2       31.2830   21.6460   60.5430 C.3   173  THR173      0.0376
     42  N         32.5180   23.6570   64.7110 N.am  174  CYS174     -0.1969
     43  CA        33.5190   24.1820   65.6290 C.3   174  CYS174      0.1712
     44  C         32.9560   25.1880   66.6130 C.2   174  CYS174      0.2296
     45  O         31.8730   25.7090   66.4280 O.2   174  CYS174     -0.2864
     46  CB        34.6600   24.8420   64.8570 C.3   174  CYS174      0.0983
     47  SG        34.2030   26.3500   63.9580 S.3   174  CYS174     -0.0798
     48  N         33.9970   28.9980   67.9850 N.3   176  ARG176     -0.1245
     49  CA        34.7040   30.1180   67.3830 C.3   176  ARG176      0.1563
     50  C         34.8800   31.2470   68.3800 C.2   176  ARG176      0.2260
     51  O         33.9280   31.5830   69.1040 O.2   176  ARG176     -0.2867
     52  CB        33.9380   30.6100   66.1700 C.3   176  ARG176      0.0307
     53  CG        34.4760   31.9210   65.5820 C.3   176  ARG176      0.0489
     54  CD        33.7500   32.3110   64.2970 C.3   176  ARG176      0.2205
     55  NE        34.0520   31.3950   63.1960 N.pl3 176  ARG176     -0.0865
     56  CZ        33.6990   31.5980   61.9310 C.cat 176  ARG176      0.5346
     57  NH1       33.0320   32.6920   61.5850 N.pl3 176  ARG176      0.1354
     58  NH2       34.0220   30.7110   61.0110 N.pl3 176  ARG176      0.1354
     59  N         38.7610   29.4580   64.7910 N.3   187  ASP187     -0.1239
     60  CA        37.8810   28.2920   64.8030 C.3   187  ASP187      0.1674
     61  C         38.5680   27.0960   65.4010 C.2   187  ASP187      0.2266
     62  O         39.7350   26.8110   65.0960 O.2   187  ASP187     -0.2867
     63  CB        37.4550   27.9370   63.3830 C.3   187  ASP187      0.1410
     64  CG        36.3820   28.8510   62.8480 C.2   187  ASP187      0.3668
     65  OD1       35.6770   29.5080   63.6430 O.co2 187  ASP187     -0.2456
     66  OD2       36.2390   28.9010   61.6130 O.co2 187  ASP187     -0.2456
     67  N         37.8010   23.3720   65.3890 N.3   189  PRO189     -0.2116
     68  CA        37.1260   22.0980   65.1290 C.3   189  PRO189      0.1372
     69  C         37.7140   21.0290   66.0420 C.2   189  PRO189      0.2244
     70  O         38.8910   21.1060   66.4300 O.2   189  PRO189     -0.2868
     71  CB        37.4360   21.8200   63.6470 C.3   189  PRO189      0.0268
     72  CG        38.7300   22.5680   63.3790 C.3   189  PRO189      0.0207
     73  CD        38.6480   23.8190   64.2570 C.3   189  PRO189      0.0892
     74  N         38.3770   16.8580   66.8560 N.3   191  TYR191     -0.1241
     75  CA        38.4790   15.5500   66.2340 C.3   191  TYR191      0.1605
     76  C         38.7010   14.4390   67.2230 C.2   191  TYR191      0.2264
     77  O         39.4020   14.6270   68.2120 O.2   191  TYR191     -0.2867
     78  CB        39.6310   15.5190   65.2390 C.3   191  TYR191      0.0534
     79  CG        39.5300   16.5310   64.1380 C.ar  191  TYR191     -0.0201
     80  CD1       38.9010   16.2060   62.9500 C.ar  191  TYR191     -0.0009
     81  CD2       40.0640   17.8040   64.2930 C.ar  191  TYR191     -0.0009
     82  CE1       38.8010   17.1170   61.9200 C.ar  191  TYR191      0.0417
     83  CE2       39.9950   18.7260   63.2560 C.ar  191  TYR191      0.0417
     84  CZ        39.3430   18.3700   62.0880 C.ar  191  TYR191      0.1957
     85  OH        39.2760   19.2790   61.0510 O.3   191  TYR191     -0.2866
     86  N         35.6120   14.1890   62.7160 N.3   202  LEU202     -0.1245
     87  CA        35.2280   15.5470   63.0660 C.3   202  LEU202      0.1561
     88  C         33.9190   15.5410   63.8490 C.2   202  LEU202      0.2260
     89  O         32.9200   14.9600   63.4100 O.2   202  LEU202     -0.2867
     90  CB        35.0690   16.4100   61.8000 C.3   202  LEU202      0.0270
     91  CG        34.5170   17.8320   61.9760 C.3   202  LEU202      0.0019
     92  CD1       35.5240   18.7110   62.7040 C.3   202  LEU202      0.0001
     93  CD2       34.1620   18.4360   60.5850 C.3   202  LEU202      0.0001
     94  N         36.3810   13.2060   58.3710 N.3   214  SER214     -0.1217
     95  CA        36.8330   14.3080   57.5400 C.3   214  SER214      0.1889
     96  C         38.2230   14.7570   57.9680 C.2   214  SER214      0.2288
     97  O         38.3560   15.6290   58.8280 O.2   214  SER214     -0.2866
     98  CB        35.8600   15.4870   57.6120 C.3   214  SER214      0.2089
     99  OG        36.1650   16.4390   56.5750 O.3   214  SER214     -0.2183
    100  N         41.4450   16.7480   57.8120 N.3   216  PRO216     -0.2116
    101  CA        41.8930   17.9600   57.1040 C.3   216  PRO216      0.1372
    102  C         43.2170   17.7750   56.3750 C.2   216  PRO216      0.2244
    103  O         43.5040   18.5750   55.4600 O.2   216  PRO216     -0.2868
    104  CB        42.0230   19.0070   58.2190 C.3   216  PRO216      0.0268
    105  CG        42.1420   18.2090   59.5020 C.3   216  PRO216      0.0207
    106  CD        41.3440   16.9300   59.2800 C.3   216  PRO216      0.0892
    107  N         33.6330   13.5700   50.7690 N.3   303  ASP303     -0.1239
    108  CA        32.6680   14.6440   50.9970 C.3   303  ASP303      0.1674
    109  C         31.3190   14.2930   50.3670 C.2   303  ASP303      0.2266
    110  O         31.2740   13.7630   49.2610 O.2   303  ASP303     -0.2867
    111  CB        33.1710   15.9710   50.4080 C.3   303  ASP303      0.1410
    112  CG        34.1930   16.6750   51.2910 C.2   303  ASP303      0.3668
    113  OD1       34.6660   16.0660   52.2700 O.co2 303  ASP303     -0.2456
    114  OD2       34.4930   17.8520   50.9900 O.co2 303  ASP303     -0.2456
@<TRIPOS>BOND
     1   110   109    2
     2   109   108    1
     3   111   108    1
     4   111   112    1
     5   107   108    1
     6   114   112   ar
     7   112   113   ar
     8   103   102    2
     9   102   101    1
    10    99    98    1
    11   101   100    1
    12   101   104    1
    13    95    98    1
    14    95    96    1
    15    95    94    1
    16   100   106    1
    17    96    97    2
    18   104   105    1
    19     3     4    2
    20     3     2    1
    21    25    23   ar
    22    17    15   ar
    23    14    15    1
    24    14    11    1
    25     2     5    1
    26     2     1    1
    27     5     6    1
    28   106   105    1
    29     9     7   am
    30    10    11    1
    31    15    16   ar
    32    13    12    2
    33    23    24   ar
    34    23    22    1
    35     6     7    1
    36    11    12    1
    37     7     8    2
    38    41    39    1
    39    93    91    1
    40    22    19    1
    41    34    33    1
    42    58    56    1
    43    85    84    1
    44    40    39    1
    45    39    36    1
    46    57    56    1
    47    66    64   ar
    48    18    19    1
    49    90    91    1
    50    90    87    1
    51    33    32    1
    52    19    20    1
    53    82    84   ar
    54    82    80   ar
    55    56    55    2
    56    91    92    1
    57    84    83   ar
    58    21    20    2
    59    86    87    1
    60    64    63    1
    61    64    65   ar
    62    80    79   ar
    63    36    35    1
    64    36    37    1
    65    87    88    1
    66    55    54    1
    67    83    81   ar
    68    32    31    1
    69    72    71    1
    70    72    73    1
    71    63    60    1
    72    89    88    2
    73    71    68    1
    74    37    38    2
    75    37    42   am
    76    30    31    1
    77    30    27    1
    78    47    46    1
    79    79    81   ar
    80    79    78    1
    81    73    67    1
    82    54    53    1
    83    42    43    1
    84    59    60    1
    85    60    61    1
    86    28    27    1
    87    28    29    2
    88    46    43    1
    89    27    26    1
    90    62    61    2
    91    68    67    1
    92    68    69    1
    93    78    75    1
    94    53    52    1
    95    43    44    1
    96    69    70    2
    97    52    49    1
    98    75    74    1
    99    75    76    1
   100    45    44    2
   101    76    77    2
   102    49    48    1
   103    49    50    1
   104    50    51    2
