@<TRIPOS>MOLECULE
tmp/4xj6A01.pdb
 122 113 0 0 0
SMALL
GASTEIGER

@<TRIPOS>ATOM
      1  N          2.5200    4.2860   34.2620 N.3   109  GLN109     -0.1245
      2  CA         2.1900    4.7540   32.9230 C.3   109  GLN109      0.1566
      3  C          2.3560    3.5930   31.9470 C.2   109  GLN109      0.2260
      4  O          2.7940    2.5120   32.3330 O.2   109  GLN109     -0.2867
      5  CB         3.0780    5.9370   32.5280 C.3   109  GLN109      0.0367
      6  CG         4.5170    5.5500   32.2470 C.3   109  GLN109      0.0905
      7  CD         5.4700    6.7230   32.3120 C.2   109  GLN109      0.2608
      8  OE1        5.5620    7.4080   33.3310 O.2   109  GLN109     -0.2717
      9  NE2        6.1930    6.9580   31.2240 N.am  109  GLN109     -0.0878
     10  N          6.8590   -5.5000   30.7210 N.3   128  ASP128     -0.1239
     11  CA         7.3350   -4.1530   31.0070 C.3   128  ASP128      0.1674
     12  C          6.3620   -3.3550   31.8680 C.2   128  ASP128      0.2266
     13  O          5.2180   -3.1210   31.4780 O.2   128  ASP128     -0.2867
     14  CB         7.6110   -3.4090   29.6970 C.3   128  ASP128      0.1410
     15  CG         8.1300   -2.0020   29.9210 C.2   128  ASP128      0.3668
     16  OD1        9.3360   -1.8480   30.2030 O.co2 128  ASP128     -0.2456
     17  OD2        7.3330   -1.0480   29.8080 O.co2 128  ASP128     -0.2456
     18  N          5.9730    0.3190   33.5840 N.3   130  ASP130     -0.1239
     19  CA         6.4730    1.6840   33.6550 C.3   130  ASP130      0.1674
     20  C          5.8770    2.3970   34.8600 C.2   130  ASP130      0.2266
     21  O          4.8500    3.0630   34.7490 O.2   130  ASP130     -0.2867
     22  CB         6.1460    2.4470   32.3740 C.3   130  ASP130      0.1410
     23  CG         6.5670    1.7010   31.1290 C.2   130  ASP130      0.3668
     24  OD1        7.7780    1.6840   30.8260 O.co2 130  ASP130     -0.2456
     25  OD2        5.6860    1.1310   30.4510 O.co2 130  ASP130     -0.2456
     26  N         18.7630    3.5250   31.7370 N.3   174  LYS174     -0.1231
     27  CA        18.2690    3.9230   30.4280 C.3   174  LYS174      0.1693
     28  C         18.4030    5.4340   30.2970 C.2   174  LYS174      0.2592
     29  O         18.8800    6.0980   31.2160 O.2   174  LYS174     -0.2718
     30  CB        16.8170    3.4820   30.2390 C.3   174  LYS174      0.0285
     31  CG        16.5680    2.0160   30.5640 C.3   174  LYS174      0.0035
     32  CD        17.1760    1.0920   29.5180 C.3   174  LYS174      0.0206
     33  CE        16.4740    1.2390   28.1760 C.3   174  LYS174      0.1093
     34  NZ        16.9380    0.2310   27.1830 N.3   174  LYS174     -0.1314
     35  N         17.9800    5.9760   29.1610 N.am  175  ASN175     -0.1960
     36  CA        18.0820    7.4120   28.9280 C.3   175  ASN175      0.1819
     37  C         17.0550    8.2100   29.7240 C.2   175  ASN175      0.2622
     38  O         17.3170    9.3400   30.1370 O.2   175  ASN175     -0.2715
     39  CB        17.9320    7.7220   27.4370 C.3   175  ASN175      0.1195
     40  CG        19.0090    7.0670   26.5940 C.2   175  ASN175      0.2630
     41  OD1       20.0860    6.7360   27.0910 O.2   175  ASN175     -0.2716
     42  ND2       18.7260    6.8820   25.3100 N.am  175  ASN175     -0.0877
     43  N         15.8850    7.6190   29.9420 N.am  176  THR176     -0.1937
     44  CA        14.7830    8.3410   30.5640 C.3   176  THR176      0.2028
     45  C         14.3400    7.7260   31.8840 C.2   176  THR176      0.2642
     46  O         13.3840    8.1980   32.4970 O.2   176  THR176     -0.2714
     47  CB        13.5600    8.4030   29.6260 C.3   176  THR176      0.1808
     48  OG1       13.0470    7.0800   29.4310 O.3   176  THR176     -0.2208
     49  CG2       13.9460    9.0080   28.2810 C.3   176  THR176      0.0379
     50  N         15.0290    6.6760   32.3200 N.am  177  CYS177     -0.1967
     51  CA        14.6480    5.9940   33.5520 C.3   177  CYS177      0.1712
     52  C         15.7160    5.0420   34.0690 C.2   177  CYS177      0.2296
     53  O         16.6610    4.7050   33.3600 O.2   177  CYS177     -0.2864
     54  CB        13.3500    5.2100   33.3440 C.3   177  CYS177      0.0983
     55  SG        13.5290    3.7900   32.2410 S.3   177  CYS177     -0.0798
     56  N         16.1190    1.1680   35.3370 N.3   179  ARG179     -0.1245
     57  CA        15.3970   -0.0820   35.1430 C.3   179  ARG179      0.1563
     58  C         15.9380   -1.1810   36.0420 C.2   179  ARG179      0.2260
     59  O         17.1490   -1.3740   36.1420 O.2   179  ARG179     -0.2867
     60  CB        15.4720   -0.5290   33.6820 C.3   179  ARG179      0.0307
     61  CG        14.9640   -1.9430   33.4440 C.3   179  ARG179      0.0489
     62  CD        14.9990   -2.3030   31.9660 C.3   179  ARG179      0.2205
     63  NE        14.0250   -1.5280   31.2060 N.pl3 179  ARG179     -0.0865
     64  CZ        13.8860   -1.5970   29.8860 C.cat 179  ARG179      0.5346
     65  NH1       14.6640   -2.4040   29.1720 N.pl3 179  ARG179      0.1354
     66  NH2       12.9700   -0.8560   29.2750 N.pl3 179  ARG179      0.1354
     67  N         10.5170   -0.1290   34.7510 N.3   190  ASP190     -0.1239
     68  CA        11.0890    1.1710   34.4260 C.3   190  ASP190      0.1674
     69  C         10.6180    2.2310   35.4160 C.2   190  ASP190      0.2266
     70  O          9.4250    2.3490   35.7010 O.2   190  ASP190     -0.2867
     71  CB        10.7280    1.5760   32.9980 C.3   190  ASP190      0.1410
     72  CG        11.5250    0.8080   31.9600 C.2   190  ASP190      0.3668
     73  OD1       12.5880    0.2580   32.3190 O.co2 190  ASP190     -0.2456
     74  OD2       11.0990    0.7570   30.7860 O.co2 190  ASP190     -0.2456
     75  N         10.8190    6.0450   35.5960 N.3   192  PRO192     -0.2116
     76  CA        11.0710    7.4430   35.2460 C.3   192  PRO192      0.1372
     77  C         10.8510    8.3330   36.4660 C.2   192  PRO192      0.2244
     78  O          9.9370    8.0780   37.2500 O.2   192  PRO192     -0.2868
     79  CB        10.0450    7.7210   34.1470 C.3   192  PRO192      0.0268
     80  CG         8.9450    6.7450   34.4020 C.3   192  PRO192      0.0207
     81  CD         9.6160    5.5100   34.9340 C.3   192  PRO192      0.0892
     82  N          9.9130   11.9540   38.0940 N.3   194  TYR194     -0.1241
     83  CA         9.2020   13.1840   37.7680 C.3   194  TYR194      0.1605
     84  C          9.2230   14.2100   38.8870 C.2   194  TYR194      0.2264
     85  O          9.2320   13.8640   40.0670 O.2   194  TYR194     -0.2867
     86  CB         7.7460   12.8840   37.4120 C.3   194  TYR194      0.0534
     87  CG         7.5650   12.0100   36.1980 C.ar  194  TYR194     -0.0201
     88  CD1        7.4670   12.5640   34.9280 C.ar  194  TYR194     -0.0009
     89  CD2        7.4790   10.6300   36.3230 C.ar  194  TYR194     -0.0009
     90  CE1        7.2950   11.7700   33.8150 C.ar  194  TYR194      0.0417
     91  CE2        7.3040    9.8250   35.2170 C.ar  194  TYR194      0.0417
     92  CZ         7.2140   10.4000   33.9650 C.ar  194  TYR194      0.1957
     93  OH         7.0430    9.6050   32.8550 O.3   194  TYR194     -0.2866
     94  N         10.1100   15.5290   33.5210 N.3   207  LEU207     -0.1245
     95  CA        10.8460   14.2700   33.5270 C.3   207  LEU207      0.1561
     96  C         12.3410   14.5240   33.6910 C.2   207  LEU207      0.2260
     97  O         12.9290   15.3190   32.9560 O.2   207  LEU207     -0.2867
     98  CB        10.5840   13.4880   32.2390 C.3   207  LEU207      0.0270
     99  CG        11.2650   12.1280   32.0880 C.3   207  LEU207      0.0019
    100  CD1       10.8020   11.1910   33.1930 C.3   207  LEU207      0.0001
    101  CD2       10.9900   11.5380   30.7070 C.3   207  LEU207      0.0001
    102  N          7.1740   16.3630   30.1290 N.3   219  SER219     -0.1217
    103  CA         6.5420   15.2300   29.4700 C.3   219  SER219      0.1889
    104  C          5.5900   14.4990   30.4150 C.2   219  SER219      0.2288
    105  O          6.0070   13.6430   31.1960 O.2   219  SER219     -0.2866
    106  CB         7.6060   14.2660   28.9430 C.3   219  SER219      0.2089
    107  OG         7.0200   13.1180   28.3520 O.3   219  SER219     -0.2183
    108  N          3.0570   11.7680   31.0440 N.3   221  PRO221     -0.2116
    109  CA         2.6000   10.4900   30.4870 C.3   221  PRO221      0.1372
    110  C          1.0750   10.3920   30.4300 C.2   221  PRO221      0.2244
    111  O          0.5290    9.6440   29.6160 O.2   221  PRO221     -0.2868
    112  CB         3.1770    9.4580   31.4600 C.3   221  PRO221      0.0268
    113  CG         3.3870   10.2090   32.7280 C.3   221  PRO221      0.0207
    114  CD         3.7930   11.5850   32.3060 C.3   221  PRO221      0.0892
    115  N          6.0910   17.4540   22.5010 N.3   308  ASP308     -0.1239
    116  CA         7.3030   16.8500   21.9560 C.3   308  ASP308      0.1674
    117  C          7.8170   17.6350   20.7520 C.2   308  ASP308      0.2266
    118  O          7.0410   18.0580   19.8930 O.2   308  ASP308     -0.2867
    119  CB         7.0510   15.3960   21.5540 C.3   308  ASP308      0.1410
    120  CG         6.6490   14.5240   22.7290 C.2   308  ASP308      0.3668
    121  OD1        6.7120   15.0000   23.8830 O.co2 308  ASP308     -0.2456
    122  OD2        6.2800   13.3540   22.4970 O.co2 308  ASP308     -0.2456
@<TRIPOS>BOND
     1   118   117    2
     2   117   116    1
     3   119   116    1
     4   119   120    1
     5   116   115    1
     6   122   120   ar
     7   120   121   ar
     8    42    40   am
     9    40    41    2
    10    40    39    1
    11    34    33    1
    12    39    36    1
    13    33    32    1
    14    49    47    1
    15   107   106    1
    16    36    35    1
    17    36    37    1
    18   106   103    1
    19    35    28   am
    20    65    64    1
    21    66    64    1
    22    48    47    1
    23   103   102    1
    24   103   104    1
    25    32    31    1
    26   111   110    2
    27    47    44    1
    28    14    15    1
    29    14    11    1
    30    37    43   am
    31    37    38    2
    32    17    15   ar
    33    64    63    2
    34    15    16   ar
    35    43    44    1
    36    30    27    1
    37    30    31    1
    38    28    27    1
    39    28    29    2
    40   104   105    2
    41    27    26    1
    42   110   109    1
    43    25    23   ar
    44   109   108    1
    45   109   112    1
    46    44    45    1
    47   101    99    1
    48    10    11    1
    49    74    72   ar
    50    24    23   ar
    51    11    12    1
    52   108   114    1
    53    23    22    1
    54    63    62    1
    55     9     7   am
    56   112   113    1
    57    13    12    2
    58    45    50   am
    59    45    46    2
    60     3     4    2
    61     3     2    1
    62    72    73   ar
    63    72    71    1
    64    62    61    1
    65    99    98    1
    66    99   100    1
    67    98    95    1
    68    55    54    1
    69     6     7    1
    70     6     5    1
    71   114   113    1
    72     7     8    2
    73    50    51    1
    74    22    19    1
    75     5     2    1
    76    93    92    1
    77     2     1    1
    78    97    96    2
    79    71    68    1
    80    54    51    1
    81    53    52    2
    82    61    60    1
    83    94    95    1
    84    95    96    1
    85    51    52    1
    86    18    19    1
    87    19    20    1
    88    60    57    1
    89    90    92   ar
    90    90    88   ar
    91    92    91   ar
    92    79    80    1
    93    79    76    1
    94    80    81    1
    95    68    67    1
    96    68    69    1
    97    21    20    2
    98    88    87   ar
    99    81    75    1
   100    57    56    1
   101    57    58    1
   102    91    89   ar
   103    76    75    1
   104    76    77    1
   105    69    70    2
   106    58    59    2
   107    87    89   ar
   108    87    86    1
   109    77    78    2
   110    86    83    1
   111    83    82    1
   112    83    84    1
   113    84    85    2
