@<TRIPOS>MOLECULE
tmp/4xj6A00.pdb
 169 154 0 0 0
SMALL
GASTEIGER

@<TRIPOS>ATOM
      1  N          2.5200    4.2860   34.2620 N.3   109  GLN109     -0.1231
      2  CA         2.1900    4.7540   32.9230 C.3   109  GLN109      0.1698
      3  C          2.3560    3.5930   31.9470 C.2   109  GLN109      0.2593
      4  O          2.7940    2.5120   32.3330 O.2   109  GLN109     -0.2718
      5  CB         3.0780    5.9370   32.5280 C.3   109  GLN109      0.0381
      6  CG         4.5170    5.5500   32.2470 C.3   109  GLN109      0.0905
      7  CD         5.4700    6.7230   32.3120 C.2   109  GLN109      0.2608
      8  OE1        5.5620    7.4080   33.3310 O.2   109  GLN109     -0.2717
      9  NE2        6.1930    6.9580   31.2240 N.am  109  GLN109     -0.0878
     10  N          1.9950    3.8040   30.6880 N.am  110  GLY110     -0.1942
     11  CA         2.2270    2.7940   29.6730 C.3   110  GLY110      0.2014
     12  C          1.2180    1.6610   29.6400 C.2   110  GLY110      0.2639
     13  O          0.1060    1.7860   30.1550 O.2   110  GLY110     -0.2714
     14  N          1.6300    0.5450   29.0420 N.am  111  SER111     -0.1949
     15  CA         0.7320   -0.5560   28.6960 C.3   111  SER111      0.1924
     16  C          0.1020   -1.2560   29.8970 C.2   111  SER111      0.2314
     17  O         -0.9470   -1.8860   29.7700 O.2   111  SER111     -0.2863
     18  CB         1.4780   -1.5890   27.8470 C.3   111  SER111      0.2116
     19  OG         2.4880   -2.2390   28.5980 O.3   111  SER111     -0.2180
     20  N         -3.0060    1.3250   30.6020 N.3   114  TYR114     -0.1241
     21  CA        -4.1410    1.2940   29.6790 C.3   114  TYR114      0.1605
     22  C         -4.3220   -0.0780   29.0280 C.2   114  TYR114      0.2264
     23  O         -4.8510   -0.1790   27.9220 O.2   114  TYR114     -0.2867
     24  CB        -4.0180    2.3760   28.5940 C.3   114  TYR114      0.0534
     25  CG        -2.6240    2.6350   28.0620 C.ar  114  TYR114     -0.0201
     26  CD1       -1.9820    1.7130   27.2420 C.ar  114  TYR114     -0.0009
     27  CD2       -1.9660    3.8250   28.3480 C.ar  114  TYR114     -0.0009
     28  CE1       -0.7130    1.9620   26.7470 C.ar  114  TYR114      0.0417
     29  CE2       -0.7010    4.0820   27.8570 C.ar  114  TYR114      0.0417
     30  CZ        -0.0780    3.1490   27.0580 C.ar  114  TYR114      0.1957
     31  OH         1.1840    3.4080   26.5710 O.3   114  TYR114     -0.2866
     32  N         -0.4910   -4.6070   27.8030 N.3   117  LEU117     -0.1231
     33  CA         0.7110   -5.3580   28.1360 C.3   117  LEU117      0.1693
     34  C          0.6170   -6.7960   27.6460 C.2   117  LEU117      0.2592
     35  O         -0.2810   -7.5370   28.0420 O.2   117  LEU117     -0.2718
     36  CB         0.9550   -5.3350   29.6450 C.3   117  LEU117      0.0284
     37  CG         2.1810   -6.1250   30.1050 C.3   117  LEU117      0.0019
     38  CD1        3.4360   -5.5730   29.4500 C.3   117  LEU117      0.0001
     39  CD2        2.2960   -6.0760   31.6080 C.3   117  LEU117      0.0001
     40  N          1.5470   -7.1840   26.7810 N.am  118  ASN118     -0.1974
     41  CA         1.5810   -8.5440   26.2590 C.3   118  ASN118      0.1688
     42  C          2.5690   -9.4260   27.0110 C.2   118  ASN118      0.2292
     43  O          3.5480   -8.9380   27.5780 O.2   118  ASN118     -0.2864
     44  CB         1.9380   -8.5430   24.7700 C.3   118  ASN118      0.1181
     45  CG         0.8270   -7.9910   23.8980 C.2   118  ASN118      0.2629
     46  OD1       -0.3300   -7.9210   24.3120 O.2   118  ASN118     -0.2716
     47  ND2        1.1730   -7.6060   22.6740 N.am  118  ASN118     -0.0877
     48  N          6.8590   -5.5000   30.7210 N.3   128  ASP128     -0.1239
     49  CA         7.3350   -4.1530   31.0070 C.3   128  ASP128      0.1674
     50  C          6.3620   -3.3550   31.8680 C.2   128  ASP128      0.2266
     51  O          5.2180   -3.1210   31.4780 O.2   128  ASP128     -0.2867
     52  CB         7.6110   -3.4090   29.6970 C.3   128  ASP128      0.1410
     53  CG         8.1300   -2.0020   29.9210 C.2   128  ASP128      0.3668
     54  OD1        9.3360   -1.8480   30.2030 O.co2 128  ASP128     -0.2456
     55  OD2        7.3330   -1.0480   29.8080 O.co2 128  ASP128     -0.2456
     56  N          5.9730    0.3190   33.5840 N.3   130  ASP130     -0.1239
     57  CA         6.4730    1.6840   33.6550 C.3   130  ASP130      0.1674
     58  C          5.8770    2.3970   34.8600 C.2   130  ASP130      0.2266
     59  O          4.8500    3.0630   34.7490 O.2   130  ASP130     -0.2867
     60  CB         6.1460    2.4470   32.3740 C.3   130  ASP130      0.1410
     61  CG         6.5670    1.7010   31.1290 C.2   130  ASP130      0.3668
     62  OD1        7.7780    1.6840   30.8260 O.co2 130  ASP130     -0.2456
     63  OD2        5.6860    1.1310   30.4510 O.co2 130  ASP130     -0.2456
     64  N         10.5170   -0.1290   34.7510 N.3   190  ASP190     -0.1239
     65  CA        11.0890    1.1710   34.4260 C.3   190  ASP190      0.1674
     66  C         10.6180    2.2310   35.4160 C.2   190  ASP190      0.2266
     67  O          9.4250    2.3490   35.7010 O.2   190  ASP190     -0.2867
     68  CB        10.7280    1.5760   32.9980 C.3   190  ASP190      0.1410
     69  CG        11.5250    0.8080   31.9600 C.2   190  ASP190      0.3668
     70  OD1       12.5880    0.2580   32.3190 O.co2 190  ASP190     -0.2456
     71  OD2       11.0990    0.7570   30.7860 O.co2 190  ASP190     -0.2456
     72  N          7.1740   16.3630   30.1290 N.3   219  SER219     -0.1217
     73  CA         6.5420   15.2300   29.4700 C.3   219  SER219      0.1889
     74  C          5.5900   14.4990   30.4150 C.2   219  SER219      0.2288
     75  O          6.0070   13.6430   31.1960 O.2   219  SER219     -0.2866
     76  CB         7.6060   14.2660   28.9430 C.3   219  SER219      0.2089
     77  OG         7.0200   13.1180   28.3520 O.3   219  SER219     -0.2183
     78  N          3.0570   11.7680   31.0440 N.3   221  PRO221     -0.2116
     79  CA         2.6000   10.4900   30.4870 C.3   221  PRO221      0.1372
     80  C          1.0750   10.3920   30.4300 C.2   221  PRO221      0.2244
     81  O          0.5290    9.6440   29.6160 O.2   221  PRO221     -0.2868
     82  CB         3.1770    9.4580   31.4600 C.3   221  PRO221      0.0268
     83  CG         3.3870   10.2090   32.7280 C.3   221  PRO221      0.0207
     84  CD         3.7930   11.5850   32.3060 C.3   221  PRO221      0.0892
     85  N         -0.4680   10.8700   26.8850 N.3   224  VAL224     -0.1245
     86  CA        -0.5320    9.6890   26.0260 C.3   224  VAL224      0.1561
     87  C         -1.6250    8.7360   26.5090 C.2   224  VAL224      0.2260
     88  O         -2.3520    8.1470   25.7100 O.2   224  VAL224     -0.2867
     89  CB         0.8230    8.9520   25.9750 C.3   224  VAL224      0.0252
     90  CG1        0.6630    7.5440   25.4070 C.3   224  VAL224      0.0019
     91  CG2        1.8340    9.7620   25.1700 C.3   224  VAL224      0.0019
     92  N          1.9900   -5.2670   18.4350 N.3   247  LYS247     -0.1245
     93  CA         3.0950   -5.3440   19.3810 C.3   247  LYS247      0.1561
     94  C          3.6230   -6.7700   19.4590 C.2   247  LYS247      0.2260
     95  O          4.8240   -6.9870   19.6210 O.2   247  LYS247     -0.2867
     96  CB         2.6580   -4.8600   20.7620 C.3   247  LYS247      0.0271
     97  CG         2.3850   -3.3660   20.8310 C.3   247  LYS247      0.0035
     98  CD         1.6970   -2.9780   22.1300 C.3   247  LYS247      0.0206
     99  CE         2.5830   -3.2370   23.3390 C.3   247  LYS247      0.1093
    100  NZ         1.9410   -2.7640   24.6000 N.3   247  LYS247     -0.1314
    101  N          5.7230   -7.2180   16.4880 N.3   250  ARG250     -0.1245
    102  CA         7.0110   -6.5770   16.7280 C.3   250  ARG250      0.1563
    103  C          7.9090   -7.4630   17.5830 C.2   250  ARG250      0.2260
    104  O          9.0960   -7.6140   17.3010 O.2   250  ARG250     -0.2867
    105  CB         6.8190   -5.2110   17.3990 C.3   250  ARG250      0.0307
    106  CG         8.1250   -4.5220   17.7990 C.3   250  ARG250      0.0489
    107  CD         8.3960   -4.6080   19.2980 C.3   250  ARG250      0.2205
    108  NE         7.8310   -3.4730   20.0230 N.pl3 250  ARG250     -0.0865
    109  CZ         7.0070   -3.5760   21.0590 C.cat 250  ARG250      0.5346
    110  NH1        6.6480   -4.7670   21.5100 N.pl3 250  ARG250      0.1354
    111  NH2        6.5460   -2.4820   21.6450 N.pl3 250  ARG250      0.1354
    112  N          8.9680    1.4510   18.4820 N.3   260  SER260     -0.1202
    113  CA         8.4210    1.5760   19.8260 C.3   260  SER260      0.2020
    114  C          6.9230    1.2870   19.8480 C.2   260  SER260      0.2619
    115  O          6.2400    1.3960   18.8280 O.2   260  SER260     -0.2717
    116  CB         8.6800    2.9750   20.3820 C.3   260  SER260      0.2103
    117  OG         8.0130    3.9600   19.6050 O.3   260  SER260     -0.2182
    118  N          6.4220    0.9130   21.0200 N.am  261  SER261     -0.1937
    119  CA         5.0000    0.6570   21.1960 C.3   261  SER261      0.2055
    120  C          4.1720    1.9010   20.9000 C.2   261  SER261      0.2642
    121  O          3.0940    1.8090   20.3190 O.2   261  SER261     -0.2714
    122  CB         4.7120    0.1690   22.6170 C.3   261  SER261      0.2130
    123  OG         5.2050   -1.1430   22.8170 O.3   261  SER261     -0.2179
    124  N          4.6850    3.0640   21.2890 N.am  262  ILE262     -0.1977
    125  CA         3.9420    4.3110   21.1310 C.3   262  ILE262      0.1596
    126  C          3.7720    4.6810   19.6550 C.2   262  ILE262      0.2287
    127  O          2.7220    5.1800   19.2480 O.2   262  ILE262     -0.2864
    128  CB         4.6220    5.4790   21.9030 C.3   262  ILE262      0.0276
    129  CG1        3.7990    6.7610   21.7860 C.3   262  ILE262      0.0022
    130  CG2        6.0520    5.7160   21.4350 C.3   262  ILE262      0.0022
    131  CD1        2.4180    6.6330   22.3590 C.3   262  ILE262      0.0001
    132  N          1.1870    2.2920   18.1660 N.3   265  MET265     -0.1245
    133  CA        -0.1450    2.7000   18.5970 C.3   265  MET265      0.1570
    134  C         -0.6410    3.9120   17.8120 C.2   265  MET265      0.2261
    135  O         -1.7800    3.9360   17.3500 O.2   265  MET265     -0.2867
    136  CB        -0.1520    3.0150   20.0940 C.3   265  MET265      0.0387
    137  CG         0.0640    1.8030   20.9860 C.3   265  MET265      0.0595
    138  SD         0.6080    2.2420   22.6470 S.3   265  MET265     -0.1393
    139  CE        -0.8810    2.9670   23.3310 C.3   265  MET265      0.0692
    140  N          4.0790   12.6150   17.3430 N.3   303  SER303     -0.1217
    141  CA         3.6940   12.2540   18.7000 C.3   303  SER303      0.1889
    142  C          2.2920   12.7490   19.0300 C.2   303  SER303      0.2288
    143  O          1.9250   13.8700   18.6810 O.2   303  SER303     -0.2866
    144  CB         4.7010   12.8110   19.7110 C.3   303  SER303      0.2089
    145  OG         4.2980   12.5210   21.0410 O.3   303  SER303     -0.2183
    146  N          1.5210   13.5690   21.7810 N.3   305  ASP305     -0.1239
    147  CA         1.8420   14.6690   22.6800 C.3   305  ASP305      0.1674
    148  C          2.4990   15.7820   21.8750 C.2   305  ASP305      0.2266
    149  O          3.6560   15.6720   21.4750 O.2   305  ASP305     -0.2867
    150  CB         2.7600   14.1990   23.8120 C.3   305  ASP305      0.1410
    151  CG         2.8850   15.2220   24.9320 C.2   305  ASP305      0.3668
    152  OD1        2.7520   16.4350   24.6660 O.co2 305  ASP305     -0.2456
    153  OD2        3.1190   14.8120   26.0880 O.co2 305  ASP305     -0.2456
    154  N          6.0910   17.4540   22.5010 N.3   308  ASP308     -0.1239
    155  CA         7.3030   16.8500   21.9560 C.3   308  ASP308      0.1674
    156  C          7.8170   17.6350   20.7520 C.2   308  ASP308      0.2266
    157  O          7.0410   18.0580   19.8930 O.2   308  ASP308     -0.2867
    158  CB         7.0510   15.3960   21.5540 C.3   308  ASP308      0.1410
    159  CG         6.6490   14.5240   22.7290 C.2   308  ASP308      0.3668
    160  OD1        6.7120   15.0000   23.8830 O.co2 308  ASP308     -0.2456
    161  OD2        6.2800   13.3540   22.4970 O.co2 308  ASP308     -0.2456
    162  N          7.6510   10.7880   16.5550 N.3   312  LEU312     -0.1245
    163  CA         7.9490    9.4290   16.9980 C.3   312  LEU312      0.1561
    164  C          8.7600    8.7050   15.9350 C.2   312  LEU312      0.2260
    165  O          9.5880    7.8430   16.2380 O.2   312  LEU312     -0.2867
    166  CB         6.6610    8.6590   17.2930 C.3   312  LEU312      0.0270
    167  CG         5.7440    9.2350   18.3710 C.3   312  LEU312      0.0019
    168  CD1        4.4670    8.4200   18.4660 C.3   312  LEU312      0.0001
    169  CD2        6.4530    9.2740   19.7120 C.3   312  LEU312      0.0001
@<TRIPOS>BOND
     1   164   165    2
     2   164   163    1
     3   101   102    1
     4   162   163    1
     5   102   105    1
     6   102   103    1
     7   163   166    1
     8   166   167    1
     9   104   103    2
    10   140   141    1
    11   135   134    2
    12   105   106    1
    13   106   107    1
    14   134   133    1
    15   132   133    1
    16   167   168    1
    17   167   169    1
    18    92    93    1
    19   112   113    1
    20   133   136    1
    21   143   142    2
    22   141   142    1
    23   141   144    1
    24   115   114    2
    25   127   126    2
    26   107   108    1
    27    93    94    1
    28    93    96    1
    29    94    95    2
    30   117   116    1
    31   126   125    1
    32   144   145    1
    33   113   114    1
    34   113   116    1
    35   114   118   am
    36   157   156    2
    37   108   109    2
    38   136   137    1
    39   121   120    2
    40   156   155    1
    41    96    97    1
    42    97    98    1
    43   120   119    1
    44   120   124   am
    45   137   138    1
    46   118   119    1
    47   109   110    1
    48   109   111    1
    49   125   124    1
    50   125   128    1
    51   119   122    1
    52   130   128    1
    53   149   148    2
    54   158   155    1
    55   158   159    1
    56   146   147    1
    57   129   128    1
    58   129   131    1
    59   148   147    1
    60   155   154    1
    61    98    99    1
    62   161   159   ar
    63   122   123    1
    64   138   139    1
    65    47    45   am
    66   147   150    1
    67   159   160   ar
    68    99   100    1
    69   150   151    1
    70    45    46    2
    71    45    44    1
    72   152   151   ar
    73    44    41    1
    74   151   153   ar
    75    91    89    1
    76    90    89    1
    77    88    87    2
    78    89    86    1
    79    86    87    1
    80    86    85    1
    81    41    40    1
    82    41    42    1
    83    31    30    1
    84    28    30   ar
    85    28    26   ar
    86    40    34   am
    87    42    43    2
    88    30    29   ar
    89    26    25   ar
    90    34    35    2
    91    34    33    1
    92    32    33    1
    93    18    19    1
    94    18    15    1
    95    29    27   ar
    96    23    22    2
    97    25    27   ar
    98    25    24    1
    99    33    36    1
   100    77    76    1
   101    24    21    1
   102    15    14    1
   103    15    16    1
   104    76    73    1
   105    22    21    1
   106    14    12   am
   107    38    37    1
   108    73    72    1
   109    73    74    1
   110    81    80    2
   111    12    11    1
   112    12    13    2
   113    36    37    1
   114    11    10    1
   115    21    20    1
   116    52    53    1
   117    52    49    1
   118    17    16    2
   119    55    53   ar
   120    53    54   ar
   121    37    39    1
   122    74    75    2
   123    80    79    1
   124    63    61   ar
   125    79    78    1
   126    79    82    1
   127    10     3   am
   128    48    49    1
   129    71    69   ar
   130    62    61   ar
   131    49    50    1
   132    78    84    1
   133    61    60    1
   134     9     7   am
   135    82    83    1
   136    51    50    2
   137     3     4    2
   138     3     2    1
   139    69    70   ar
   140    69    68    1
   141     6     7    1
   142     6     5    1
   143    84    83    1
   144     7     8    2
   145    60    57    1
   146     5     2    1
   147     2     1    1
   148    68    65    1
   149    56    57    1
   150    57    58    1
   151    65    64    1
   152    65    66    1
   153    59    58    2
   154    66    67    2
