@<TRIPOS>MOLECULE
tmp/4xj7A00.pdb
 94 91 0 0 0
SMALL
GASTEIGER

@<TRIPOS>ATOM
      1  N         22.3100  -45.7030   47.9470 N.3    18  ASP18      -0.1239
      2  CA        22.1450  -45.3350   49.3350 C.3    18  ASP18       0.1674
      3  C         20.7490  -44.8170   49.6700 C.2    18  ASP18       0.2266
      4  O         20.5040  -44.5310   50.8520 O.2    18  ASP18      -0.2867
      5  CB        23.2660  -44.4330   49.8780 C.3    18  ASP18       0.1410
      6  CG        23.1030  -42.9990   49.5460 C.2    18  ASP18       0.3668
      7  OD1       22.1800  -42.5530   48.8120 O.co2  18  ASP18      -0.2456
      8  OD2       24.0010  -42.2740   50.0610 O.co2  18  ASP18      -0.2456
      9  N         21.0720  -41.5870   52.5400 N.3    49  SER49      -0.1202
     10  CA        21.6740  -40.4110   51.8950 C.3    49  SER49       0.2020
     11  C         22.5370  -39.6560   52.8940 C.2    49  SER49       0.2619
     12  O         22.1240  -39.4130   54.0430 O.2    49  SER49      -0.2717
     13  CB        20.5810  -39.5060   51.3160 C.3    49  SER49       0.2103
     14  OG        19.9110  -40.1310   50.2180 O.3    49  SER49      -0.2182
     15  N         23.7230  -39.2570   52.4270 N.am   50  GLY50      -0.1956
     16  CA        24.7050  -38.5590   53.2620 C.3    50  GLY50       0.1869
     17  C         25.6620  -39.4780   53.9610 C.2    50  GLY50       0.2309
     18  O         26.4540  -39.0430   54.7820 O.2    50  GLY50      -0.2863
     19  N         21.5260  -35.2590   42.3230 N.3   105  PRO105     -0.2102
     20  CA        22.8890  -35.2310   41.7930 C.3   105  PRO105      0.1504
     21  C         23.9660  -35.5280   42.8320 C.2   105  PRO105      0.2575
     22  O         23.7530  -35.3090   44.0680 O.2   105  PRO105     -0.2718
     23  CB        23.0110  -33.7630   41.2570 C.3   105  PRO105      0.0282
     24  CG        22.1600  -32.9920   42.2370 C.3   105  PRO105      0.0208
     25  CD        20.9430  -33.8930   42.4470 C.3   105  PRO105      0.0893
     26  N         25.1180  -35.9960   42.3580 N.am  106  ASN106     -0.1975
     27  CA        26.3150  -36.1220   43.1550 C.3   106  ASN106      0.1688
     28  C         27.4650  -35.5020   42.3860 C.2   106  ASN106      0.2292
     29  O         28.1710  -36.1730   41.6660 O.2   106  ASN106     -0.2864
     30  CB        26.5810  -37.6000   43.5460 C.3   106  ASN106      0.1181
     31  CG        25.6290  -38.0690   44.6360 C.2   106  ASN106      0.2629
     32  OD1       24.8020  -39.0140   44.4480 O.2   106  ASN106     -0.2716
     33  ND2       25.7140  -37.4410   45.7520 N.am  106  ASN106     -0.0877
     34  N         30.5210  -32.4780   46.4630 N.3   110  ASP110     -0.1239
     35  CA        29.5000  -33.2920   47.1600 C.3   110  ASP110      0.1674
     36  C         29.8690  -34.7750   47.1030 C.2   110  ASP110      0.2266
     37  O         29.4060  -35.5700   47.9340 O.2   110  ASP110     -0.2867
     38  CB        28.1150  -33.0920   46.5530 C.3   110  ASP110      0.1410
     39  CG        27.5580  -31.6960   46.8160 C.2   110  ASP110      0.3668
     40  OD1       28.0430  -31.0150   47.7360 O.co2 110  ASP110     -0.2456
     41  OD2       26.5850  -31.3190   46.1600 O.co2 110  ASP110     -0.2456
     42  N         30.8850  -36.7570   50.2120 N.3   113  TYR113     -0.1227
     43  CA        29.7770  -36.9990   51.1540 C.3   113  TYR113      0.1736
     44  C         28.7920  -38.0820   50.6990 C.2   113  TYR113      0.2596
     45  O         27.9400  -38.5130   51.4570 O.2   113  TYR113     -0.2718
     46  CB        29.0250  -35.6590   51.4160 C.3   113  TYR113      0.0548
     47  CG        30.0370  -34.6550   51.9830 C.ar  113  TYR113     -0.0200
     48  CD1       30.3000  -34.6470   53.3330 C.ar  113  TYR113     -0.0009
     49  CD2       30.7430  -33.7340   51.1570 C.ar  113  TYR113     -0.0009
     50  CE1       31.2400  -33.7780   53.8860 C.ar  113  TYR113      0.0417
     51  CE2       31.6910  -32.8660   51.6980 C.ar  113  TYR113      0.0417
     52  CZ        31.9520  -32.9070   53.0630 C.ar  113  TYR113      0.1957
     53  OH        32.9140  -32.0780   53.6430 O.3   113  TYR113     -0.2866
     54  N         28.8970  -38.4830   49.4120 N.am  114  SER114     -0.1938
     55  CA        27.8750  -39.2950   48.7920 C.3   114  SER114      0.2055
     56  C         28.0110  -40.7850   49.1200 C.2   114  SER114      0.2643
     57  O         29.0520  -41.4060   48.8260 O.2   114  SER114     -0.2714
     58  CB        28.0390  -39.1320   47.2800 C.3   114  SER114      0.2130
     59  OG        27.1930  -40.0690   46.5890 O.3   114  SER114     -0.2179
     60  N         26.9240  -41.3550   49.6250 N.am  115  GLY115     -0.1954
     61  CA        26.9300  -42.8140   49.8660 C.3   115  GLY115      0.1869
     62  C         26.7940  -43.5430   48.5340 C.2   115  GLY115      0.2309
     63  O         27.2890  -44.6540   48.4220 O.2   115  GLY115     -0.2863
     64  N         28.6100  -24.9120   52.6220 N.3   192  ALA192     -0.1245
     65  CA        27.2220  -24.8340   53.0260 C.3   192  ALA192      0.1562
     66  C         27.2140  -24.0680   54.3440 C.2   192  ALA192      0.2260
     67  O         28.1130  -24.2900   55.1680 O.2   192  ALA192     -0.2867
     68  CB        26.6840  -26.2470   53.2270 C.3   192  ALA192      0.0290
     69  N         20.7600  -29.9250   59.4020 N.3   209  ILE209     -0.1231
     70  CA        21.8160  -29.5610   58.4480 C.3   209  ILE209      0.1692
     71  C         21.1610  -28.9670   57.2110 C.2   209  ILE209      0.2593
     72  O         20.1940  -29.5400   56.6620 O.2   209  ILE209     -0.2718
     73  CB        22.6950  -30.7920   58.1200 C.3   209  ILE209      0.0266
     74  CG1       23.6210  -31.0640   59.2970 C.3   209  ILE209      0.0019
     75  CG2       23.4710  -30.6200   56.7900 C.3   209  ILE209      0.0020
     76  CD1       24.6440  -32.1370   59.0360 C.3   209  ILE209      0.0001
     77  N         21.6490  -27.7900   56.7890 N.am  210  GLY210     -0.1943
     78  CA        21.1040  -27.1210   55.5950 C.3   210  GLY210      0.1998
     79  C         21.5570  -27.7000   54.2450 C.2   210  GLY210      0.2481
     80  O         22.2790  -28.7050   54.1810 O.2   210  GLY210     -0.2729
     81  N         21.1310  -27.0570   53.1650 N.am  211  PRO211     -0.2715
     82  CA        21.4480  -27.5380   51.8270 C.3   211  PRO211      0.1521
     83  C         22.8960  -27.2320   51.4170 C.2   211  PRO211      0.2440
     84  O         23.5660  -26.4420   52.0850 O.2   211  PRO211     -0.2731
     85  CB        20.4270  -26.7990   50.9450 C.3   211  PRO211      0.0310
     86  CG        20.0970  -25.5470   51.6740 C.3   211  PRO211      0.0237
     87  CD        20.2270  -25.8870   53.1470 C.3   211  PRO211      0.0939
     88  N         23.3810  -27.8510   50.3190 N.am  212  PRO212     -0.2727
     89  CA        24.6970  -27.5110   49.8020 C.3   212  PRO212      0.1402
     90  C         24.8800  -26.0110   49.5070 C.2   212  PRO212      0.2269
     91  O         23.9190  -25.2960   49.2430 O.2   212  PRO212     -0.2865
     92  CB        24.7860  -28.3440   48.5120 C.3   212  PRO212      0.0296
     93  CG        23.8780  -29.5030   48.7740 C.3   212  PRO212      0.0237
     94  CD        22.7080  -28.8620   49.4740 C.3   212  PRO212      0.0939
@<TRIPOS>BOND
     1    23    20    1
     2    23    24    1
     3    29    28    2
     4    20    19    1
     5    20    21    1
     6    24    25    1
     7    19    25    1
     8    26    21   am
     9    26    27    1
    10    28    27    1
    11    21    22    2
    12    27    30    1
    13    30    31    1
    14    32    31    2
    15    31    33   am
    16    41    39   ar
    17    34    35    1
    18    38    39    1
    19    38    35    1
    20    59    58    1
    21    39    40   ar
    22    36    35    1
    23    36    37    2
    24    58    55    1
    25     1     2    1
    26    63    62    2
    27    92    93    1
    28    92    89    1
    29    62    61    1
    30    93    94    1
    31    55    56    1
    32    55    54    1
    33     7     6   ar
    34    57    56    2
    35    56    60   am
    36    91    90    2
    37     2     3    1
    38     2     5    1
    39    54    44   am
    40    94    88    1
    41    90    89    1
    42     6     5    1
    43     6     8   ar
    44    60    61    1
    45     3     4    2
    46    89    88    1
    47    42    43    1
    48    14    13    1
    49    88    83   am
    50    44    43    1
    51    44    45    2
    52    85    86    1
    53    85    82    1
    54    43    46    1
    55    49    51   ar
    56    49    47   ar
    57    13    10    1
    58    46    47    1
    59    83    82    1
    60    83    84    2
    61    86    87    1
    62    51    52   ar
    63    82    81    1
    64    10     9    1
    65    10    11    1
    66    47    48   ar
    67    15    11   am
    68    15    16    1
    69    64    65    1
    70    11    12    2
    71    65    68    1
    72    65    66    1
    73    52    53    1
    74    52    50   ar
    75    87    81    1
    76    81    79   am
    77    16    17    1
    78    48    50   ar
    79    17    18    2
    80    80    79    2
    81    79    78    1
    82    66    67    2
    83    78    77    1
    84    72    71    2
    85    77    71   am
    86    75    73    1
    87    71    70    1
    88    73    70    1
    89    73    74    1
    90    70    69    1
    91    76    74    1
