@<TRIPOS>MOLECULE
tmp/4xjaA01.pdb
 178 168 0 0 0
SMALL
GASTEIGER

@<TRIPOS>ATOM
      1  N         -3.3920  -14.1020   35.3740 N.3   207  ARG207     -0.1231
      2  CA        -2.4620  -13.4920   34.4360 C.3   207  ARG207      0.1694
      3  C         -1.1530  -14.2600   34.4740 C.2   207  ARG207      0.2591
      4  O         -0.9250  -15.0590   35.3750 O.2   207  ARG207     -0.2718
      5  CB        -2.1940  -12.0260   34.7990 C.3   207  ARG207      0.0321
      6  CG        -3.2470  -10.9990   34.3290 C.3   207  ARG207      0.0489
      7  CD        -2.5870   -9.6130   34.1370 C.3   207  ARG207      0.2205
      8  NE        -1.4850   -9.6830   33.1800 N.pl3 207  ARG207     -0.0865
      9  CZ        -0.6150   -8.7010   32.9430 C.cat 207  ARG207      0.5346
     10  NH1       -0.7070   -7.5370   33.5900 N.pl3 207  ARG207      0.1354
     11  NH2        0.3480   -8.8830   32.0450 N.pl3 207  ARG207      0.1354
     12  N         -0.2890  -13.9820   33.5050 N.am  208  ILE208     -0.1980
     13  CA         1.0800  -14.5100   33.4890 C.3   208  ILE208      0.1595
     14  C          1.1370  -16.0400   33.3480 C.2   208  ILE208      0.2287
     15  O          1.6720  -16.7310   34.2110 O.2   208  ILE208     -0.2864
     16  CB         1.8950  -14.0550   34.7280 C.3   208  ILE208      0.0276
     17  CG1        1.5280  -12.6180   35.1600 C.3   208  ILE208      0.0022
     18  CG2        3.3800  -14.1370   34.4430 C.3   208  ILE208      0.0022
     19  CD1        1.8110  -11.5330   34.1160 C.3   208  ILE208      0.0001
     20  N         -4.8260  -14.3450   40.6120 N.3   226  ARG226     -0.1245
     21  CA        -4.9180  -12.9810   41.1300 C.3   226  ARG226      0.1563
     22  C         -6.2990  -12.7100   41.7160 C.2   226  ARG226      0.2260
     23  O         -7.3110  -12.7670   41.0180 O.2   226  ARG226     -0.2867
     24  CB        -4.5610  -11.9670   40.0330 C.3   226  ARG226      0.0307
     25  CG        -3.1210  -12.1280   39.4960 C.3   226  ARG226      0.0489
     26  CD        -2.6370  -10.9090   38.7250 C.3   226  ARG226      0.2205
     27  NE        -1.2030  -10.9940   38.4150 N.pl3 226  ARG226     -0.0865
     28  CZ        -0.5050  -10.0450   37.7950 C.cat 226  ARG226      0.5346
     29  NH1       -1.0900   -8.9190   37.4040 N.pl3 226  ARG226      0.1354
     30  NH2        0.7840  -10.2240   37.5710 N.pl3 226  ARG226      0.1354
     31  N         -1.1750   -6.0910   39.4120 N.3   232  ASP232     -0.1225
     32  CA         0.0580   -6.6820   39.9280 C.3   232  ASP232      0.1805
     33  C          0.1780   -6.3360   41.4050 C.2   232  ASP232      0.2598
     34  O         -0.5800   -5.5060   41.9140 O.2   232  ASP232     -0.2718
     35  CB         1.2880   -6.1710   39.1620 C.3   232  ASP232      0.1424
     36  CG         1.3740   -4.6520   39.1300 C.2   232  ASP232      0.3668
     37  OD1        0.3310   -3.9970   38.9260 O.co2 232  ASP232     -0.2456
     38  OD2        2.4850   -4.1090   39.3150 O.co2 232  ASP232     -0.2456
     39  N          1.1280   -6.9700   42.0910 N.am  233  SER233     -0.1952
     40  CA         1.3940   -6.6600   43.4930 C.3   233  SER233      0.1924
     41  C          1.6600   -5.1580   43.5990 C.2   233  SER233      0.2314
     42  O          2.2490   -4.5880   42.6750 O.2   233  SER233     -0.2863
     43  CB         2.6030   -7.4540   43.9810 C.3   233  SER233      0.2116
     44  OG         2.4130   -8.8440   43.7490 O.3   233  SER233     -0.2180
     45  N          4.3220  -13.4350   42.4970 N.3   288  ILE288     -0.1231
     46  CA         4.0320  -12.8920   41.1700 C.3   288  ILE288      0.1692
     47  C          5.1210  -13.2780   40.1770 C.2   288  ILE288      0.2592
     48  O          6.2960  -13.3180   40.5440 O.2   288  ILE288     -0.2718
     49  CB         3.8230  -11.3430   41.2420 C.3   288  ILE288      0.0266
     50  CG1        3.5380  -10.7370   39.8690 C.3   288  ILE288      0.0019
     51  CG2        5.0110  -10.6410   41.9160 C.3   288  ILE288      0.0020
     52  CD1        3.1080   -9.2860   39.9680 C.3   288  ILE288      0.0001
     53  N          4.7160  -13.5900   38.9430 N.am  289  ASP289     -0.1974
     54  CA         5.6310  -13.9340   37.8470 C.3   289  ASP289      0.1709
     55  C          6.3900  -15.2430   38.0830 C.2   289  ASP289      0.2293
     56  O          7.4940  -15.2370   38.6270 O.2   289  ASP289     -0.2864
     57  CB         6.6300  -12.7980   37.5720 C.3   289  ASP289      0.1436
     58  CG         5.9620  -11.5340   37.0440 C.2   289  ASP289      0.3671
     59  OD1        4.7590  -11.5830   36.7190 O.co2 289  ASP289     -0.2456
     60  OD2        6.6540  -10.4940   36.9350 O.co2 289  ASP289     -0.2456
     61  N          8.4970  -14.4140   42.0300 N.3   306  ASP306     -0.1239
     62  CA         8.8150  -13.3110   42.9360 C.3   306  ASP306      0.1674
     63  C          7.9520  -13.4290   44.1840 C.2   306  ASP306      0.2266
     64  O          6.8280  -13.9280   44.1210 O.2   306  ASP306     -0.2867
     65  CB         8.5220  -11.9440   42.3070 C.3   306  ASP306      0.1410
     66  CG         9.2420  -11.7080   40.9780 C.2   306  ASP306      0.3668
     67  OD1       10.3360  -12.2660   40.7230 O.co2 306  ASP306     -0.2456
     68  OD2        8.7060  -10.9010   40.1870 O.co2 306  ASP306     -0.2456
     69  N          6.4320  -11.0610   47.3930 N.3   308  MET308     -0.1245
     70  CA         6.2320   -9.7140   47.9050 C.3   308  MET308      0.1570
     71  C          5.6400   -9.8080   49.3030 C.2   308  MET308      0.2261
     72  O          4.6370  -10.4960   49.5050 O.2   308  MET308     -0.2867
     73  CB         5.2560   -8.9490   47.0150 C.3   308  MET308      0.0387
     74  CG         5.6870   -8.8350   45.5720 C.3   308  MET308      0.0595
     75  SD         7.0360   -7.6770   45.3870 S.3   308  MET308     -0.1393
     76  CE         7.2320   -7.7920   43.6070 C.3   308  MET308      0.0692
     77  N          6.2810   -3.9820   43.0520 N.3   314  ASN314     -0.1240
     78  CA         7.4680   -3.3800   42.4510 C.3   314  ASN314      0.1653
     79  C          7.5110   -1.8640   42.6500 C.2   314  ASN314      0.2266
     80  O          8.5900   -1.2820   42.7210 O.2   314  ASN314     -0.2867
     81  CB         7.6160   -3.7490   40.9690 C.3   314  ASN314      0.1155
     82  CG         6.7880   -2.8580   40.0500 C.2   314  ASN314      0.2627
     83  OD1        7.1280   -1.6900   39.8110 O.2   314  ASN314     -0.2716
     84  ND2        5.7100   -3.4150   39.5030 N.am  314  ASN314     -0.0877
     85  N         14.0610   -9.2720   39.1390 N.3   451  TYR451     -0.1241
     86  CA        12.7110   -9.6970   38.8310 C.3   451  TYR451      0.1605
     87  C         12.7470  -10.9050   37.9150 C.2   451  TYR451      0.2264
     88  O         13.3860  -10.8710   36.8660 O.2   451  TYR451     -0.2867
     89  CB        11.9480   -8.5390   38.1890 C.3   451  TYR451      0.0534
     90  CG        11.6280   -7.4610   39.1950 C.ar  451  TYR451     -0.0201
     91  CD1       10.6130   -7.6470   40.1260 C.ar  451  TYR451     -0.0009
     92  CD2       12.3500   -6.2720   39.2320 C.ar  451  TYR451     -0.0009
     93  CE1       10.3090   -6.6760   41.0560 C.ar  451  TYR451      0.0417
     94  CE2       12.0530   -5.2860   40.1680 C.ar  451  TYR451      0.0417
     95  CZ        11.0300   -5.4990   41.0740 C.ar  451  TYR451      0.1957
     96  OH        10.7020   -4.5440   42.0170 O.3   451  TYR451     -0.2866
     97  N         15.6000   -9.9160   35.5020 N.3   471  TYR471     -0.1241
     98  CA        16.0120   -8.5820   35.0570 C.3   471  TYR471      0.1605
     99  C         16.0450   -7.5730   36.2010 C.2   471  TYR471      0.2264
    100  O         15.3880   -7.7350   37.2410 O.2   471  TYR471     -0.2867
    101  CB        15.1140   -8.0650   33.9170 C.3   471  TYR471      0.0534
    102  CG        13.6770   -7.8290   34.3280 C.ar  471  TYR471     -0.0201
    103  CD1       12.7470   -8.8660   34.2920 C.ar  471  TYR471     -0.0009
    104  CD2       13.2460   -6.5680   34.7400 C.ar  471  TYR471     -0.0009
    105  CE1       11.4220   -8.6560   34.6580 C.ar  471  TYR471      0.0417
    106  CE2       11.9200   -6.3420   35.1160 C.ar  471  TYR471      0.0417
    107  CZ        11.0150   -7.3890   35.0730 C.ar  471  TYR471      0.1957
    108  OH         9.6980   -7.1800   35.4510 O.3   471  TYR471     -0.2866
    109  N         11.3150   -3.1960   31.7200 N.3   501  THR501     -0.1218
    110  CA        10.7340   -4.4610   32.1500 C.3   501  THR501      0.1862
    111  C         11.2650   -5.5070   31.1710 C.2   501  THR501      0.2287
    112  O         10.5720   -5.9150   30.2440 O.2   501  THR501     -0.2866
    113  CB         9.1950   -4.3760   32.1400 C.3   501  THR501      0.1770
    114  OG1        8.7950   -3.2450   32.9250 O.3   501  THR501     -0.2211
    115  CG2        8.5600   -5.6230   32.7310 C.3   501  THR501      0.0375
    116  N         11.6970   -8.5310   30.3320 N.3   503  GLU503     -0.1245
    117  CA        11.2820   -9.9290   30.4240 C.3   503  GLU503      0.1567
    118  C         11.9060  -10.7060   29.2720 C.2   503  GLU503      0.2260
    119  O         11.7390  -10.3510   28.0990 O.2   503  GLU503     -0.2867
    120  CB         9.7480  -10.0370   30.4270 C.3   503  GLU503      0.0388
    121  CG         9.0910   -9.4130   31.6860 C.3   503  GLU503      0.1160
    122  CD         7.6300   -9.0500   31.4860 C.2   503  GLU503      0.3649
    123  OE1        6.8710   -8.9570   32.4910 O.co2 503  GLU503     -0.2457
    124  OE2        7.2310   -8.8450   30.3200 O.co2 503  GLU503     -0.2457
    125  N         11.9680   -8.3120   26.0290 N.3   519  ARG519     -0.1245
    126  CA        11.1840   -7.0800   25.9650 C.3   519  ARG519      0.1563
    127  C         12.0680   -5.8790   26.2650 C.2   519  ARG519      0.2260
    128  O         12.9580   -5.9460   27.1190 O.2   519  ARG519     -0.2867
    129  CB        10.0620   -7.1630   27.0110 C.3   519  ARG519      0.0307
    130  CG         9.1790   -5.9280   27.1890 C.3   519  ARG519      0.0489
    131  CD         8.1960   -6.2010   28.3200 C.3   519  ARG519      0.2205
    132  NE         7.4730   -5.0140   28.7720 N.pl3 519  ARG519     -0.0865
    133  CZ         6.4830   -5.0510   29.6540 C.cat 519  ARG519      0.5346
    134  NH1        6.0950   -6.2150   30.1660 N.pl3 519  ARG519      0.1354
    135  NH2        5.8820   -3.9260   30.0150 N.pl3 519  ARG519      0.1354
    136  N         -1.6490   -4.0720   23.2260 N.3   581  ARG581     -0.1245
    137  CA        -1.3680   -5.5050   23.3110 C.3   581  ARG581      0.1563
    138  C         -2.4670   -6.2200   22.5500 C.2   581  ARG581      0.2260
    139  O         -3.4870   -6.6340   23.1130 O.2   581  ARG581     -0.2867
    140  CB        -1.2470   -5.9610   24.7740 C.3   581  ARG581      0.0307
    141  CG        -0.0330   -5.2990   25.4930 C.3   581  ARG581      0.0489
    142  CD         0.1220   -5.7340   26.9340 C.3   581  ARG581      0.2205
    143  NE         1.4610   -5.4260   27.4480 N.pl3 581  ARG581     -0.0865
    144  CZ         1.8100   -5.5100   28.7250 C.cat 581  ARG581      0.5346
    145  NH1        0.9150   -5.8920   29.6280 N.pl3 581  ARG581      0.1354
    146  NH2        3.0530   -5.2190   29.0940 N.pl3 581  ARG581      0.1354
    147  N          0.4580  -11.2740   27.4530 N.3   615  TYR615     -0.1241
    148  CA         1.4530  -12.2530   27.8820 C.3   615  TYR615      0.1605
    149  C          1.0500  -13.6250   27.3600 C.2   615  TYR615      0.2264
    150  O         -0.1390  -13.9240   27.2280 O.2   615  TYR615     -0.2867
    151  CB         1.5600  -12.2970   29.4000 C.3   615  TYR615      0.0534
    152  CG         2.4220  -11.2120   30.0220 C.ar  615  TYR615     -0.0201
    153  CD1        2.2890   -9.8730   29.6510 C.ar  615  TYR615     -0.0009
    154  CD2        3.3290  -11.5200   31.0270 C.ar  615  TYR615     -0.0009
    155  CE1        3.0720   -8.8700   30.2590 C.ar  615  TYR615      0.0417
    156  CE2        4.1000  -10.5350   31.6350 C.ar  615  TYR615      0.0417
    157  CZ         3.9660   -9.2200   31.2560 C.ar  615  TYR615      0.1957
    158  OH         4.7460   -8.2650   31.8840 O.3   615  TYR615     -0.2866
    159  N         -3.7830   -6.4510   28.4590 N.3   635  SER635     -0.1202
    160  CA        -3.4970   -6.3780   29.8970 C.3   635  SER635      0.2020
    161  C         -2.7680   -5.0960   30.3100 C.2   635  SER635      0.2618
    162  O         -2.4300   -4.9180   31.4890 O.2   635  SER635     -0.2717
    163  CB        -2.7360   -7.6210   30.3730 C.3   635  SER635      0.2103
    164  OG        -1.4990   -7.7480   29.6980 O.3   635  SER635     -0.2182
    165  N         -2.5290   -4.1960   29.3580 N.am  636  TRP636     -0.1975
    166  CA        -1.9930   -2.8740   29.6940 C.3   636  TRP636      0.1640
    167  C         -3.1090   -1.8510   29.8220 C.2   636  TRP636      0.2290
    168  O         -3.0740   -0.9880   30.7010 O.2   636  TRP636     -0.2864
    169  CB        -1.0210   -2.3930   28.6130 C.3   636  TRP636      0.0576
    170  CG        -0.2480   -1.1520   28.9990 C.ar  636  TRP636      0.0006
    171  CD1       -0.5530    0.1510   28.6750 C.ar  636  TRP636      0.0946
    172  CD2        0.9510   -1.1060   29.7740 C.ar  636  TRP636      0.0152
    173  NE1        0.3950    0.9980   29.2040 N.ar  636  TRP636     -0.2442
    174  CE2        1.3290    0.2590   29.8790 C.ar  636  TRP636      0.0810
    175  CE3        1.7540   -2.0750   30.3890 C.ar  636  TRP636      0.0012
    176  CZ2        2.4700    0.6630   30.5720 C.ar  636  TRP636      0.0191
    177  CZ3        2.8890   -1.6700   31.0750 C.ar  636  TRP636      0.0001
    178  CH2        3.2330   -0.3110   31.1670 C.ar  636  TRP636      0.0015
@<TRIPOS>BOND
     1   138   139    2
     2   138   137    1
     3   136   137    1
     4   137   140    1
     5   140   141    1
     6   141   142    1
     7   126   125    1
     8   126   127    1
     9   126   129    1
    10   127   128    2
    11   142   143    1
    12   129   130    1
    13   130   131    1
    14   150   149    2
    15   149   148    1
    16   143   144    2
    17   147   148    1
    18   148   151    1
    19   119   118    2
    20   131   132    1
    21   159   160    1
    22   169   170    1
    23   169   166    1
    24   171   170   ar
    25   171   173   ar
    26   144   146    1
    27   144   145    1
    28   132   133    2
    29   170   172   ar
    30   173   174   ar
    31   118   117    1
    32   165   166    1
    33   165   161   am
    34   151   152    1
    35   153   152   ar
    36   153   155   ar
    37   133   135    1
    38   133   134    1
    39   166   167    1
    40   164   163    1
    41   172   174   ar
    42   172   175   ar
    43   167   168    2
    44   174   176   ar
    45   160   161    1
    46   160   163    1
    47   152   154   ar
    48   112   111    2
    49   155   157   ar
    50   161   162    2
    51   124   122   ar
    52   116   117    1
    53   175   177   ar
    54   117   120    1
    55   120   121    1
    56   176   178   ar
    57   154   156   ar
    58   177   178   ar
    59   111   110    1
    60   157   156   ar
    61   157   158    1
    62   122   121    1
    63   122   123   ar
    64   109   110    1
    65    11     9    1
    66   113   110    1
    67   113   115    1
    68   113   114    1
    69     9     8    2
    70     9    10    1
    71     8     7    1
    72    14    13    1
    73    14    15    2
    74    13    12    1
    75    13    16    1
    76    12     3   am
    77   101   102    1
    78   101    98    1
    79    19    17    1
    80     7     6    1
    81   103   102   ar
    82   103   105   ar
    83   102   104   ar
    84     6     5    1
    85     2     3    1
    86     2     5    1
    87     2     1    1
    88    18    16    1
    89     3     4    2
    90   105   107   ar
    91    16    17    1
    92   104   106   ar
    93    98    97    1
    94    98    99    1
    95   107   106   ar
    96   107   108    1
    97    99   100    2
    98    59    58   ar
    99    88    87    2
   100    60    58   ar
   101    58    57    1
   102    29    28    1
   103    30    28    1
   104    57    54    1
   105    28    27    2
   106    54    55    1
   107    54    53    1
   108    87    86    1
   109    55    56    2
   110    89    86    1
   111    89    90    1
   112    27    26    1
   113    26    25    1
   114    86    85    1
   115    37    36   ar
   116    53    47   am
   117    36    35    1
   118    36    38   ar
   119    35    32    1
   120    90    92   ar
   121    90    91   ar
   122    92    94   ar
   123    31    32    1
   124    25    24    1
   125    84    82   am
   126    83    82    2
   127    50    52    1
   128    50    49    1
   129    32    33    1
   130    24    21    1
   131    82    81    1
   132    91    93   ar
   133    94    95   ar
   134    47    48    2
   135    47    46    1
   136    68    66   ar
   137    20    21    1
   138    67    66   ar
   139    81    78    1
   140    66    65    1
   141    23    22    2
   142    93    95   ar
   143    95    96    1
   144    21    22    1
   145    46    49    1
   146    46    45    1
   147    49    51    1
   148    33    34    2
   149    33    39   am
   150    61    62    1
   151    39    40    1
   152    65    62    1
   153    78    79    1
   154    78    77    1
   155    79    80    2
   156    42    41    2
   157    62    63    1
   158    40    41    1
   159    40    43    1
   160    76    75    1
   161    44    43    1
   162    64    63    2
   163    75    74    1
   164    74    73    1
   165    73    70    1
   166    69    70    1
   167    70    71    1
   168    71    72    2
