@<TRIPOS>MOLECULE
tmp/4xjcB01.pdb
 84 78 0 0 0
SMALL
GASTEIGER

@<TRIPOS>ATOM
      1  N         16.3990   14.7830   30.5900 N.3    28  GLN28      -0.1245
      2  CA        15.3720   13.7550   30.5200 C.3    28  GLN28       0.1566
      3  C         15.4380   12.8640   31.7870 C.2    28  GLN28       0.2260
      4  O         16.3030   13.0380   32.6040 O.2    28  GLN28      -0.2867
      5  CB        15.5920   12.9320   29.2420 C.3    28  GLN28       0.0367
      6  CG        15.3360   13.6960   27.9610 C.3    28  GLN28       0.0905
      7  CD        13.9330   14.2810   27.9090 C.2    28  GLN28       0.2608
      8  OE1       12.9430   13.6020   28.1800 O.2    28  GLN28      -0.2717
      9  NE2       13.8490   15.5540   27.5650 N.am   28  GLN28      -0.0878
     10  N         19.2490   15.1160   26.0150 N.3    33  ASP33      -0.1239
     11  CA        19.1390   15.2330   24.5730 C.3    33  ASP33       0.1674
     12  C         20.1810   16.2130   24.0320 C.2    33  ASP33       0.2266
     13  O         20.4010   17.2750   24.6210 O.2    33  ASP33      -0.2867
     14  CB        17.7440   15.7060   24.1690 C.3    33  ASP33       0.1410
     15  CG        16.6690   14.6570   24.3660 C.2    33  ASP33       0.3668
     16  OD1       16.9550   13.4490   24.4010 O.co2  33  ASP33      -0.2456
     17  OD2       15.4900   15.0530   24.4780 O.co2  33  ASP33      -0.2456
     18  N         23.3240    7.7000   22.0080 N.3    96  GLU96      -0.1231
     19  CA        22.3540    6.9450   21.2440 C.3    96  GLU96       0.1699
     20  C         21.3070    7.8670   20.6290 C.2    96  GLU96       0.2593
     21  O         21.1570    9.0220   21.0140 O.2    96  GLU96      -0.2718
     22  CB        21.6670    5.9400   22.1240 C.3    96  GLU96       0.0402
     23  CG        20.9570    6.5650   23.3240 C.3    96  GLU96       0.1161
     24  CD        19.9590    5.6230   23.9410 C.2    96  GLU96       0.3649
     25  OE1       18.9350    5.3170   23.2680 O.co2  96  GLU96      -0.2457
     26  OE2       20.1510    5.2550   25.1090 O.co2  96  GLU96      -0.2457
     27  N         20.6280    7.3700   19.6110 N.am   97  GLY97      -0.1942
     28  CA        19.6320    8.1660   18.9340 C.3    97  GLY97       0.2014
     29  C         18.4310    8.2790   19.8310 C.2    97  GLY97       0.2639
     30  O         18.3310    7.5510   20.8080 O.2    97  GLY97      -0.2714
     31  N         17.5390    9.1970   19.4920 N.am   98  ARG98      -0.1963
     32  CA        16.2160    9.2700   20.1070 C.3    98  ARG98       0.1729
     33  C         15.2590    8.3630   19.3750 C.2    98  ARG98       0.2617
     34  O         15.2750    8.3030   18.1400 O.2    98  ARG98      -0.2715
     35  CB        15.6810   10.7000   20.0320 C.3    98  ARG98       0.0348
     36  CG        16.3820   11.6930   20.9480 C.3    98  ARG98       0.0492
     37  CD        15.8290   13.0900   20.7670 C.3    98  ARG98       0.2205
     38  NE        14.4690   13.1740   21.2620 N.pl3  98  ARG98      -0.0865
     39  CZ        13.4920   13.9040   20.7260 C.cat  98  ARG98       0.5346
     40  NH1       13.7080   14.6530   19.6520 N.pl3  98  ARG98       0.1354
     41  NH2       12.2750   13.8760   21.2670 N.pl3  98  ARG98       0.1354
     42  N         14.4290    7.6520   20.1150 N.am   99  SER99      -0.1936
     43  CA        13.5240    6.6940   19.5110 C.3    99  SER99       0.2055
     44  C         12.7040    7.3050   18.3800 C.2    99  SER99       0.2643
     45  O         12.4830    6.6490   17.3680 O.2    99  SER99      -0.2714
     46  CB        12.6240    6.0720   20.5540 C.3    99  SER99       0.2130
     47  OG        11.8630    5.0050   19.9920 O.3    99  SER99      -0.2179
     48  N         12.2920    8.5630   18.5200 N.am  100  SER100     -0.1949
     49  CA        11.4820    9.2400   17.4790 C.3   100  SER100      0.1924
     50  C         12.2190    9.3460   16.1480 C.2   100  SER100      0.2314
     51  O         11.6140    9.3620   15.0900 O.2   100  SER100     -0.2863
     52  CB        11.0900   10.6560   17.9030 C.3   100  SER100      0.2116
     53  OG        10.1790   10.6490   18.9790 O.3   100  SER100     -0.2180
     54  N         12.8360    5.7070   14.5420 N.3   103  ARG103     -0.1245
     55  CA        11.5840    5.1890   13.9910 C.3   103  ARG103      0.1563
     56  C         11.2880    5.7030   12.5940 C.2   103  ARG103      0.2260
     57  O         10.4760    5.1280   11.8950 O.2   103  ARG103     -0.2867
     58  CB        10.4050    5.5180   14.8970 C.3   103  ARG103      0.0307
     59  CG        10.4140    4.7300   16.1850 C.3   103  ARG103      0.0489
     60  CD         9.2550    5.1240   17.0890 C.3   103  ARG103      0.2205
     61  NE         9.5470    4.9280   18.5160 N.pl3 103  ARG103     -0.0865
     62  CZ         8.6290    4.7040   19.4530 C.cat 103  ARG103      0.5346
     63  NH1        7.3280    4.6330   19.1580 N.pl3 103  ARG103      0.1354
     64  NH2        9.0290    4.5470   20.7110 N.pl3 103  ARG103      0.1354
     65  N         16.5960   18.1580   18.3980 N.3   141  ARG141     -0.1245
     66  CA        17.1770   17.1020   19.2430 C.3   141  ARG141      0.1563
     67  C         17.1960   15.7890   18.4860 C.2   141  ARG141      0.2260
     68  O         16.1520   15.2780   18.0780 O.2   141  ARG141     -0.2867
     69  CB        16.3910   16.9520   20.5340 C.3   141  ARG141      0.0307
     70  CG        16.4950   18.1820   21.4190 C.3   141  ARG141      0.0489
     71  CD        15.5970   18.1320   22.6400 C.3   141  ARG141      0.2205
     72  NE        14.1980   18.4520   22.3220 N.pl3 141  ARG141     -0.0865
     73  CZ        13.1450   17.6920   22.6370 C.cat 141  ARG141      0.5346
     74  NH1       13.3070   16.5650   23.3140 N.pl3 141  ARG141      0.1354
     75  NH2       11.9170   18.0670   22.2890 N.pl3 141  ARG141      0.1354
     76  N         20.9510   11.4400   22.3240 N.3   144  GLN144     -0.1245
     77  CA        21.0150   11.7000   23.7580 C.3   144  GLN144      0.1566
     78  C         22.1970   10.9970   24.3930 C.2   144  GLN144      0.2260
     79  O         22.7200   10.0400   23.8190 O.2   144  GLN144     -0.2867
     80  CB        19.6930   11.2780   24.4340 C.3   144  GLN144      0.0367
     81  CG        19.4670    9.7830   24.4870 C.3   144  GLN144      0.0905
     82  CD        18.0110    9.3770   24.6510 C.2   144  GLN144      0.2608
     83  OE1       17.3870    9.6790   25.6590 O.2   144  GLN144     -0.2717
     84  NE2       17.4560    8.7000   23.6380 N.am  144  GLN144     -0.0878
@<TRIPOS>BOND
     1    57    56    2
     2    56    55    1
     3    55    54    1
     4    55    58    1
     5    58    59    1
     6    51    50    2
     7    50    49    1
     8    59    60    1
     9    60    61    1
    10    45    44    2
    11    49    52    1
    12    49    48    1
    13    52    53    1
    14    68    67    2
    15    34    33    2
    16    44    48   am
    17    44    43    1
    18    65    66    1
    19    67    66    1
    20    61    62    2
    21    28    27    1
    22    28    29    1
    23    63    62    1
    24    66    69    1
    25    33    32    1
    26    33    42   am
    27    62    64    1
    28    31    29   am
    29    31    32    1
    30    43    42    1
    31    43    46    1
    32    27    20   am
    33    40    39    1
    34    29    30    2
    35    47    46    1
    36    35    32    1
    37    35    36    1
    38    69    70    1
    39    20    21    2
    40    20    19    1
    41    39    38    2
    42    39    41    1
    43    37    36    1
    44    37    38    1
    45    19    18    1
    46    19    22    1
    47    70    71    1
    48    22    23    1
    49    75    73    1
    50    72    73    2
    51    72    71    1
    52    76    77    1
    53    73    74    1
    54    25    24   ar
    55    23    24    1
    56    84    82   am
    57    77    78    1
    58    77    80    1
    59    79    78    2
    60    24    26   ar
    61    12    11    1
    62    12    13    2
    63    14    15    1
    64    14    11    1
    65    15    16   ar
    66    15    17   ar
    67    80    81    1
    68    81    82    1
    69    11    10    1
    70    82    83    2
    71     9     7   am
    72     7     6    1
    73     7     8    2
    74     6     5    1
    75     5     2    1
    76     2     1    1
    77     2     3    1
    78     3     4    2
