@<TRIPOS>MOLECULE
tmp/4xjcB00.pdb
 145 139 0 0 0
SMALL
GASTEIGER

@<TRIPOS>ATOM
      1  N         26.2130    7.4650   23.9010 N.3    95  VAL95      -0.1245
      2  CA        25.5120    8.2230   22.8830 C.3    95  VAL95       0.1561
      3  C         24.5710    7.2780   22.1730 C.2    95  VAL95       0.2260
      4  O         24.9900    6.2160   21.7110 O.2    95  VAL95      -0.2867
      5  CB        26.4710    8.8090   21.8050 C.3    95  VAL95       0.0252
      6  CG1       25.7180    9.6650   20.7850 C.3    95  VAL95       0.0019
      7  CG2       27.5800    9.6280   22.4360 C.3    95  VAL95       0.0019
      8  N         26.6960    5.6400   15.3980 N.3   110  ASN110     -0.1240
      9  CA        27.8740    5.8800   16.2400 C.3   110  ASN110      0.1653
     10  C         27.6460    5.5320   17.7030 C.2   110  ASN110      0.2266
     11  O         28.4900    5.8040   18.5480 O.2   110  ASN110     -0.2867
     12  CB        28.3090    7.3490   16.1350 C.3   110  ASN110      0.1155
     13  CG        27.1670    8.2910   16.3820 C.2   110  ASN110      0.2627
     14  OD1       26.3620    8.5440   15.4730 O.2   110  ASN110     -0.2716
     15  ND2       27.0510    8.7790   17.6080 N.am  110  ASN110     -0.0877
     16  N         27.7150    4.5690   21.1930 N.3   112  GLY112     -0.1210
     17  CA        28.7570    3.9980   22.0570 C.3   112  GLY112      0.1956
     18  C         29.1020    4.8500   23.2610 C.2   112  GLY112      0.2612
     19  O         28.5390    5.9360   23.4650 O.2   112  GLY112     -0.2717
     20  N         30.0790    4.3690   24.0200 N.am  113  TRP113     -0.1962
     21  CA        30.5090    5.0100   25.2500 C.3   113  TRP113      0.1771
     22  C         31.6380    6.0070   25.0470 C.2   113  TRP113      0.2619
     23  O         32.6920    5.6760   24.4930 O.2   113  TRP113     -0.2715
     24  CB        30.9290    3.9530   26.2530 C.3   113  TRP113      0.0590
     25  CG        29.7670    3.1270   26.7040 C.ar  113  TRP113      0.0006
     26  CD1       29.3460    1.9520   26.1690 C.ar  113  TRP113      0.0946
     27  CD2       28.8600    3.4220   27.7850 C.ar  113  TRP113      0.0152
     28  NE1       28.2530    1.4880   26.8480 N.ar  113  TRP113     -0.2442
     29  CE2       27.9310    2.3720   27.8470 C.ar  113  TRP113      0.0810
     30  CE3       28.7380    4.4780   28.6840 C.ar  113  TRP113      0.0012
     31  CZ2       26.8920    2.3430   28.7830 C.ar  113  TRP113      0.0191
     32  CZ3       27.7360    4.4330   29.6290 C.ar  113  TRP113      0.0001
     33  CH2       26.8220    3.3740   29.6690 C.ar  113  TRP113      0.0015
     34  N         31.4170    7.2430   25.4930 N.am  114  VAL114     -0.1963
     35  CA        32.4390    8.3100   25.4190 C.3   114  VAL114      0.1727
     36  C         33.5190    8.1230   26.5000 C.2   114  VAL114      0.2616
     37  O         33.1870    7.8520   27.6450 O.2   114  VAL114     -0.2715
     38  CB        31.7900    9.6980   25.5860 C.3   114  VAL114      0.0290
     39  CG1       32.8480   10.8030   25.5820 C.3   114  VAL114      0.0023
     40  CG2       30.7660    9.9340   24.4870 C.3   114  VAL114      0.0023
     41  N         34.7910    8.2130   26.1010 N.am  115  ASP115     -0.1971
     42  CA        35.9170    8.0020   27.0190 C.3   115  ASP115      0.1709
     43  C         35.8780    9.0320   28.1380 C.2   115  ASP115      0.2293
     44  O         35.5920   10.2160   27.8760 O.2   115  ASP115     -0.2864
     45  CB        37.2490    8.1490   26.2940 C.3   115  ASP115      0.1436
     46  CG        37.4140    7.1570   25.1600 C.2   115  ASP115      0.3671
     47  OD1       36.6990    7.2950   24.1500 O.co2 115  ASP115     -0.2456
     48  OD2       38.2740    6.2630   25.2620 O.co2 115  ASP115     -0.2456
     49  N         36.9150   12.9800   27.9360 N.3   118  PHE118     -0.1241
     50  CA        36.6890   13.5060   26.5960 C.3   118  PHE118      0.1605
     51  C         36.2070   14.9410   26.6640 C.2   118  PHE118      0.2264
     52  O         35.4200   15.3010   27.5460 O.2   118  PHE118     -0.2867
     53  CB        35.6830   12.6900   25.7970 C.3   118  PHE118      0.0534
     54  CG        35.4310   13.2560   24.4310 C.ar  118  PHE118     -0.0203
     55  CD1       36.3820   13.1090   23.4130 C.ar  118  PHE118     -0.0042
     56  CD2       34.2810   13.9770   24.1600 C.ar  118  PHE118     -0.0042
     57  CE1       36.1720   13.6550   22.1450 C.ar  118  PHE118     -0.0003
     58  CE2       34.0520   14.5130   22.8950 C.ar  118  PHE118     -0.0003
     59  CZ        34.9910   14.3410   21.8820 C.ar  118  PHE118     -0.0000
     60  N         30.3330   16.0960   19.7030 N.3   122  ILE122     -0.1231
     61  CA        30.1660   14.6890   19.3800 C.3   122  ILE122      0.1692
     62  C         29.9040   14.5900   17.9030 C.2   122  ILE122      0.2592
     63  O         28.9610   15.1840   17.3990 O.2   122  ILE122     -0.2718
     64  CB        28.9810   14.0680   20.1570 C.3   122  ILE122      0.0266
     65  CG1       29.1840   14.2200   21.6720 C.3   122  ILE122      0.0019
     66  CG2       28.7970   12.5980   19.8280 C.3   122  ILE122      0.0020
     67  CD1       30.3980   13.5130   22.2270 C.3   122  ILE122      0.0001
     68  N         30.7050   13.7870   17.2250 N.am  123  THR123     -0.1953
     69  CA        30.5240   13.4930   15.8200 C.3   123  THR123      0.1897
     70  C         29.5310   12.3270   15.6800 C.2   123  THR123      0.2313
     71  O         29.6570   11.3070   16.3320 O.2   123  THR123     -0.2863
     72  CB        31.8870   13.1860   15.1380 C.3   123  THR123      0.1794
     73  OG1       32.6730   14.3870   15.0650 O.3   123  THR123     -0.2208
     74  CG2       31.6910   12.6600   13.7370 C.3   123  THR123      0.0378
     75  N         27.2440    9.6130   13.2470 N.3   125  GLU125     -0.1245
     76  CA        27.2130    8.8460   12.0410 C.3   125  GLU125      0.1567
     77  C         25.7510    8.6240   11.6350 C.2   125  GLU125      0.2260
     78  O         25.0790    7.8030   12.2270 O.2   125  GLU125     -0.2867
     79  CB        27.9210    7.5110   12.2960 C.3   125  GLU125      0.0388
     80  CG        29.4020    7.6660   12.6880 C.3   125  GLU125      0.1160
     81  CD        29.9380    6.4780   13.4630 C.2   125  GLU125      0.3649
     82  OE1       29.4060    5.3560   13.2770 O.co2 125  GLU125     -0.2457
     83  OE2       30.9360    6.6410   14.2000 O.co2 125  GLU125     -0.2457
     84  N         41.1830   10.3300   28.4710 N.3   157  TYR157     -0.1241
     85  CA        41.2870   10.3350   27.0230 C.3   157  TYR157      0.1605
     86  C         42.3760   11.2990   26.5230 C.2   157  TYR157      0.2264
     87  O         42.3510   12.4940   26.7890 O.2   157  TYR157     -0.2867
     88  CB        39.9520   10.6850   26.3810 C.3   157  TYR157      0.0534
     89  CG        39.9680   10.5730   24.8730 C.ar  157  TYR157     -0.0201
     90  CD1       40.0810    9.3360   24.2500 C.ar  157  TYR157     -0.0009
     91  CD2       39.8670   11.7060   24.0650 C.ar  157  TYR157     -0.0009
     92  CE1       40.1010    9.2250   22.8660 C.ar  157  TYR157      0.0417
     93  CE2       39.8880   11.6090   22.6790 C.ar  157  TYR157      0.0417
     94  CZ        39.9990   10.3620   22.0830 C.ar  157  TYR157      0.1957
     95  OH        40.0170   10.2620   20.7040 O.3   157  TYR157     -0.2866
     96  N         43.3620   10.8160   23.0690 N.3   159  GLY159     -0.1210
     97  CA        43.3660   10.2730   21.7210 C.3   159  GLY159      0.1956
     98  C         43.2030   11.2900   20.6080 C.2   159  GLY159      0.2612
     99  O         43.4320   12.4780   20.7780 O.2   159  GLY159     -0.2717
    100  N         42.8380   10.7810   19.4420 N.am  160  LYS160     -0.1965
    101  CA        42.8400   11.5540   18.1970 C.3   160  LYS160      0.1728
    102  C         41.8730   12.7310   18.2290 C.2   160  LYS160      0.2616
    103  O         42.1410   13.7490   17.6240 O.2   160  LYS160     -0.2715
    104  CB        42.4110   10.6650   17.0260 C.3   160  LYS160      0.0311
    105  CG        43.2470    9.4250   16.7850 C.3   160  LYS160      0.0038
    106  CD        42.3840    8.3630   16.1210 C.3   160  LYS160      0.0206
    107  CE        43.1860    7.1730   15.6610 C.3   160  LYS160      0.1093
    108  NZ        43.9140    6.5310   16.7840 N.3   160  LYS160     -0.1314
    109  N         40.7490   12.5720   18.9180 N.am  161  TYR161     -0.1974
    110  CA        39.6130   13.4870   18.7570 C.3   161  TYR161      0.1639
    111  C         39.4200   14.4970   19.8960 C.2   161  TYR161      0.2290
    112  O         38.3620   15.1180   20.0140 O.2   161  TYR161     -0.2864
    113  CB        38.3440   12.6630   18.5440 C.3   161  TYR161      0.0560
    114  CG        38.4950   11.7030   17.3970 C.ar  161  TYR161     -0.0198
    115  CD1       38.6350   12.1700   16.1030 C.ar  161  TYR161     -0.0009
    116  CD2       38.5610   10.3350   17.6040 C.ar  161  TYR161     -0.0009
    117  CE1       38.8150   11.3140   15.0470 C.ar  161  TYR161      0.0417
    118  CE2       38.7820    9.4640   16.5500 C.ar  161  TYR161      0.0417
    119  CZ        38.8790    9.9590   15.2730 C.ar  161  TYR161      0.1957
    120  OH        39.0510    9.1130   14.2070 O.3   161  TYR161     -0.2866
    121  N         37.6690   18.1710   19.4430 N.3   164  GLN164     -0.1245
    122  CA        37.1040   18.1920   18.1100 C.3   164  GLN164      0.1566
    123  C         35.9250   19.1890   18.0350 C.2   164  GLN164      0.2260
    124  O         35.1420   19.3490   18.9880 O.2   164  GLN164     -0.2867
    125  CB        36.7090   16.7810   17.6060 C.3   164  GLN164      0.0367
    126  CG        35.4220   16.1800   18.1640 C.3   164  GLN164      0.0905
    127  CD        35.1580   14.7690   17.6750 C.2   164  GLN164      0.2608
    128  OE1       35.9110   14.2090   16.9050 O.2   164  GLN164     -0.2717
    129  NE2       34.0490   14.1830   18.1370 N.am  164  GLN164     -0.0878
    130  N         41.7010    7.2770   11.6010 N.3   172  ILE172     -0.1245
    131  CA        42.0990    5.8810   11.8440 C.3   172  ILE172      0.1561
    132  C         43.5430    5.5560   11.3880 C.2   172  ILE172      0.2260
    133  O         44.2570    4.7860   12.0520 O.2   172  ILE172     -0.2867
    134  CB        41.1020    4.9130   11.1610 C.3   172  ILE172      0.0252
    135  CG1       41.3160    3.4550   11.5780 C.3   172  ILE172      0.0019
    136  CG2       41.2360    4.9810    9.6530 C.3   172  ILE172      0.0019
    137  CD1       40.8930    3.1430   12.9790 C.3   172  ILE172      0.0001
    138  N         46.4950    5.3970   13.9080 N.3   175  ASP175     -0.1239
    139  CA        46.7320    4.2980   14.8430 C.3   175  ASP175      0.1674
    140  C         48.2120    3.9400   14.9080 C.2   175  ASP175      0.2266
    141  O         48.8490    3.7900   13.8870 O.2   175  ASP175     -0.2867
    142  CB        45.9630    3.0500   14.4150 C.3   175  ASP175      0.1410
    143  CG        44.4970    3.0980   14.7990 C.2   175  ASP175      0.3668
    144  OD1       44.0650    4.0820   15.4460 O.co2 175  ASP175     -0.2456
    145  OD2       43.7610    2.1420   14.4460 O.co2 175  ASP175     -0.2456
@<TRIPOS>BOND
     1   136   134    1
     2   134   135    1
     3   134   131    1
     4   132   131    1
     5   132   133    2
     6   135   137    1
     7   130   131    1
     8    77    76    1
     9    77    78    2
    10    76    79    1
    11    76    75    1
    12    79    80    1
    13    80    81    1
    14    82    81   ar
    15    81    83   ar
    16    74    72    1
    17   141   140    2
    18   138   139    1
    19   120   119    1
    20   142   143    1
    21   142   139    1
    22   145   143   ar
    23   143   144   ar
    24   139   140    1
    25   117   119   ar
    26   117   115   ar
    27    73    72    1
    28    72    69    1
    29   119   118   ar
    30     8     9    1
    31    14    13    2
    32   107   106    1
    33   107   108    1
    34    70    69    1
    35    70    71    2
    36    69    68    1
    37   115   114   ar
    38   106   105    1
    39    12     9    1
    40    12    13    1
    41     9    10    1
    42    13    15   am
    43   118   116   ar
    44   105   104    1
    45   128   127    2
    46   104   101    1
    47    68    62   am
    48   114   116   ar
    49   114   113    1
    50    63    62    2
    51   125   122    1
    52   125   126    1
    53   103   102    2
    54   127   129   am
    55   127   126    1
    56    10    11    2
    57    62    61    1
    58   123   122    1
    59   123   124    2
    60   122   121    1
    61   101   102    1
    62   101   100    1
    63   102   109   am
    64   113   110    1
    65   110   109    1
    66   110   111    1
    67    61    60    1
    68    61    64    1
    69   100    98   am
    70    66    64    1
    71   111   112    2
    72    64    65    1
    73    98    99    2
    74    98    97    1
    75    95    94    1
    76     6     5    1
    77    16    17    1
    78    65    67    1
    79     4     3    2
    80    97    96    1
    81     5     7    1
    82     5     2    1
    83    59    57   ar
    84    59    58   ar
    85    17    18    1
    86    94    93   ar
    87    94    92   ar
    88    57    55   ar
    89     3     2    1
    90    93    91   ar
    91    92    90   ar
    92     2     1    1
    93    58    56   ar
    94    18    19    2
    95    18    20   am
    96    55    54   ar
    97    20    21    1
    98    91    89   ar
    99    47    46   ar
   100    56    54   ar
   101    90    89   ar
   102    54    53    1
   103    40    38    1
   104    23    22    2
   105    89    88    1
   106    22    21    1
   107    22    34   am
   108    46    48   ar
   109    46    45    1
   110    21    24    1
   111    35    34    1
   112    35    38    1
   113    35    36    1
   114    39    38    1
   115    53    50    1
   116    41    36   am
   117    41    42    1
   118    26    25   ar
   119    26    28   ar
   120    24    25    1
   121    45    42    1
   122    88    85    1
   123    36    37    2
   124    86    87    2
   125    86    85    1
   126    50    51    1
   127    50    49    1
   128    51    52    2
   129    25    27   ar
   130    28    29   ar
   131    42    43    1
   132    85    84    1
   133    27    29   ar
   134    27    30   ar
   135    29    31   ar
   136    44    43    2
   137    30    32   ar
   138    31    33   ar
   139    32    33   ar
