@<TRIPOS>MOLECULE
tmp/4xjeA00.pdb
 128 124 0 0 0
SMALL
GASTEIGER

@<TRIPOS>ATOM
      1  N          6.3590   22.5860   59.5380 N.3    26  GLY26      -0.1210
      2  CA         7.4100   23.5580   59.3030 C.3    26  GLY26       0.1956
      3  C          7.0270   24.9890   59.6230 C.2    26  GLY26       0.2612
      4  O          6.3590   25.2610   60.6220 O.2    26  GLY26      -0.2717
      5  N          7.4610   25.9050   58.7650 N.am   27  GLY27      -0.1956
      6  CA         7.2550   27.3260   58.9810 C.3    27  GLY27       0.1869
      7  C          5.8030   27.7150   59.1700 C.2    27  GLY27       0.2309
      8  O          5.4820   28.4970   60.0650 O.2    27  GLY27      -0.2863
      9  N          4.4330   26.7860   62.6060 N.3    30  ILE30      -0.1245
     10  CA         4.8110   27.7600   63.6230 C.3    30  ILE30       0.1561
     11  C          3.8160   28.9160   63.6090 C.2    30  ILE30       0.2260
     12  O          3.2350   29.2540   64.6380 O.2    30  ILE30      -0.2867
     13  CB         6.2520   28.2850   63.3980 C.3    30  ILE30       0.0252
     14  CG1        7.2590   27.1460   63.5870 C.3    30  ILE30       0.0019
     15  CG2        6.5720   29.4360   64.3490 C.3    30  ILE30       0.0019
     16  CD1        8.6860   27.5000   63.1960 C.3    30  ILE30       0.0001
     17  N          7.5050   32.0270   53.7260 N.3    41  HIS41      -0.1226
     18  CA         7.7850   30.6070   53.7890 C.3    41  HIS41       0.1752
     19  C          8.0700   30.1270   52.3620 C.2    41  HIS41       0.2596
     20  O          7.3900   30.5250   51.4170 O.2    41  HIS41      -0.2718
     21  CB         6.6050   29.8680   54.4300 C.3    41  HIS41       0.0759
     22  CG         6.1430   30.4740   55.7250 C.ar   41  HIS41       0.0818
     23  ND1        6.8440   30.3530   56.9080 N.ar   41  HIS41      -0.2268
     24  CD2        5.0400   31.2000   56.0210 C.ar   41  HIS41       0.1154
     25  CE1        6.1960   30.9810   57.8740 C.ar   41  HIS41       0.1986
     26  NE2        5.0970   31.5050   57.3620 N.ar   41  HIS41      -0.2212
     27  N          9.1060   29.3030   52.2170 N.am   42  ASP42      -0.1960
     28  CA         9.5690   28.8670   50.8960 C.3    42  ASP42       0.1840
     29  C          8.5440   27.9570   50.2470 C.2    42  ASP42       0.2622
     30  O          8.4290   27.9010   49.0220 O.2    42  ASP42      -0.2715
     31  CB        10.9030   28.1180   50.9850 C.3    42  ASP42       0.1450
     32  CG        12.0720   29.0190   51.3320 C.2    42  ASP42       0.3671
     33  OD1       11.8950   30.2530   51.3900 O.co2  42  ASP42      -0.2456
     34  OD2       13.1770   28.4800   51.5600 O.co2  42  ASP42      -0.2456
     35  N          7.8110   27.2300   51.0810 N.am   43  ASP43      -0.1971
     36  CA         6.8920   26.2220   50.5930 C.3    43  ASP43       0.1709
     37  C          5.8300   25.9130   51.6340 C.2    43  ASP43       0.2293
     38  O          5.7890   26.5290   52.7020 O.2    43  ASP43      -0.2864
     39  CB         7.6570   24.9460   50.2210 C.3    43  ASP43       0.1436
     40  CG         8.5500   24.4460   51.3480 C.2    43  ASP43       0.3671
     41  OD1        8.3760   24.8840   52.5040 O.co2  43  ASP43      -0.2456
     42  OD2        9.4310   23.6040   51.0740 O.co2  43  ASP43      -0.2456
     43  N          4.5340   22.7940   53.8990 N.3    45  ASP45      -0.1239
     44  CA         4.8640   21.4670   54.3920 C.3    45  ASP45       0.1674
     45  C          3.6020   20.7550   54.8500 C.2    45  ASP45       0.2266
     46  O          2.8200   21.2990   55.6310 O.2    45  ASP45      -0.2867
     47  CB         5.8780   21.5550   55.5280 C.3    45  ASP45       0.1410
     48  CG         7.1720   22.2060   55.0940 C.2    45  ASP45       0.3668
     49  OD1        7.8680   21.6240   54.2340 O.co2  45  ASP45      -0.2456
     50  OD2        7.4930   23.2990   55.6090 O.co2  45  ASP45      -0.2456
     51  N          8.2510   20.2010   65.2270 N.3   127  ILE127     -0.1245
     52  CA         8.8040   21.3800   64.5630 C.3   127  ILE127      0.1561
     53  C         10.2770   21.5910   64.9290 C.2   127  ILE127      0.2260
     54  O         11.1310   21.7620   64.0530 O.2   127  ILE127     -0.2867
     55  CB         7.9800   22.6420   64.9340 C.3   127  ILE127      0.0252
     56  CG1        6.5840   22.5670   64.3040 C.3   127  ILE127      0.0019
     57  CG2        8.6820   23.9220   64.4820 C.3   127  ILE127      0.0019
     58  CD1        5.6140   23.6060   64.8410 C.3   127  ILE127      0.0001
     59  N         13.0790   18.9590   63.6390 N.3   130  ASP130     -0.1225
     60  CA        13.6420   19.0860   62.3020 C.3   130  ASP130      0.1805
     61  C         14.7740   20.1110   62.2390 C.2   130  ASP130      0.2597
     62  O         15.6140   20.0460   61.3420 O.2   130  ASP130     -0.2718
     63  CB        12.5490   19.4370   61.2880 C.3   130  ASP130      0.1424
     64  CG        11.7790   18.2150   60.8080 C.2   130  ASP130      0.3668
     65  OD1       12.2660   17.0810   61.0000 O.co2 130  ASP130     -0.2456
     66  OD2       10.6900   18.3860   60.2240 O.co2 130  ASP130     -0.2456
     67  N         14.8140   21.0490   63.1810 N.am  131  TYR131     -0.1976
     68  CA        15.9450   21.9730   63.2550 C.3   131  TYR131      0.1639
     69  C         17.2160   21.2690   63.7240 C.2   131  TYR131      0.2290
     70  O         18.3200   21.7030   63.3990 O.2   131  TYR131     -0.2864
     71  CB        15.6430   23.1490   64.1850 C.3   131  TYR131      0.0560
     72  CG        14.6840   24.1670   63.6140 C.ar  131  TYR131     -0.0198
     73  CD1       15.0870   25.0650   62.6360 C.ar  131  TYR131     -0.0009
     74  CD2       13.3780   24.2410   64.0680 C.ar  131  TYR131     -0.0009
     75  CE1       14.2070   26.0010   62.1210 C.ar  131  TYR131      0.0417
     76  CE2       12.4970   25.1670   63.5670 C.ar  131  TYR131      0.0417
     77  CZ        12.9130   26.0450   62.5950 C.ar  131  TYR131      0.1957
     78  OH        12.0190   26.9650   62.1000 O.3   131  TYR131     -0.2866
     79  N         18.2420   18.2000   62.8390 N.3   133  TYR133     -0.1227
     80  CA        18.8460   17.7080   61.5990 C.3   133  TYR133      0.1736
     81  C         19.5590   18.8340   60.8700 C.2   133  TYR133      0.2595
     82  O         20.6980   18.6920   60.4220 O.2   133  TYR133     -0.2718
     83  CB        17.8040   17.1200   60.6480 C.3   133  TYR133      0.0548
     84  CG        17.0760   15.8900   61.1250 C.ar  133  TYR133     -0.0200
     85  CD1       17.6770   14.6380   61.0960 C.ar  133  TYR133     -0.0009
     86  CD2       15.7650   15.9750   61.5530 C.ar  133  TYR133     -0.0009
     87  CE1       16.9920   13.5100   61.5120 C.ar  133  TYR133      0.0417
     88  CE2       15.0740   14.8650   61.9670 C.ar  133  TYR133      0.0417
     89  CZ        15.6860   13.6340   61.9460 C.ar  133  TYR133      0.1957
     90  OH        14.9750   12.5360   62.3660 O.3   133  TYR133     -0.2866
     91  N         18.8480   19.9480   60.7380 N.am  134  TYR134     -0.1976
     92  CA        19.3310   21.1150   60.0200 C.3   134  TYR134      0.1639
     93  C         20.6610   21.5850   60.6000 C.2   134  TYR134      0.2290
     94  O         21.5820   21.9420   59.8640 O.2   134  TYR134     -0.2864
     95  CB        18.2800   22.2280   60.0900 C.3   134  TYR134      0.0560
     96  CG        18.5000   23.4140   59.1740 C.ar  134  TYR134     -0.0198
     97  CD1       19.3490   23.3440   58.0730 C.ar  134  TYR134     -0.0009
     98  CD2       17.8450   24.6140   59.4170 C.ar  134  TYR134     -0.0009
     99  CE1       19.5330   24.4360   57.2470 C.ar  134  TYR134      0.0417
    100  CE2       18.0260   25.7040   58.5990 C.ar  134  TYR134      0.0417
    101  CZ        18.8700   25.6120   57.5190 C.ar  134  TYR134      0.1957
    102  OH        19.0460   26.7030   56.7070 O.3   134  TYR134     -0.2866
    103  N         23.7000   19.5140   59.5950 N.3   137  GLU137     -0.1231
    104  CA        24.0720   19.5800   58.1850 C.3   137  GLU137      0.1699
    105  C         24.5820   20.9560   57.7750 C.2   137  GLU137      0.2592
    106  O         25.5140   21.0650   56.9770 O.2   137  GLU137     -0.2718
    107  CB        22.8730   19.1910   57.3230 C.3   137  GLU137      0.0402
    108  CG        22.4620   17.7390   57.5000 C.3   137  GLU137      0.1161
    109  CD        21.0450   17.4650   57.0410 C.2   137  GLU137      0.3649
    110  OE1       20.4710   16.4430   57.4710 O.co2 137  GLU137     -0.2457
    111  OE2       20.5050   18.2680   56.2510 O.co2 137  GLU137     -0.2457
    112  N         23.9680   22.0010   58.3210 N.am  138  VAL138     -0.1980
    113  CA        24.3600   23.3740   58.0190 C.3   138  VAL138      0.1595
    114  C         24.7230   24.0940   59.3110 C.2   138  VAL138      0.2287
    115  O         23.9040   24.1510   60.2300 O.2   138  VAL138     -0.2864
    116  CB        23.2360   24.1490   57.3120 C.3   138  VAL138      0.0276
    117  CG1       23.7410   25.5130   56.8460 C.3   138  VAL138      0.0022
    118  CG2       22.6970   23.3490   56.1370 C.3   138  VAL138      0.0022
    119  N         14.9550   31.1490   59.0290 N.3   147  HIS147     -0.1241
    120  CA        15.0060   29.9070   59.7960 C.3   147  HIS147      0.1621
    121  C         15.4710   30.1370   61.2340 C.2   147  HIS147      0.2264
    122  O         14.9410   29.5260   62.1630 O.2   147  HIS147     -0.2867
    123  CB        15.9190   28.8890   59.1100 C.3   147  HIS147      0.0745
    124  CG        15.3200   28.2810   57.8790 C.ar  147  HIS147      0.0817
    125  ND1       14.0660   27.7090   57.8680 N.ar  147  HIS147     -0.2268
    126  CD2       15.8040   28.1490   56.6210 C.ar  147  HIS147      0.1154
    127  CE1       13.8020   27.2570   56.6560 C.ar  147  HIS147      0.1986
    128  NE2       14.8400   27.5110   55.8800 N.ar  147  HIS147     -0.2212
@<TRIPOS>BOND
     1    30    29    2
     2    39    36    1
     3    39    40    1
     4    29    28    1
     5    29    35   am
     6    36    35    1
     7    36    37    1
     8    28    31    1
     9    28    27    1
    10    31    32    1
    11    42    40   ar
    12    32    33   ar
    13    32    34   ar
    14    40    41   ar
    15    20    19    2
    16    37    38    2
    17    27    19   am
    18    19    18    1
    19    17    18    1
    20    18    21    1
    21    43    44    1
    22    49    48   ar
    23    44    45    1
    24    44    47    1
    25    21    22    1
    26    45    46    2
    27    48    47    1
    28    48    50   ar
    29    22    24   ar
    30    22    23   ar
    31   128   126   ar
    32   128   127   ar
    33    24    26   ar
    34   118   116    1
    35   111   109   ar
    36   126   124   ar
    37   127   125   ar
    38   102   101    1
    39   117   116    1
    40    23    25   ar
    41   106   105    2
    42   109   110   ar
    43   109   108    1
    44    99   101   ar
    45    99    97   ar
    46   116   113    1
    47   107   108    1
    48   107   104    1
    49    26    25   ar
    50   101   100   ar
    51   105   104    1
    52   105   112   am
    53   125   124   ar
    54   124   123    1
    55   113   112    1
    56   113   114    1
    57    97    96   ar
    58   104   103    1
    59   100    98   ar
    60     5     6    1
    61     5     3   am
    62     6     7    1
    63   119   120    1
    64   123   120    1
    65     7     8    2
    66    96    98   ar
    67    96    95    1
    68     2     1    1
    69     2     3    1
    70   114   115    2
    71     3     4    2
    72   120   121    1
    73    94    93    2
    74    92    95    1
    75    92    93    1
    76    92    91    1
    77    66    64   ar
    78    82    81    2
    79    83    84    1
    80    83    80    1
    81    91    81   am
    82    64    65   ar
    83    64    63    1
    84    81    80    1
    85    85    84   ar
    86    85    87   ar
    87    84    86   ar
    88   121   122    2
    89    63    60    1
    90    62    61    2
    91    87    89   ar
    92    86    88   ar
    93    80    79    1
    94    89    88   ar
    95    89    90    1
    96    78    77    1
    97    75    77   ar
    98    75    73   ar
    99    61    60    1
   100    61    67   am
   101    60    59    1
   102    77    76   ar
   103     9    10    1
   104    73    72   ar
   105    67    68    1
   106    16    14    1
   107    68    69    1
   108    68    71    1
   109    13    14    1
   110    13    10    1
   111    13    15    1
   112    70    69    2
   113    76    74   ar
   114    11    10    1
   115    11    12    2
   116    72    74   ar
   117    72    71    1
   118    54    53    2
   119    56    58    1
   120    56    55    1
   121    57    55    1
   122    52    53    1
   123    52    55    1
   124    52    51    1
