@<TRIPOS>MOLECULE
tmp/4xjjA00.pdb
 100 98 0 0 0
SMALL
GASTEIGER

@<TRIPOS>ATOM
      1  N         28.7820   66.9520    6.9870 N.3    13  CYS13      -0.1221
      2  CA        30.2060   67.0580    7.2950 C.3    13  CYS13       0.1808
      3  C         30.9930   67.6660    6.1360 C.2    13  CYS13       0.2601
      4  O         31.1130   67.0470    5.0790 O.2    13  CYS13      -0.2717
      5  CB        30.7620   65.6770    7.6390 C.3    13  CYS13       0.0970
      6  SG        32.5350   65.6160    7.9240 S.3    13  CYS13      -0.0800
      7  N         31.5290   68.8690    6.3460 N.am   14  ASP14      -0.1959
      8  CA        32.2490   69.5950    5.3060 C.3    14  ASP14       0.1840
      9  C         32.9460   70.8030    5.9290 C.2    14  ASP14       0.2622
     10  O         32.3720   71.4750    6.7830 O.2    14  ASP14      -0.2715
     11  CB        31.2830   70.0410    4.1970 C.3    14  ASP14       0.1450
     12  CG        31.9490   70.1690    2.8280 C.2    14  ASP14       0.3671
     13  OD1       33.0570   69.6230    2.6180 O.co2  14  ASP14      -0.2456
     14  OD2       31.3280   70.7900    1.9390 O.co2  14  ASP14      -0.2456
     15  N         34.1780   71.0630    5.5040 N.am   15  ASN15      -0.1958
     16  CA        34.9300   72.2480    5.9270 C.3    15  ASN15       0.1819
     17  C         35.0120   72.4050    7.4400 C.2    15  ASN15       0.2621
     18  O         34.7850   73.4810    7.9890 O.2    15  ASN15      -0.2715
     19  CB        34.3320   73.5090    5.3000 C.3    15  ASN15       0.1195
     20  CG        34.2950   73.4360    3.7930 C.2    15  ASN15       0.2630
     21  OD1       35.3370   73.3080    3.1480 O.2    15  ASN15      -0.2716
     22  ND2       33.1000   73.5230    3.2170 N.am   15  ASN15      -0.0877
     23  N         35.3380   71.3130    8.1100 N.am   16  GLN16      -0.1963
     24  CA        35.5330   71.3430    9.5470 C.3    16  GLN16       0.1733
     25  C         36.5960   70.3200    9.8900 C.2    16  GLN16       0.2616
     26  O         36.8150   69.3660    9.1390 O.2    16  GLN16      -0.2715
     27  CB        34.2270   71.0650   10.2880 C.3    16  GLN16       0.0408
     28  CG        33.5660   69.7800    9.8790 C.3    16  GLN16       0.0908
     29  CD        32.0920   69.7400   10.2220 C.2    16  GLN16       0.2608
     30  OE1       31.2400   69.8600    9.3380 O.2    16  GLN16      -0.2717
     31  NE2       31.7800   69.5410   11.5010 N.am   16  GLN16      -0.0878
     32  N         37.2630   70.5280   11.0170 N.am   17  LYS17      -0.1977
     33  CA        38.3970   69.7010   11.4050 C.3    17  LYS17       0.1596
     34  C         37.9780   68.3050   11.8680 C.2    17  LYS17       0.2287
     35  O         38.7100   67.3350   11.6650 O.2    17  LYS17      -0.2864
     36  CB        39.2000   70.4130   12.4990 C.3    17  LYS17       0.0298
     37  CG        39.7990   71.7530   12.0570 C.3    17  LYS17       0.0038
     38  CD        40.0200   72.6920   13.2390 C.3    17  LYS17       0.0206
     39  CE        40.7840   73.9570   12.8350 C.3    17  LYS17       0.1093
     40  NZ        40.0830   74.8010   11.8160 N.3    17  LYS17      -0.1314
     41  N         34.2610   65.6350   12.4790 N.3    19  CYS19      -0.1235
     42  CA        32.8300   65.4400   12.3320 C.3    19  CYS19       0.1677
     43  C         32.3100   64.3160   13.1970 C.2    19  CYS19       0.2270
     44  O         32.9990   63.3170   13.4220 O.2    19  CYS19      -0.2867
     45  CB        32.4640   65.1230   10.8800 C.3    19  CYS19       0.0956
     46  SG        32.7800   66.4790    9.7470 S.3    19  CYS19      -0.0801
     47  N         33.9880   59.0320    3.9230 N.3    40  TRP40      -0.1241
     48  CA        33.3760   60.3080    3.5570 C.3    40  TRP40       0.1605
     49  C         33.4720   60.5010    2.0510 C.2    40  TRP40       0.2264
     50  O         34.5530   60.3370    1.4790 O.2    40  TRP40      -0.2867
     51  CB        34.0750   61.4570    4.2890 C.3    40  TRP40       0.0550
     52  CG        33.5150   62.8340    4.0320 C.ar   40  TRP40       0.0003
     53  CD1       32.5890   63.4970    4.7910 C.ar   40  TRP40       0.0946
     54  CD2       33.8760   63.7310    2.9680 C.ar   40  TRP40       0.0152
     55  NE1       32.3520   64.7500    4.2650 N.ar   40  TRP40      -0.2442
     56  CE2       33.1230   64.9120    3.1430 C.ar   40  TRP40       0.0810
     57  CE3       34.7590   63.6460    1.8810 C.ar   40  TRP40       0.0012
     58  CZ2       33.2280   65.9980    2.2750 C.ar   40  TRP40       0.0191
     59  CZ3       34.8630   64.7320    1.0210 C.ar   40  TRP40       0.0001
     60  CH2       34.0990   65.8870    1.2220 C.ar   40  TRP40       0.0015
     61  N         31.9560   63.0310   -1.3760 N.3    42  LYS42      -0.1245
     62  CA        31.2060   64.1800   -1.8570 C.3    42  LYS42       0.1561
     63  C         31.0840   64.1040   -3.3690 C.2    42  LYS42       0.2260
     64  O         32.0790   63.8890   -4.0680 O.2    42  LYS42      -0.2867
     65  CB        31.8750   65.4900   -1.4390 C.3    42  LYS42       0.0271
     66  CG        31.1010   66.7440   -1.8300 C.3    42  LYS42       0.0035
     67  CD        31.7330   68.0060   -1.2420 C.3    42  LYS42       0.0206
     68  CE        30.8960   69.2380   -1.5610 C.3    42  LYS42       0.1093
     69  NZ        31.4370   70.4710   -0.9220 N.3    42  LYS42      -0.1314
     70  N         42.8990   60.7670    2.2740 N.3    77  GLU77      -0.1245
     71  CA        42.3560   60.7460    0.9240 C.3    77  GLU77       0.1567
     72  C         42.7270   59.4610    0.1920 C.2    77  GLU77       0.2260
     73  O         43.8780   59.0160    0.2280 O.2    77  GLU77      -0.2867
     74  CB        42.8450   61.9730    0.1500 C.3    77  GLU77       0.0388
     75  CG        42.1160   62.2130   -1.1550 C.3    77  GLU77       0.1160
     76  CD        42.5040   63.5270   -1.8090 C.2    77  GLU77       0.3649
     77  OE1       43.6120   64.0320   -1.5360 O.co2  77  GLU77      -0.2457
     78  OE2       41.6910   64.0660   -2.5850 O.co2  77  GLU77      -0.2457
     79  N         37.4430   59.8890    1.2010 N.3    86  PHE86      -0.1241
     80  CA        38.2480   59.9060    2.4200 C.3    86  PHE86       0.1605
     81  C         37.8240   58.7470    3.3070 C.2    86  PHE86       0.2264
     82  O         36.6350   58.4670    3.4500 O.2    86  PHE86      -0.2867
     83  CB        38.0960   61.2350    3.1670 C.3    86  PHE86       0.0534
     84  CG        38.8920   62.3640    2.5690 C.ar   86  PHE86      -0.0203
     85  CD1       38.5290   62.9260    1.3560 C.ar   86  PHE86      -0.0042
     86  CD2       40.0070   62.8640    3.2260 C.ar   86  PHE86      -0.0042
     87  CE1       39.2700   63.9710    0.8060 C.ar   86  PHE86      -0.0003
     88  CE2       40.7450   63.9030    2.6880 C.ar   86  PHE86      -0.0003
     89  CZ        40.3770   64.4560    1.4780 C.ar   86  PHE86      -0.0000
     90  N         39.6110   65.1090   10.2750 N.3   101  PHE101     -0.1241
     91  CA        40.1130   65.4120    8.9340 C.3   101  PHE101      0.1605
     92  C         41.4120   66.1890    8.9810 C.2   101  PHE101      0.2264
     93  O         41.5780   67.1870    8.2860 O.2   101  PHE101     -0.2867
     94  CB        39.0670   66.1800    8.1340 C.3   101  PHE101      0.0534
     95  CG        37.9110   65.3360    7.7020 C.ar  101  PHE101     -0.0203
     96  CD1       37.9450   64.6590    6.4900 C.ar  101  PHE101     -0.0042
     97  CD2       36.7980   65.1900    8.5140 C.ar  101  PHE101     -0.0042
     98  CE1       36.8850   63.8690    6.0920 C.ar  101  PHE101     -0.0003
     99  CE2       35.7330   64.4030    8.1160 C.ar  101  PHE101     -0.0003
    100  CZ        35.7760   63.7430    6.9030 C.ar  101  PHE101     -0.0000
@<TRIPOS>BOND
     1    64    63    2
     2    63    62    1
     3    78    76   ar
     4    62    65    1
     5    62    61    1
     6    66    65    1
     7    66    67    1
     8    76    77   ar
     9    76    75    1
    10    68    67    1
    11    68    69    1
    12    75    74    1
    13    74    71    1
    14    72    73    2
    15    72    71    1
    16    87    85   ar
    17    87    89   ar
    18    71    70    1
    19    59    60   ar
    20    59    57   ar
    21    79    80    1
    22    60    58   ar
    23    85    84   ar
    24    89    88   ar
    25    50    49    2
    26    57    54   ar
    27    14    12   ar
    28    49    48    1
    29    58    56   ar
    30    80    83    1
    31    80    81    1
    32    84    83    1
    33    84    86   ar
    34    13    12   ar
    35    88    86   ar
    36    12    11    1
    37    54    56   ar
    38    54    52   ar
    39    56    55   ar
    40    21    20    2
    41    22    20   am
    42    81    82    2
    43    48    47    1
    44    48    51    1
    45    20    19    1
    46    52    51    1
    47    52    53   ar
    48    11     8    1
    49    55    53   ar
    50     4     3    2
    51    19    16    1
    52     8     9    1
    53     8     7    1
    54    15    16    1
    55    15     9   am
    56    16    17    1
    57     9    10    2
    58    98    96   ar
    59    98   100   ar
    60     3     7   am
    61     3     2    1
    62    96    95   ar
    63   100    99   ar
    64     1     2    1
    65     2     5    1
    66    17    18    2
    67    17    23   am
    68     5     6    1
    69    95    94    1
    70    95    97   ar
    71     6    46    1
    72    23    24    1
    73    99    97   ar
    74    94    91    1
    75    93    92    2
    76    91    92    1
    77    91    90    1
    78    26    25    2
    79    30    29    2
    80    24    25    1
    81    24    27    1
    82    46    45    1
    83    28    29    1
    84    28    27    1
    85    25    32   am
    86    29    31   am
    87    45    42    1
    88    32    33    1
    89    33    34    1
    90    33    36    1
    91    35    34    2
    92    40    39    1
    93    37    36    1
    94    37    38    1
    95    42    41    1
    96    42    43    1
    97    39    38    1
    98    43    44    2
