@<TRIPOS>MOLECULE
tmp/4xjlB01.pdb
 121 118 0 0 0
SMALL
GASTEIGER

@<TRIPOS>ATOM
      1  N         14.4300   -4.3150  -33.4280 N.3    17  PRO17      -0.2102
      2  CA        13.6460   -3.1490  -33.8660 C.3    17  PRO17       0.1504
      3  C         13.9500   -2.8200  -35.3280 C.2    17  PRO17       0.2575
      4  O         15.1230   -2.6980  -35.6880 O.2    17  PRO17      -0.2718
      5  CB        14.1520   -2.0200  -32.9640 C.3    17  PRO17       0.0282
      6  CG        14.7870   -2.6960  -31.7940 C.3    17  PRO17       0.0208
      7  CD        15.3420   -3.9780  -32.3200 C.3    17  PRO17       0.0893
      8  N         12.9100   -2.7100  -36.1560 N.am   18  TYR18      -0.1977
      9  CA        13.0640   -2.3410  -37.5760 C.3    18  TYR18       0.1639
     10  C         14.1350   -3.1880  -38.2960 C.2    18  TYR18       0.2290
     11  O         14.9700   -2.6650  -39.0440 O.2    18  TYR18      -0.2864
     12  CB        13.3640   -0.8350  -37.6940 C.3    18  TYR18       0.0560
     13  CG        12.1440    0.0230  -37.4470 C.ar   18  TYR18      -0.0198
     14  CD1       11.4110    0.5330  -38.5140 C.ar   18  TYR18      -0.0009
     15  CD2       11.7080    0.3130  -36.1480 C.ar   18  TYR18      -0.0009
     16  CE1       10.2850    1.3130  -38.3000 C.ar   18  TYR18       0.0417
     17  CE2       10.5740    1.0920  -35.9260 C.ar   18  TYR18       0.0417
     18  CZ         9.8730    1.5910  -37.0090 C.ar   18  TYR18       0.1957
     19  OH         8.7470    2.3760  -36.8090 O.3    18  TYR18      -0.2866
     20  N         18.5580    3.7270  -25.4860 N.3    57  TRP57      -0.1241
     21  CA        17.4190    4.3460  -26.1820 C.3    57  TRP57       0.1605
     22  C         16.6120    5.2530  -25.2680 C.2    57  TRP57       0.2264
     23  O         15.3930    5.0900  -25.1130 O.2    57  TRP57      -0.2867
     24  CB        16.5840    3.2630  -26.8830 C.3    57  TRP57       0.0550
     25  CG        15.6230    3.7370  -27.9560 C.ar   57  TRP57       0.0003
     26  CD1       14.2290    3.6820  -27.9240 C.ar   57  TRP57       0.0946
     27  CD2       15.9490    4.3040  -29.2690 C.ar   57  TRP57       0.0152
     28  NE1       13.6870    4.1790  -29.0810 N.ar   57  TRP57      -0.2442
     29  CE2       14.6600    4.5770  -29.9290 C.ar   57  TRP57       0.0810
     30  CE3       17.1330    4.6250  -29.9360 C.ar   57  TRP57       0.0012
     31  CZ2       14.5860    5.1360  -31.2000 C.ar   57  TRP57       0.0191
     32  CZ3       17.0400    5.1870  -31.2250 C.ar   57  TRP57       0.0001
     33  CH2       15.8000    5.4370  -31.8340 C.ar   57  TRP57       0.0015
     34  N          8.5750   14.3850  -37.1440 N.3   149  GLY149     -0.1210
     35  CA         8.1740   13.8320  -35.8530 C.3   149  GLY149      0.1956
     36  C          8.1960   12.3180  -35.7760 C.2   149  GLY149      0.2611
     37  O          8.3260   11.6280  -36.7890 O.2   149  GLY149     -0.2717
     38  N          8.0850   11.8150  -34.5510 N.am  150  TYR150     -0.1976
     39  CA         7.9190   10.3860  -34.3010 C.3   150  TYR150      0.1639
     40  C          7.0510   10.2070  -33.0690 C.2   150  TYR150      0.2290
     41  O          7.3000   10.8490  -32.0470 O.2   150  TYR150     -0.2864
     42  CB         9.2650    9.7000  -34.0720 C.3   150  TYR150      0.0560
     43  CG         9.0920    8.2230  -33.7840 C.ar  150  TYR150     -0.0198
     44  CD1        8.5780    7.3670  -34.7640 C.ar  150  TYR150     -0.0009
     45  CD2        9.4010    7.6930  -32.5330 C.ar  150  TYR150     -0.0009
     46  CE1        8.3990    6.0150  -34.5120 C.ar  150  TYR150      0.0417
     47  CE2        9.2300    6.3380  -32.2750 C.ar  150  TYR150      0.0417
     48  CZ         8.7290    5.5150  -33.2640 C.ar  150  TYR150      0.1957
     49  OH         8.5550    4.1770  -33.0110 O.3   150  TYR150     -0.2866
     50  N          4.7350    3.2660  -33.1040 N.3   153  ASP153     -0.1239
     51  CA         4.6590    2.2670  -34.1800 C.3   153  ASP153      0.1674
     52  C          3.3030    1.5960  -34.3520 C.2   153  ASP153      0.2266
     53  O          3.1090    0.8570  -35.3130 O.2   153  ASP153     -0.2867
     54  CB         5.6900    1.1560  -33.9320 C.3   153  ASP153      0.1410
     55  CG         7.1010    1.6360  -34.0490 C.2   153  ASP153      0.3668
     56  OD1        8.0110    0.9490  -33.5230 O.co2 153  ASP153     -0.2456
     57  OD2        7.3060    2.6980  -34.6710 O.co2 153  ASP153     -0.2456
     58  N          3.5280   10.1500  -37.6930 N.3   161  CYS161     -0.1221
     59  CA         4.9780   10.0760  -37.8370 C.3   161  CYS161      0.1808
     60  C          5.4220   10.7460  -39.1360 C.2   161  CYS161      0.2601
     61  O          4.6330   10.8640  -40.0820 O.2   161  CYS161     -0.2717
     62  CB         5.4690    8.6250  -37.7760 C.3   161  CYS161      0.0970
     63  SG         5.3000    7.8800  -36.1180 S.3   161  CYS161     -0.0800
     64  N          6.6710   11.2050  -39.1680 N.am  162  ASP162     -0.1973
     65  CA         7.2320   11.8150  -40.3820 C.3   162  ASP162      0.1709
     66  C          7.0300   10.8870  -41.5830 C.2   162  ASP162      0.2293
     67  O          7.4230    9.7240  -41.5300 O.2   162  ASP162     -0.2864
     68  CB         8.7170   12.1350  -40.1940 C.3   162  ASP162      0.1436
     69  CG         9.3090   12.8440  -41.3920 C.2   162  ASP162      0.3671
     70  OD1        8.9700   14.0310  -41.6020 O.co2 162  ASP162     -0.2456
     71  OD2       10.0930   12.2030  -42.1270 O.co2 162  ASP162     -0.2456
     72  N         10.5500    9.2860  -42.7990 N.3   165  GLY165     -0.1210
     73  CA        11.0670    8.3930  -41.7680 C.3   165  GLY165      0.1956
     74  C         10.1880    7.1690  -41.5990 C.2   165  GLY165      0.2612
     75  O         10.6860    6.0660  -41.3710 O.2   165  GLY165     -0.2717
     76  N          8.8750    7.3680  -41.7140 N.am  166  GLY166     -0.1956
     77  CA         7.8980    6.2920  -41.5200 C.3   166  GLY166      0.1869
     78  C          7.5790    5.4860  -42.7640 C.2   166  GLY166      0.2309
     79  O          6.7150    4.5990  -42.7230 O.2   166  GLY166     -0.2863
     80  N         13.4670   10.6850  -32.6360 N.3   219  ALA219     -0.1231
     81  CA        13.7230    9.6160  -33.5980 C.3   219  ALA219      0.1694
     82  C         13.5840   10.0460  -35.0650 C.2   219  ALA219      0.2592
     83  O         14.1300    9.3970  -35.9600 O.2   219  ALA219     -0.2718
     84  CB        12.8160    8.4280  -33.2980 C.3   219  ALA219      0.0304
     85  N         12.8630   11.1410  -35.3030 N.am  220  GLY220     -0.1957
     86  CA        12.6630   11.6630  -36.6560 C.3   220  GLY220      0.1869
     87  C         13.8070   12.5120  -37.1880 C.2   220  GLY220      0.2309
     88  O         13.7520   12.9760  -38.3300 O.2   220  GLY220     -0.2863
     89  N         25.1940    4.1950  -31.3650 N.3   393  ARG393     -0.1245
     90  CA        24.4590    3.7040  -32.5230 C.3   393  ARG393      0.1563
     91  C         23.9400    4.8680  -33.3600 C.2   393  ARG393      0.2260
     92  O         22.8870    5.4470  -33.0680 O.2   393  ARG393     -0.2867
     93  CB        23.3380    2.7350  -32.1360 C.3   393  ARG393      0.0307
     94  CG        22.8270    1.9190  -33.3160 C.3   393  ARG393      0.0489
     95  CD        22.2140    0.6060  -32.8680 C.3   393  ARG393      0.2205
     96  NE        21.8790   -0.2650  -33.9940 N.pl3 393  ARG393     -0.0865
     97  CZ        22.7320   -1.1070  -34.5700 C.cat 393  ARG393      0.5346
     98  NH1       23.9850   -1.1930  -34.1390 N.pl3 393  ARG393      0.1354
     99  NH2       22.3340   -1.8630  -35.5840 N.pl3 393  ARG393      0.1354
    100  N         22.2380    6.7420  -36.5990 N.3   395  PHE395     -0.1227
    101  CA        21.2330    6.4120  -37.6080 C.3   395  PHE395      0.1736
    102  C         21.2130    7.5110  -38.6520 C.2   395  PHE395      0.2595
    103  O         21.4610    8.6820  -38.3340 O.2   395  PHE395     -0.2718
    104  CB        19.8400    6.1210  -37.0070 C.3   395  PHE395      0.0547
    105  CG        19.0870    7.3400  -36.5340 C.ar  395  PHE395     -0.0202
    106  CD1       18.1740    7.9800  -37.3670 C.ar  395  PHE395     -0.0042
    107  CD2       19.2610    7.8230  -35.2430 C.ar  395  PHE395     -0.0042
    108  CE1       17.4700    9.0980  -36.9290 C.ar  395  PHE395     -0.0003
    109  CE2       18.5560    8.9370  -34.7940 C.ar  395  PHE395     -0.0003
    110  CZ        17.6620    9.5770  -35.6390 C.ar  395  PHE395     -0.0000
    111  N         20.9360    7.1190  -39.8950 N.am  396  ARG396     -0.1980
    112  CA        21.0080    8.0180  -41.0370 C.3   396  ARG396      0.1597
    113  C         22.3540    8.7520  -41.0310 C.2   396  ARG396      0.2287
    114  O         23.3980    8.0970  -40.9660 O.2   396  ARG396     -0.2864
    115  CB        19.7870    8.9530  -41.0730 C.3   396  ARG396      0.0334
    116  CG        18.5630    8.2760  -41.6770 C.3   396  ARG396      0.0492
    117  CD        17.2820    8.6000  -40.9290 C.3   396  ARG396      0.2205
    118  NE        16.9520   10.0200  -41.0010 N.pl3 396  ARG396     -0.0865
    119  CZ        15.9860   10.6080  -40.3020 C.cat 396  ARG396      0.5346
    120  NH1       15.2360    9.9030  -39.4600 N.pl3 396  ARG396      0.1354
    121  NH2       15.7770   11.9090  -40.4430 N.pl3 396  ARG396      0.1354
@<TRIPOS>BOND
     1    72    73    1
     2    78    79    2
     3    78    77    1
     4    71    69   ar
     5    73    74    1
     6    76    74   am
     7    76    77    1
     8   116   115    1
     9   116   117    1
    10    70    69   ar
    11    74    75    2
    12    66    67    2
    13    66    65    1
    14    69    68    1
    15   115   112    1
    16   112   113    1
    17   112   111    1
    18   113   114    2
    19   118   117    1
    20   118   119    2
    21   121   119    1
    22    65    68    1
    23    65    64    1
    24   119   120    1
    25    61    60    2
    26   111   102   am
    27    64    60   am
    28    60    59    1
    29    11    10    2
    30   102   103    2
    31   102   101    1
    32    14    16   ar
    33    14    13   ar
    34    88    87    2
    35    16    18   ar
    36    10     9    1
    37    59    62    1
    38    59    58    1
    39    62    63    1
    40    12     9    1
    41    12    13    1
    42   101   104    1
    43   101   100    1
    44     9     8    1
    45    13    15   ar
    46   106   108   ar
    47   106   105   ar
    48    87    86    1
    49    34    35    1
    50    18    19    1
    51    18    17   ar
    52   104   105    1
    53   108   110   ar
    54    37    36    2
    55    86    85    1
    56   105   107   ar
    57     8     3   am
    58    15    17   ar
    59    83    82    2
    60    35    36    1
    61    36    38   am
    62     4     3    2
    63   110   109   ar
    64    99    97    1
    65     3     2    1
    66    53    52    2
    67    85    82   am
    68   107   109   ar
    69    82    81    1
    70    44    46   ar
    71    44    43   ar
    72    57    55   ar
    73    97    98    1
    74    97    96    2
    75    38    39    1
    76    46    48   ar
    77    52    51    1
    78    39    42    1
    79    39    40    1
    80    51    54    1
    81    51    50    1
    82    42    43    1
    83    55    54    1
    84    55    56   ar
    85    96    95    1
    86     2     1    1
    87     2     5    1
    88    43    45   ar
    89    81    84    1
    90    81    80    1
    91     1     7    1
    92    91    92    2
    93    91    90    1
    94    94    95    1
    95    94    93    1
    96    48    49    1
    97    48    47   ar
    98    40    41    2
    99     5     6    1
   100    45    47   ar
   101    90    93    1
   102    90    89    1
   103     7     6    1
   104    33    32   ar
   105    33    31   ar
   106    32    30   ar
   107    31    29   ar
   108    30    27   ar
   109    29    27   ar
   110    29    28   ar
   111    27    25   ar
   112    28    26   ar
   113    25    26   ar
   114    25    24    1
   115    24    21    1
   116    21    20    1
   117    21    22    1
   118    22    23    2
