@<TRIPOS>MOLECULE
tmp/4xjmB00.pdb
 76 75 0 0 0
SMALL
GASTEIGER

@<TRIPOS>ATOM
      1  N          4.8780  -26.5480  -10.7110 N.3    84  MET84      -0.1230
      2  CA         5.6600  -27.1980  -11.7720 C.3    84  MET84       0.1702
      3  C          6.1690  -28.5720  -11.3270 C.2    84  MET84       0.2592
      4  O          6.5830  -28.7520  -10.1820 O.2    84  MET84      -0.2718
      5  CB         6.8160  -26.3060  -12.2420 C.3    84  MET84       0.0401
      6  CG         7.8900  -26.0390  -11.1910 C.3    84  MET84       0.0596
      7  SD         8.9850  -24.6960  -11.6870 S.3    84  MET84      -0.1393
      8  CE        10.1990  -25.5760  -12.6650 C.3    84  MET84       0.0692
      9  N          6.1290  -29.5390  -12.2370 N.am   85  PHE85      -0.1962
     10  CA         6.5530  -30.9070  -11.9210 C.3    85  PHE85       0.1771
     11  C          8.0530  -31.0960  -12.1440 C.2    85  PHE85       0.2620
     12  O          8.5980  -32.1740  -11.8890 O.2    85  PHE85      -0.2715
     13  CB         5.7320  -31.9140  -12.7410 C.3    85  PHE85       0.0574
     14  CG         5.4340  -33.2060  -12.0170 C.ar   85  PHE85      -0.0200
     15  CD1        4.8420  -33.2070  -10.7470 C.ar   85  PHE85      -0.0042
     16  CD2        5.7120  -34.4340  -12.6220 C.ar   85  PHE85      -0.0042
     17  CE1        4.5560  -34.4030  -10.0950 C.ar   85  PHE85      -0.0003
     18  CE2        5.4230  -35.6290  -11.9750 C.ar   85  PHE85      -0.0003
     19  CZ         4.8450  -35.6170  -10.7100 C.ar   85  PHE85      -0.0000
     20  N          8.7210  -30.0440  -12.6170 N.am   86  GLY86      -0.1954
     21  CA        10.1760  -30.0450  -12.7350 C.3    86  GLY86       0.1869
     22  C         10.8060  -29.7610  -11.3850 C.2    86  GLY86       0.2309
     23  O         10.8680  -28.6060  -10.9610 O.2    86  GLY86      -0.2863
     24  N          7.3680  -42.0170  -28.4280 N.3   126  LYS126     -0.1245
     25  CA         8.7010  -41.5810  -28.0160 C.3   126  LYS126      0.1561
     26  C          9.3760  -42.6160  -27.1150 C.2   126  LYS126      0.2260
     27  O         10.5650  -42.9120  -27.2760 O.2   126  LYS126     -0.2867
     28  CB         8.6360  -40.2290  -27.3120 C.3   126  LYS126      0.0271
     29  CG         9.9980  -39.6100  -27.0320 C.3   126  LYS126      0.0035
     30  CD         9.8750  -38.1670  -26.5600 C.3   126  LYS126      0.0206
     31  CE         9.5280  -37.2170  -27.6940 C.3   126  LYS126      0.1093
     32  NZ         9.3760  -35.8260  -27.1660 N.3   126  LYS126     -0.1314
     33  N         12.7750  -37.5490  -23.2460 N.3   307  MET307     -0.1230
     34  CA        12.8670  -36.1380  -23.5910 C.3   307  MET307      0.1702
     35  C         11.4890  -35.5160  -23.8530 C.2   307  MET307      0.2592
     36  O         11.1360  -35.1920  -24.9830 O.2   307  MET307     -0.2718
     37  CB        13.8410  -35.9270  -24.7630 C.3   307  MET307      0.0401
     38  CG        15.2540  -36.4560  -24.5050 C.3   307  MET307      0.0596
     39  SD        15.9570  -36.0610  -22.8810 S.3   307  MET307     -0.1393
     40  CE        16.6460  -34.4300  -23.1380 C.3   307  MET307      0.0692
     41  N         10.7120  -35.3760  -22.7820 N.am  308  HIS308     -0.1962
     42  CA         9.3550  -34.8460  -22.8620 C.3   308  HIS308      0.1787
     43  C          8.9940  -34.2640  -21.5260 C.2   308  HIS308      0.2621
     44  O          9.4140  -34.7770  -20.4990 O.2   308  HIS308     -0.2715
     45  CB         8.3850  -35.9660  -23.2280 C.3   308  HIS308      0.0785
     46  CG         7.1990  -35.5040  -24.0400 C.ar  308  HIS308      0.0821
     47  ND1        7.0910  -35.7370  -25.3630 N.ar  308  HIS308     -0.2267
     48  CD2        6.0640  -34.7900  -23.6730 C.ar  308  HIS308      0.1154
     49  CE1        5.9400  -35.2050  -25.8160 C.ar  308  HIS308      0.1986
     50  NE2        5.3160  -34.6230  -24.7800 N.ar  308  HIS308     -0.2212
     51  N          8.2090  -33.1890  -21.5270 N.am  309  GLY309     -0.1940
     52  CA         7.8120  -32.5360  -20.2750 C.3   309  GLY309      0.1998
     53  C          6.7910  -31.4320  -20.4870 C.2   309  GLY309      0.2481
     54  O          7.1690  -30.2560  -20.6580 O.2   309  GLY309     -0.2729
     55  N          5.4910  -31.7880  -20.4880 N.am  310  PRO310     -0.2715
     56  CA         4.4420  -30.7800  -20.6630 C.3   310  PRO310      0.1536
     57  C          4.4240  -29.7720  -19.5190 C.2   310  PRO310      0.2599
     58  O          4.6230  -30.1440  -18.3610 O.2   310  PRO310     -0.2715
     59  CB         3.1480  -31.6060  -20.6250 C.3   310  PRO310      0.0310
     60  CG         3.5620  -32.9940  -20.9640 C.3   310  PRO310      0.0237
     61  CD         4.9260  -33.1460  -20.3650 C.3   310  PRO310      0.0939
     62  N          4.1600  -28.5120  -19.8520 N.am  311  THR311     -0.1951
     63  CA         4.0780  -27.4450  -18.8590 C.3   311  THR311      0.1897
     64  C          3.1940  -27.8080  -17.6690 C.2   311  THR311      0.2313
     65  O          3.5930  -27.6230  -16.5140 O.2   311  THR311     -0.2863
     66  CB         3.5450  -26.1590  -19.5030 C.3   311  THR311      0.1794
     67  OG1        4.4590  -25.7360  -20.5160 O.3   311  THR311     -0.2208
     68  CG2        3.3970  -25.0500  -18.4690 C.3   311  THR311      0.0378
     69  N          2.2200  -30.7700  -16.7210 N.3   313  MET313     -0.1245
     70  CA         2.4340  -32.1570  -16.2930 C.3   313  MET313      0.1570
     71  C          1.9850  -32.4010  -14.8540 C.2   313  MET313      0.2261
     72  O          2.4190  -31.7050  -13.9320 O.2   313  MET313     -0.2867
     73  CB         3.9110  -32.5180  -16.4120 C.3   313  MET313      0.0387
     74  CG         4.1880  -33.9970  -16.2690 C.3   313  MET313      0.0595
     75  SD         5.8990  -34.3550  -16.6720 S.3   313  MET313     -0.1393
     76  CE         5.8130  -36.1480  -16.6160 C.3   313  MET313      0.0692
@<TRIPOS>BOND
     1    24    25    1
     2    25    28    1
     3    25    26    1
     4    31    32    1
     5    31    30    1
     6    28    29    1
     7    27    26    2
     8    29    30    1
     9    49    47   ar
    10    49    50   ar
    11    47    46   ar
    12    36    35    2
    13    50    48   ar
    14    37    38    1
    15    37    34    1
    16    38    39    1
    17    46    48   ar
    18    46    45    1
    19    35    34    1
    20    35    41   am
    21    34    33    1
    22    45    42    1
    23    40    39    1
    24    42    41    1
    25    42    43    1
    26    51    43   am
    27    51    52    1
    28    43    44    2
    29    60    59    1
    30    60    61    1
    31    56    59    1
    32    56    55    1
    33    56    57    1
    34    54    53    2
    35    67    66    1
    36    55    53   am
    37    55    61    1
    38    53    52    1
    39    62    57   am
    40    62    63    1
    41    57    58    2
    42    66    63    1
    43    66    68    1
    44    63    64    1
    45    64    65    2
    46    69    70    1
    47    75    76    1
    48    75    74    1
    49    73    70    1
    50    73    74    1
    51    70    71    1
    52    71    72    2
    53    13    14    1
    54    13    10    1
    55    21    20    1
    56    21    22    1
    57     8     7    1
    58    16    14   ar
    59    16    18   ar
    60    20    11   am
    61     5     2    1
    62     5     6    1
    63     9    10    1
    64     9     3   am
    65    11    10    1
    66    11    12    2
    67    14    15   ar
    68    18    19   ar
    69     2     3    1
    70     2     1    1
    71     7     6    1
    72    22    23    2
    73     3     4    2
    74    15    17   ar
    75    19    17   ar
