@<TRIPOS>MOLECULE
tmp/4xjmB02.pdb
 147 144 0 0 0
SMALL
GASTEIGER

@<TRIPOS>ATOM
      1  N        -14.5470  -28.7470  -33.5060 N.3    17  PRO17      -0.2102
      2  CA       -13.8260  -29.9240  -34.0000 C.3    17  PRO17       0.1504
      3  C        -14.1330  -30.1880  -35.4700 C.2    17  PRO17       0.2575
      4  O        -15.3050  -30.2170  -35.8510 O.2    17  PRO17      -0.2718
      5  CB       -14.3690  -31.0580  -33.1280 C.3    17  PRO17       0.0282
      6  CG       -14.7840  -30.3890  -31.8630 C.3    17  PRO17       0.0208
      7  CD       -15.3250  -29.0540  -32.2920 C.3    17  PRO17       0.0893
      8  N        -13.0860  -30.3220  -36.2850 N.am   18  TYR18      -0.1977
      9  CA       -13.2340  -30.6840  -37.7000 C.3    18  TYR18       0.1639
     10  C        -14.2660  -29.8060  -38.4190 C.2    18  TYR18       0.2290
     11  O        -15.1290  -30.2980  -39.1550 O.2    18  TYR18      -0.2864
     12  CB       -13.5860  -32.1700  -37.8020 C.3    18  TYR18       0.0560
     13  CG       -12.4010  -33.0640  -37.5390 C.ar   18  TYR18      -0.0198
     14  CD1      -11.6810  -33.6010  -38.5970 C.ar   18  TYR18      -0.0009
     15  CD2      -11.9890  -33.3640  -36.2340 C.ar   18  TYR18      -0.0009
     16  CE1      -10.5920  -34.4160  -38.3800 C.ar   18  TYR18       0.0417
     17  CE2      -10.8900  -34.1850  -36.0060 C.ar   18  TYR18       0.0417
     18  CZ       -10.1990  -34.7030  -37.0900 C.ar   18  TYR18       0.1957
     19  OH        -9.1150  -35.5300  -36.9010 O.3    18  TYR18      -0.2866
     20  N        -18.5050  -36.9070  -25.4770 N.3    57  TRP57      -0.1241
     21  CA       -17.3510  -37.5170  -26.1530 C.3    57  TRP57       0.1605
     22  C        -16.5530  -38.4280  -25.2480 C.2    57  TRP57       0.2264
     23  O        -15.3350  -38.2710  -25.0970 O.2    57  TRP57      -0.2867
     24  CB       -16.4800  -36.4380  -26.8110 C.3    57  TRP57       0.0550
     25  CG       -15.7530  -36.9140  -28.0450 C.ar   57  TRP57       0.0003
     26  CD1      -14.3780  -37.0250  -28.2320 C.ar   57  TRP57       0.0946
     27  CD2      -16.3470  -37.3590  -29.3140 C.ar   57  TRP57       0.0152
     28  NE1      -14.0910  -37.4980  -29.4880 N.ar   57  TRP57      -0.2442
     29  CE2      -15.2240  -37.7180  -30.1880 C.ar   57  TRP57       0.0810
     30  CE3      -17.6470  -37.4920  -29.7940 C.ar   57  TRP57       0.0012
     31  CZ2      -15.4190  -38.1820  -31.4820 C.ar   57  TRP57       0.0191
     32  CZ3      -17.8300  -37.9620  -31.1020 C.ar   57  TRP57       0.0001
     33  CH2      -16.7420  -38.2990  -31.9220 C.ar   57  TRP57       0.0015
     34  N         -8.0810  -44.8950  -34.6830 N.3   150  TYR150     -0.1241
     35  CA        -7.9530  -43.4590  -34.4170 C.3   150  TYR150      0.1605
     36  C         -7.0600  -43.2790  -33.1970 C.2   150  TYR150      0.2264
     37  O         -7.2500  -43.9540  -32.1910 O.2   150  TYR150     -0.2867
     38  CB        -9.3220  -42.7960  -34.1720 C.3   150  TYR150      0.0534
     39  CG        -9.1730  -41.3180  -33.8610 C.ar  150  TYR150     -0.0201
     40  CD1       -8.8740  -40.4120  -34.8780 C.ar  150  TYR150     -0.0009
     41  CD2       -9.2920  -40.8400  -32.5560 C.ar  150  TYR150     -0.0009
     42  CE1       -8.7120  -39.0640  -34.6060 C.ar  150  TYR150      0.0417
     43  CE2       -9.1360  -39.4940  -32.2760 C.ar  150  TYR150      0.0417
     44  CZ        -8.8410  -38.6220  -33.3040 C.ar  150  TYR150      0.1957
     45  OH        -8.6870  -37.2920  -33.0250 O.3   150  TYR150     -0.2866
     46  N         -4.8830  -36.2790  -33.1700 N.3   153  ASP153     -0.1239
     47  CA        -4.8070  -35.3140  -34.2700 C.3   153  ASP153      0.1674
     48  C         -3.4450  -34.6470  -34.4690 C.2   153  ASP153      0.2266
     49  O         -3.2460  -33.9410  -35.4580 O.2   153  ASP153     -0.2867
     50  CB        -5.8610  -34.2190  -34.0700 C.3   153  ASP153      0.1410
     51  CG        -7.2730  -34.7300  -34.2000 C.2   153  ASP153      0.3668
     52  OD1       -8.1920  -34.0710  -33.6710 O.co2 153  ASP153     -0.2456
     53  OD2       -7.4760  -35.7950  -34.8270 O.co2 153  ASP153     -0.2456
     54  N         -1.6020  -38.8340  -36.2290 N.3   158  MET158     -0.1245
     55  CA        -2.2750  -38.9340  -37.5310 C.3   158  MET158      0.1570
     56  C         -1.7140  -40.0830  -38.3730 C.2   158  MET158      0.2261
     57  O         -2.4550  -40.7190  -39.1300 O.2   158  MET158     -0.2867
     58  CB        -2.1440  -37.6280  -38.3150 C.3   158  MET158      0.0387
     59  CG        -3.0340  -36.4970  -37.8160 C.3   158  MET158      0.0595
     60  SD        -2.5340  -34.8990  -38.5070 S.3   158  MET158     -0.1393
     61  CE        -2.9210  -35.1050  -40.2410 C.3   158  MET158      0.0692
     62  N         -3.5350  -43.2680  -37.7100 N.3   161  CYS161     -0.1235
     63  CA        -4.9760  -43.2370  -37.9230 C.3   161  CYS161      0.1677
     64  C         -5.2940  -43.9090  -39.2590 C.2   161  CYS161      0.2270
     65  O         -4.4430  -43.9570  -40.1470 O.2   161  CYS161     -0.2867
     66  CB        -5.4840  -41.7940  -37.9170 C.3   161  CYS161      0.0956
     67  SG        -5.3980  -40.9790  -36.2910 S.3   161  CYS161     -0.0801
     68  N        -10.0500  -43.0380  -43.3860 N.3   165  GLY165     -0.1210
     69  CA       -10.6630  -42.2550  -42.3150 C.3   165  GLY165      0.1956
     70  C         -9.9280  -40.9610  -42.0320 C.2   165  GLY165      0.2612
     71  O        -10.5430  -39.9020  -41.9980 O.2   165  GLY165     -0.2717
     72  N         -8.6100  -41.0540  -41.8540 N.am  166  GLY166     -0.1942
     73  CA        -7.7520  -39.8950  -41.5800 C.3   166  GLY166      0.2014
     74  C         -7.2570  -39.1640  -42.8180 C.2   166  GLY166      0.2638
     75  O         -6.4410  -38.2420  -42.7180 O.2   166  GLY166     -0.2714
     76  N         -7.7560  -39.5890  -43.9790 N.am  167  MET167     -0.1976
     77  CA        -7.4640  -38.9910  -45.2890 C.3   167  MET167      0.1605
     78  C         -5.9830  -38.7230  -45.5640 C.2   167  MET167      0.2287
     79  O         -5.5360  -37.5710  -45.5430 O.2   167  MET167     -0.2864
     80  CB        -8.3000  -37.7270  -45.5160 C.3   167  MET167      0.0413
     81  CG        -8.9280  -37.6250  -46.8950 C.3   167  MET167      0.0598
     82  SD       -10.4190  -38.6330  -47.0590 S.3   167  MET167     -0.1393
     83  CE        -9.7870  -40.1190  -47.8390 C.3   167  MET167      0.0692
     84  N         -5.1170  -35.8260  -48.6190 N.3   170  LEU170     -0.1231
     85  CA        -4.7040  -34.4310  -48.5030 C.3   170  LEU170      0.1693
     86  C         -3.4820  -34.2620  -47.5900 C.2   170  LEU170      0.2592
     87  O         -3.0040  -33.1440  -47.3760 O.2   170  LEU170     -0.2718
     88  CB        -5.8830  -33.5550  -48.0620 C.3   170  LEU170      0.0284
     89  CG        -6.4330  -33.5930  -46.6340 C.3   170  LEU170      0.0019
     90  CD1       -5.8880  -32.4260  -45.8230 C.3   170  LEU170      0.0001
     91  CD2       -7.9540  -33.5700  -46.6610 C.3   170  LEU170      0.0001
     92  N         -2.9810  -35.3830  -47.0750 N.am  171  TRP171     -0.1976
     93  CA        -1.7880  -35.3990  -46.2290 C.3   171  TRP171      0.1640
     94  C         -0.6700  -36.2640  -46.7630 C.2   171  TRP171      0.2290
     95  O          0.1970  -36.7000  -46.0000 O.2   171  TRP171     -0.2864
     96  CB        -2.1500  -35.8280  -44.8090 C.3   171  TRP171      0.0576
     97  CG        -2.9880  -34.8270  -44.0520 C.ar  171  TRP171      0.0006
     98  CD1       -4.2490  -35.0230  -43.4990 C.ar  171  TRP171      0.0946
     99  CD2       -2.6480  -33.4300  -43.7370 C.ar  171  TRP171      0.0152
    100  NE1       -4.6980  -33.8830  -42.8810 N.ar  171  TRP171     -0.2442
    101  CE2       -3.7880  -32.8910  -42.9880 C.ar  171  TRP171      0.0810
    102  CE3       -1.5590  -32.6040  -43.9950 C.ar  171  TRP171      0.0012
    103  CZ2       -3.8120  -31.5830  -42.5280 C.ar  171  TRP171      0.0191
    104  CZ3       -1.5930  -31.2880  -43.5230 C.ar  171  TRP171      0.0001
    105  CH2       -2.6940  -30.7920  -42.8070 C.ar  171  TRP171      0.0015
    106  N        -13.3810  -43.5990  -32.6820 N.3   219  ALA219     -0.1231
    107  CA       -13.6630  -42.5380  -33.6530 C.3   219  ALA219      0.1694
    108  C        -13.5190  -42.9680  -35.1210 C.2   219  ALA219      0.2592
    109  O        -14.0820  -42.3330  -36.0190 O.2   219  ALA219     -0.2718
    110  CB       -12.8140  -41.3080  -33.3580 C.3   219  ALA219      0.0304
    111  N        -12.7880  -44.0560  -35.3600 N.am  220  GLY220     -0.1957
    112  CA       -12.5730  -44.5690  -36.7150 C.3   220  GLY220      0.1869
    113  C        -13.6990  -45.4220  -37.2790 C.2   220  GLY220      0.2309
    114  O        -13.6230  -45.8730  -38.4270 O.2   220  GLY220     -0.2863
    115  N        -24.9850  -37.3300  -31.5720 N.3   393  ARG393     -0.1245
    116  CA       -24.1760  -36.8190  -32.6730 C.3   393  ARG393      0.1563
    117  C        -23.7240  -37.9710  -33.5600 C.2   393  ARG393      0.2260
    118  O        -22.7050  -38.6080  -33.2860 O.2   393  ARG393     -0.2867
    119  CB       -22.9800  -36.0070  -32.1660 C.3   393  ARG393      0.0307
    120  CG       -22.2650  -35.2410  -33.2670 C.3   393  ARG393      0.0489
    121  CD       -21.5660  -34.0080  -32.7230 C.3   393  ARG393      0.2205
    122  NE       -20.8690  -33.2580  -33.7680 N.pl3 393  ARG393     -0.0865
    123  CZ       -21.4380  -32.3440  -34.5480 C.cat 393  ARG393      0.5346
    124  NH1      -22.7290  -32.0550  -34.4220 N.pl3 393  ARG393      0.1354
    125  NH2      -20.7130  -31.7220  -35.4670 N.pl3 393  ARG393      0.1354
    126  N        -22.1260  -39.9090  -36.8040 N.3   395  PHE395     -0.1227
    127  CA       -20.9510  -39.6850  -37.6230 C.3   395  PHE395      0.1736
    128  C        -21.0030  -40.6590  -38.7860 C.2   395  PHE395      0.2595
    129  O        -21.2880  -41.8400  -38.5910 O.2   395  PHE395     -0.2718
    130  CB       -19.6810  -39.8930  -36.7970 C.3   395  PHE395      0.0547
    131  CG       -18.4090  -39.6800  -37.5700 C.ar  395  PHE395     -0.0202
    132  CD1      -18.1700  -38.4780  -38.2380 C.ar  395  PHE395     -0.0042
    133  CD2      -17.4440  -40.6780  -37.6240 C.ar  395  PHE395     -0.0042
    134  CE1      -16.9930  -38.2810  -38.9520 C.ar  395  PHE395     -0.0003
    135  CE2      -16.2630  -40.4840  -38.3300 C.ar  395  PHE395     -0.0003
    136  CZ       -16.0390  -39.2860  -38.9970 C.ar  395  PHE395     -0.0000
    137  N        -20.7360  -40.1540  -39.9900 N.am  396  ARG396     -0.1980
    138  CA       -20.8320  -40.9490  -41.2110 C.3   396  ARG396      0.1597
    139  C        -22.1600  -41.7150  -41.2650 C.2   396  ARG396      0.2287
    140  O        -23.2250  -41.1000  -41.2610 O.2   396  ARG396     -0.2864
    141  CB       -19.6070  -41.8610  -41.3640 C.3   396  ARG396      0.0334
    142  CG       -18.5350  -41.2690  -42.2670 C.3   396  ARG396      0.0492
    143  CD       -17.1280  -41.4060  -41.7040 C.3   396  ARG396      0.2205
    144  NE       -16.7900  -42.7690  -41.2960 N.pl3 396  ARG396     -0.0865
    145  CZ       -15.5620  -43.1850  -40.9940 C.cat 396  ARG396      0.5346
    146  NH1      -14.5260  -42.3530  -41.0630 N.pl3 396  ARG396      0.1354
    147  NH2      -15.3660  -44.4450  -40.6290 N.pl3 396  ARG396      0.1354
@<TRIPOS>BOND
     1    84    85    1
     2    85    88    1
     3    85    86    1
     4    88    89    1
     5    83    82    1
     6    86    87    2
     7    86    92   am
     8    92    93    1
     9    82    81    1
    10    81    80    1
    11    94    93    1
    12    94    95    2
    13    91    89    1
    14    89    90    1
    15    93    96    1
    16    78    79    2
    17    78    77    1
    18    80    77    1
    19    77    76    1
    20    96    97    1
    21    97    99   ar
    22    97    98   ar
    23   102    99   ar
    24   102   104   ar
    25    76    74   am
    26    99   101   ar
    27   104   105   ar
    28    98   100   ar
    29    68    69    1
    30   101   100   ar
    31   101   103   ar
    32    74    75    2
    33    74    73    1
    34   105   103   ar
    35    69    70    1
    36   142   143    1
    37   142   141    1
    38    70    71    2
    39    70    72   am
    40    72    73    1
    41   143   144    1
    42   141   138    1
    43   144   145    2
    44   139   140    2
    45   139   138    1
    46   138   137    1
    47   146   145    1
    48   145   147    1
    49    61    60    1
    50    65    64    2
    51   137   128   am
    52    64    63    1
    53    11    10    2
    54    57    56    2
    55   136   134   ar
    56   136   135   ar
    57   134   132   ar
    58   128   129    2
    59   128   127    1
    60    14    16   ar
    61    14    13   ar
    62    60    59    1
    63   114   113    2
    64    10     9    1
    65    16    18   ar
    66    56    55    1
    67   135   133   ar
    68    58    59    1
    69    58    55    1
    70   132   131   ar
    71    63    66    1
    72    63    62    1
    73    66    67    1
    74    12     9    1
    75    12    13    1
    76     9     8    1
    77   133   131   ar
    78   127   126    1
    79   127   130    1
    80   131   130    1
    81    13    15   ar
    82    55    54    1
    83   113   112    1
    84    18    19    1
    85    18    17   ar
    86   112   111    1
    87     8     3   am
    88    15    17   ar
    89   109   108    2
    90     4     3    2
    91     3     2    1
    92   125   123    1
    93    49    48    2
    94   111   108   am
    95   108   107    1
    96    40    42   ar
    97    40    39   ar
    98    53    51   ar
    99    34    35    1
   100    42    44   ar
   101   123   124    1
   102   123   122    2
   103    48    47    1
   104    35    38    1
   105    35    36    1
   106    47    50    1
   107    47    46    1
   108    51    50    1
   109    51    52   ar
   110    38    39    1
   111     2     1    1
   112     2     5    1
   113    39    41   ar
   114   122   121    1
   115   107   110    1
   116   107   106    1
   117   117   118    2
   118   117   116    1
   119     1     7    1
   120    44    45    1
   121    44    43   ar
   122   120   121    1
   123   120   119    1
   124    36    37    2
   125     5     6    1
   126   116   119    1
   127   116   115    1
   128    41    43   ar
   129     7     6    1
   130    33    31   ar
   131    33    32   ar
   132    31    29   ar
   133    32    30   ar
   134    29    28   ar
   135    29    27   ar
   136    30    27   ar
   137    28    26   ar
   138    27    25   ar
   139    26    25   ar
   140    25    24    1
   141    24    21    1
   142    21    20    1
   143    21    22    1
   144    22    23    2
