@<TRIPOS>MOLECULE
tmp/4xjoA01.pdb
 125 122 0 0 0
SMALL
GASTEIGER

@<TRIPOS>ATOM
      1  N          9.1910  -34.0160  -15.8120 N.3    17  PRO17      -0.2102
      2  CA         9.6160  -33.4640  -17.1010 C.3    17  PRO17       0.1504
      3  C         11.0670  -33.8020  -17.4140 C.2    17  PRO17       0.2575
      4  O         11.9470  -33.5660  -16.5850 O.2    17  PRO17      -0.2718
      5  CB         9.4480  -31.9520  -16.9090 C.3    17  PRO17       0.0282
      6  CG         8.3940  -31.8220  -15.8600 C.3    17  PRO17       0.0208
      7  CD         8.6360  -32.9760  -14.9260 C.3    17  PRO17       0.0893
      8  N         11.3080  -34.3880  -18.5860 N.am   18  TYR18      -0.1977
      9  CA        12.6670  -34.6890  -19.0350 C.3    18  TYR18       0.1639
     10  C         13.4800  -35.4410  -17.9780 C.2    18  TYR18       0.2290
     11  O         14.6420  -35.1220  -17.7300 O.2    18  TYR18      -0.2864
     12  CB        13.3660  -33.4000  -19.4970 C.3    18  TYR18       0.0560
     13  CG        12.8630  -32.9510  -20.8510 C.ar   18  TYR18      -0.0198
     14  CD1       13.5930  -33.2250  -21.9980 C.ar   18  TYR18      -0.0009
     15  CD2       11.6360  -32.2940  -20.9900 C.ar   18  TYR18      -0.0009
     16  CE1       13.1400  -32.8380  -23.2460 C.ar   18  TYR18       0.0417
     17  CE2       11.1690  -31.9110  -22.2410 C.ar   18  TYR18       0.0417
     18  CZ        11.9270  -32.1940  -23.3630 C.ar   18  TYR18       0.1957
     19  OH        11.5000  -31.8290  -24.6190 O.3    18  TYR18      -0.2866
     20  N          6.6900  -22.5350  -13.7800 N.3    57  TRP57      -0.1241
     21  CA         6.9460  -22.6520  -15.2160 C.3    57  TRP57       0.1605
     22  C          6.1030  -21.7060  -16.0440 C.2    57  TRP57       0.2264
     23  O          5.3890  -22.1320  -16.9540 O.2    57  TRP57      -0.2867
     24  CB         6.7950  -24.1090  -15.6730 C.3    57  TRP57       0.0550
     25  CG         7.6280  -24.4470  -16.8830 C.ar   57  TRP57       0.0003
     26  CD1        7.1810  -24.8110  -18.1510 C.ar   57  TRP57       0.0946
     27  CD2        9.0890  -24.4620  -16.9750 C.ar   57  TRP57       0.0152
     28  NE1        8.2380  -25.0450  -18.9940 N.ar   57  TRP57      -0.2442
     29  CE2        9.4110  -24.8540  -18.3530 C.ar   57  TRP57       0.0810
     30  CE3       10.1280  -24.2040  -16.0840 C.ar   57  TRP57       0.0012
     31  CZ2       10.7260  -24.9710  -18.7970 C.ar   57  TRP57       0.0191
     32  CZ3       11.4470  -24.3310  -16.5400 C.ar   57  TRP57       0.0001
     33  CH2       11.7350  -24.7000  -17.8640 C.ar   57  TRP57       0.0015
     34  N         15.2580  -21.8310  -30.5710 N.3   149  GLY149     -0.1210
     35  CA        13.8320  -21.8210  -30.2820 C.3   149  GLY149      0.1956
     36  C         13.3140  -23.0420  -29.5430 C.2   149  GLY149      0.2611
     37  O         13.9740  -24.0840  -29.4680 O.2   149  GLY149     -0.2717
     38  N         12.1220  -22.8950  -28.9770 N.am  150  TYR150     -0.1976
     39  CA        11.4150  -24.0130  -28.3760 C.3   150  TYR150      0.1639
     40  C          9.9420  -23.8810  -28.6970 C.2   150  TYR150      0.2290
     41  O          9.3650  -22.8000  -28.5380 O.2   150  TYR150     -0.2864
     42  CB        11.6060  -24.0640  -26.8570 C.3   150  TYR150      0.0560
     43  CG        10.8390  -25.2100  -26.2270 C.ar  150  TYR150     -0.0198
     44  CD1       11.2500  -26.5270  -26.4100 C.ar  150  TYR150     -0.0009
     45  CD2        9.6870  -24.9770  -25.4770 C.ar  150  TYR150     -0.0009
     46  CE1       10.5440  -27.5860  -25.8570 C.ar  150  TYR150      0.0417
     47  CE2        8.9740  -26.0300  -24.9150 C.ar  150  TYR150      0.0417
     48  CZ         9.4120  -27.3300  -25.1090 C.ar  150  TYR150      0.1957
     49  OH         8.7140  -28.3830  -24.5600 O.3   150  TYR150     -0.2866
     50  N          7.6850  -26.9160  -28.1500 N.3   152  GLY152     -0.1210
     51  CA         6.9580  -28.0260  -27.5510 C.3   152  GLY152      0.1956
     52  C          7.5600  -29.3800  -27.8460 C.2   152  GLY152      0.2611
     53  O          8.6140  -29.4810  -28.4880 O.2   152  GLY152     -0.2717
     54  N          6.8630  -30.4250  -27.3970 N.am  153  ASP153     -0.1973
     55  CA         7.4320  -31.7720  -27.3150 C.3   153  ASP153      0.1709
     56  C          6.7790  -32.8310  -28.1920 C.2   153  ASP153      0.2293
     57  O          7.2930  -33.9480  -28.2880 O.2   153  ASP153     -0.2864
     58  CB         7.3990  -32.2640  -25.8690 C.3   153  ASP153      0.1436
     59  CG         8.3010  -31.4790  -24.9600 C.2   153  ASP153      0.3671
     60  OD1        8.0430  -31.5110  -23.7430 O.co2 153  ASP153     -0.2456
     61  OD2        9.2600  -30.8350  -25.4530 O.co2 153  ASP153     -0.2456
     62  N         12.1460  -27.0070  -32.8630 N.3   161  CYS161     -0.1221
     63  CA        12.9480  -26.6800  -31.6930 C.3   161  CYS161      0.1808
     64  C         14.4070  -26.5990  -32.1040 C.2   161  CYS161      0.2601
     65  O         14.8110  -27.1960  -33.1040 O.2   161  CYS161     -0.2717
     66  CB        12.7860  -27.7440  -30.6100 C.3   161  CYS161      0.0970
     67  SG        11.1450  -27.7730  -29.8600 S.3   161  CYS161     -0.0800
     68  N         15.1960  -25.8650  -31.3270 N.am  162  ASP162     -0.1973
     69  CA        16.6210  -25.7620  -31.5720 C.3   162  ASP162      0.1709
     70  C         17.2130  -27.1640  -31.7310 C.2   162  ASP162      0.2293
     71  O         16.9900  -28.0170  -30.8740 O.2   162  ASP162     -0.2864
     72  CB        17.2890  -25.0490  -30.4020 C.3   162  ASP162      0.1436
     73  CG        18.7580  -24.8260  -30.6310 C.2   162  ASP162      0.3671
     74  OD1       19.1000  -24.1150  -31.5950 O.co2 162  ASP162     -0.2456
     75  OD2       19.5650  -25.3740  -29.8530 O.co2 162  ASP162     -0.2456
     76  N         19.5380  -27.8420  -28.5240 N.3   165  GLY165     -0.1210
     77  CA        18.7290  -27.9030  -27.3080 C.3   165  GLY165      0.1956
     78  C         17.6970  -29.0190  -27.3300 C.2   165  GLY165      0.2612
     79  O         17.4350  -29.6590  -26.3080 O.2   165  GLY165     -0.2717
     80  N         17.1230  -29.2550  -28.5060 N.am  166  GLY166     -0.1956
     81  CA        16.1030  -30.2860  -28.6950 C.3   166  GLY166      0.1869
     82  C         16.6390  -31.6800  -28.9490 C.2   166  GLY166      0.2309
     83  O         15.8640  -32.5950  -29.2510 O.2   166  GLY166     -0.2863
     84  N         12.6520  -21.7320  -23.4810 N.3   219  ALA219     -0.1231
     85  CA        13.3240  -22.9800  -23.0970 C.3   219  ALA219      0.1694
     86  C         14.5920  -23.2820  -23.8870 C.2   219  ALA219      0.2592
     87  O         15.4210  -24.0740  -23.4440 O.2   219  ALA219     -0.2718
     88  CB        12.3630  -24.1520  -23.1590 C.3   219  ALA219      0.0304
     89  N         14.7480  -22.6480  -25.0460 N.am  220  GLY220     -0.1957
     90  CA        15.9500  -22.8220  -25.8570 C.3   220  GLY220      0.1869
     91  C         17.1400  -21.9750  -25.4370 C.2   220  GLY220      0.2309
     92  O         18.2050  -22.0650  -26.0490 O.2   220  GLY220     -0.2863
     93  N         14.7080  -22.8510  -10.2120 N.3   393  ARG393     -0.1245
     94  CA        15.0930  -24.0110  -11.0000 C.3   393  ARG393      0.1563
     95  C         15.9810  -23.5540  -12.1590 C.2   393  ARG393      0.2260
     96  O         15.4830  -23.1470  -13.2100 O.2   393  ARG393     -0.2867
     97  CB        13.8520  -24.7380  -11.5230 C.3   393  ARG393      0.0307
     98  CG        14.0920  -26.1900  -11.8990 C.3   393  ARG393      0.0489
     99  CD        13.7160  -27.1220  -10.7610 C.3   393  ARG393      0.2205
    100  NE        13.9450  -28.5200  -11.1070 N.pl3 393  ARG393     -0.0865
    101  CZ        14.7120  -29.3470  -10.4060 C.cat 393  ARG393      0.5346
    102  NH1       15.3100  -28.9250   -9.2980 N.pl3 393  ARG393      0.1354
    103  NH2       14.8640  -30.6020  -10.8040 N.pl3 393  ARG393      0.1354
    104  N         18.4620  -23.9680  -15.3990 N.3   395  PHE395     -0.1227
    105  CA        18.7330  -24.9890  -16.4060 C.3   395  PHE395      0.1736
    106  C         19.9590  -24.5860  -17.2100 C.2   395  PHE395      0.2595
    107  O         20.2400  -23.3950  -17.3760 O.2   395  PHE395     -0.2718
    108  CB        17.5070  -25.3240  -17.2760 C.3   395  PHE395      0.0547
    109  CG        17.2030  -24.3120  -18.3430 C.ar  395  PHE395     -0.0202
    110  CD1       17.8360  -24.3680  -19.5780 C.ar  395  PHE395     -0.0042
    111  CD2       16.2520  -23.3300  -18.1300 C.ar  395  PHE395     -0.0042
    112  CE1       17.5510  -23.4380  -20.5650 C.ar  395  PHE395     -0.0003
    113  CE2       15.9570  -22.3980  -19.1160 C.ar  395  PHE395     -0.0003
    114  CZ        16.6040  -22.4540  -20.3370 C.ar  395  PHE395     -0.0000
    115  N         20.6840  -25.5950  -17.6890 N.am  396  ARG396     -0.1980
    116  CA        21.9760  -25.3860  -18.3440 C.3   396  ARG396      0.1597
    117  C         22.8300  -24.4140  -17.5230 C.2   396  ARG396      0.2287
    118  O         23.0520  -24.6350  -16.3320 O.2   396  ARG396     -0.2864
    119  CB        21.8040  -24.9090  -19.7950 C.3   396  ARG396      0.0334
    120  CG        20.9430  -25.8170  -20.6640 C.3   396  ARG396      0.0492
    121  CD        21.3450  -25.7350  -22.1300 C.3   396  ARG396      0.2205
    122  NE        21.2740  -24.3750  -22.6670 N.pl3 396  ARG396     -0.0865
    123  CZ        20.4850  -23.9890  -23.6670 C.cat 396  ARG396      0.5346
    124  NH1       19.6820  -24.8560  -24.2740 N.pl3 396  ARG396      0.1354
    125  NH2       20.5080  -22.7260  -24.0690 N.pl3 396  ARG396      0.1354
@<TRIPOS>BOND
     1    65    64    2
     2    62    63    1
     3    64    63    1
     4    64    68   am
     5    70    69    1
     6    70    71    2
     7    63    66    1
     8    74    73   ar
     9    69    68    1
    10    69    72    1
    11    73    72    1
    12    73    75   ar
    13    66    67    1
    14    34    35    1
    15    35    36    1
    16    36    37    2
    17    36    38   am
    18    83    82    2
    19    38    39    1
    20    82    81    1
    21    40    41    2
    22    40    39    1
    23    81    80    1
    24    76    77    1
    25    80    78   am
    26    53    52    2
    27    39    42    1
    28    57    56    2
    29    56    55    1
    30    50    51    1
    31    52    51    1
    32    52    54   am
    33    54    55    1
    34    78    77    1
    35    78    79    2
    36    55    58    1
    37    42    43    1
    38    44    43   ar
    39    44    46   ar
    40    43    45   ar
    41    92    91    2
    42    58    59    1
    43    90    91    1
    44    90    89    1
    45    46    48   ar
    46    45    47   ar
    47    61    59   ar
    48    48    47   ar
    49    48    49    1
    50    89    86   am
    51    59    60   ar
    52    19    18    1
    53   124   123    1
    54   125   123    1
    55    86    87    2
    56    86    85    1
    57   123   122    2
    58    84    85    1
    59    18    16   ar
    60    18    17   ar
    61    16    14   ar
    62    88    85    1
    63   122   121    1
    64    17    15   ar
    65   121   120    1
    66    14    13   ar
    67    15    13   ar
    68    13    12    1
    69   120   119    1
    70   112   114   ar
    71   112   110   ar
    72   114   113   ar
    73   119   116    1
    74   110   109   ar
    75    12     9    1
    76   113   111   ar
    77     9     8    1
    78     9    10    1
    79    28    29   ar
    80    28    26   ar
    81    31    29   ar
    82    31    33   ar
    83     8     3   am
    84    29    27   ar
    85   116   115    1
    86   116   117    1
    87   109   111   ar
    88   109   108    1
    89    26    25   ar
    90    10    11    2
    91    33    32   ar
    92   115   106   am
    93   117   118    2
    94     3     2    1
    95     3     4    2
    96   107   106    2
    97   108   105    1
    98   106   105    1
    99     2     5    1
   100     2     1    1
   101    27    25   ar
   102    27    30   ar
   103    23    22    2
   104     5     6    1
   105    25    24    1
   106    32    30   ar
   107   105   104    1
   108    22    21    1
   109     6     7    1
   110     1     7    1
   111    24    21    1
   112    21    20    1
   113    96    95    2
   114    95    94    1
   115    98    97    1
   116    98    99    1
   117    97    94    1
   118   100    99    1
   119   100   101    2
   120    94    93    1
   121   103   101    1
   122   101   102    1
