@<TRIPOS>MOLECULE
tmp/4xjpA01.pdb
 121 118 0 0 0
SMALL
GASTEIGER

@<TRIPOS>ATOM
      1  N          8.8970  -33.7850  -15.8590 N.3    17  PRO17      -0.2102
      2  CA         9.3470  -33.2460  -17.1560 C.3    17  PRO17       0.1504
      3  C         10.8110  -33.5610  -17.4520 C.2    17  PRO17       0.2575
      4  O         11.6990  -33.2960  -16.6320 O.2    17  PRO17      -0.2718
      5  CB         9.1380  -31.7250  -17.0010 C.3    17  PRO17       0.0282
      6  CG         8.0790  -31.5930  -15.9640 C.3    17  PRO17       0.0208
      7  CD         8.3520  -32.7320  -14.9880 C.3    17  PRO17       0.0893
      8  N         11.0540  -34.1580  -18.6170 N.am   18  TYR18      -0.1977
      9  CA        12.4070  -34.4240  -19.0800 C.3    18  TYR18       0.1639
     10  C         13.2340  -35.1640  -18.0280 C.2    18  TYR18       0.2290
     11  O         14.3980  -34.8430  -17.7760 O.2    18  TYR18      -0.2864
     12  CB        13.0680  -33.1120  -19.4940 C.3    18  TYR18       0.0560
     13  CG        12.6030  -32.6540  -20.8680 C.ar   18  TYR18      -0.0198
     14  CD1       13.3520  -32.9560  -21.9950 C.ar   18  TYR18      -0.0009
     15  CD2       11.4050  -31.9590  -21.0360 C.ar   18  TYR18      -0.0009
     16  CE1       12.9410  -32.5740  -23.2580 C.ar   18  TYR18       0.0417
     17  CE2       10.9840  -31.5620  -22.3110 C.ar   18  TYR18       0.0417
     18  CZ        11.7620  -31.8840  -23.4100 C.ar   18  TYR18       0.1957
     19  OH        11.3770  -31.5180  -24.6850 O.3    18  TYR18      -0.2866
     20  N          6.3980  -22.2670  -13.8440 N.3    57  TRP57      -0.1241
     21  CA         6.6860  -22.3900  -15.2710 C.3    57  TRP57       0.1605
     22  C          5.8060  -21.4550  -16.0950 C.2    57  TRP57       0.2264
     23  O          5.0770  -21.8910  -16.9890 O.2    57  TRP57      -0.2867
     24  CB         6.5170  -23.8510  -15.7240 C.3    57  TRP57       0.0550
     25  CG         7.3360  -24.1860  -16.9290 C.ar   57  TRP57       0.0003
     26  CD1        6.8750  -24.5760  -18.1530 C.ar   57  TRP57       0.0946
     27  CD2        8.7650  -24.1670  -17.0250 C.ar   57  TRP57       0.0152
     28  NE1        7.9300  -24.7980  -19.0050 N.ar   57  TRP57      -0.2442
     29  CE2        9.1000  -24.5600  -18.3350 C.ar   57  TRP57       0.0810
     30  CE3        9.7950  -23.8670  -16.1250 C.ar   57  TRP57       0.0012
     31  CZ2       10.4270  -24.6510  -18.7740 C.ar   57  TRP57       0.0191
     32  CZ3       11.1100  -23.9580  -16.5610 C.ar   57  TRP57       0.0001
     33  CH2       11.4110  -24.3450  -17.8720 C.ar   57  TRP57       0.0015
     34  N         15.1720  -21.5840  -30.6840 N.3   149  GLY149     -0.1210
     35  CA        13.7480  -21.5620  -30.3890 C.3   149  GLY149      0.1956
     36  C         13.2230  -22.7890  -29.6630 C.2   149  GLY149      0.2611
     37  O         13.8900  -23.8140  -29.5880 O.2   149  GLY149     -0.2717
     38  N         12.0340  -22.6520  -29.0950 N.am  150  TYR150     -0.1976
     39  CA        11.3210  -23.7790  -28.4940 C.3   150  TYR150      0.1639
     40  C          9.8400  -23.6640  -28.7980 C.2   150  TYR150      0.2290
     41  O          9.2470  -22.5980  -28.6050 O.2   150  TYR150     -0.2864
     42  CB        11.5300  -23.8340  -26.9760 C.3   150  TYR150      0.0560
     43  CG        10.7630  -24.9770  -26.3390 C.ar  150  TYR150     -0.0198
     44  CD1       11.1820  -26.2970  -26.4950 C.ar  150  TYR150     -0.0009
     45  CD2        9.6110  -24.7370  -25.5960 C.ar  150  TYR150     -0.0009
     46  CE1       10.4640  -27.3460  -25.9270 C.ar  150  TYR150      0.0417
     47  CE2        8.8950  -25.7750  -25.0190 C.ar  150  TYR150      0.0417
     48  CZ         9.3240  -27.0750  -25.1920 C.ar  150  TYR150      0.1957
     49  OH         8.5960  -28.0970  -24.6080 O.3   150  TYR150     -0.2866
     50  N          6.6860  -30.1550  -27.4920 N.3   153  ASP153     -0.1239
     51  CA         7.2860  -31.4950  -27.4510 C.3   153  ASP153      0.1674
     52  C          6.6110  -32.5240  -28.3460 C.2   153  ASP153      0.2266
     53  O          7.0870  -33.6530  -28.4520 O.2   153  ASP153     -0.2867
     54  CB         7.2830  -32.0270  -26.0150 C.3   153  ASP153      0.1410
     55  CG         8.1440  -31.2070  -25.0930 C.2   153  ASP153      0.3668
     56  OD1        7.8690  -31.2090  -23.8810 O.co2 153  ASP153     -0.2456
     57  OD2        9.1010  -30.5750  -25.5930 O.co2 153  ASP153     -0.2456
     58  N         12.0970  -26.7370  -33.0100 N.3   161  CYS161     -0.1221
     59  CA        12.9040  -26.3980  -31.8410 C.3   161  CYS161      0.1808
     60  C         14.3650  -26.3290  -32.2340 C.2   161  CYS161      0.2601
     61  O         14.7740  -26.9550  -33.2070 O.2   161  CYS161     -0.2717
     62  CB        12.7260  -27.4260  -30.7270 C.3   161  CYS161      0.0970
     63  SG        11.0810  -27.5170  -29.9920 S.3   161  CYS161     -0.0800
     64  N         15.1530  -25.5900  -31.4600 N.am  162  ASP162     -0.1973
     65  CA        16.5950  -25.5060  -31.7150 C.3   162  ASP162      0.1709
     66  C         17.1890  -26.9030  -31.8350 C.2   162  ASP162      0.2293
     67  O         17.0050  -27.7190  -30.9410 O.2   162  ASP162     -0.2864
     68  CB        17.2840  -24.7450  -30.5880 C.3   162  ASP162      0.1436
     69  CG        18.7440  -24.5240  -30.8610 C.2   162  ASP162      0.3671
     70  OD1       19.0520  -23.8270  -31.8420 O.co2 162  ASP162     -0.2456
     71  OD2       19.5830  -25.0550  -30.1060 O.co2 162  ASP162     -0.2456
     72  N         19.7160  -27.4900  -28.6570 N.3   165  GLY165     -0.1210
     73  CA        19.0450  -27.5340  -27.3690 C.3   165  GLY165      0.1956
     74  C         17.9430  -28.5710  -27.3090 C.2   165  GLY165      0.2612
     75  O         17.6150  -29.0670  -26.2330 O.2   165  GLY165     -0.2717
     76  N         17.3880  -28.9110  -28.4690 N.am  166  GLY166     -0.1956
     77  CA        16.2910  -29.8600  -28.5610 C.3   166  GLY166      0.1869
     78  C         16.7600  -31.2820  -28.8150 C.2   166  GLY166      0.2309
     79  O         15.9440  -32.1980  -28.9840 O.2   166  GLY166     -0.2863
     80  N         12.4980  -21.4770  -23.5200 N.3   219  ALA219     -0.1231
     81  CA        13.1820  -22.7000  -23.1030 C.3   219  ALA219      0.1694
     82  C         14.4930  -22.9710  -23.8400 C.2   219  ALA219      0.2592
     83  O         15.3590  -23.6940  -23.3410 O.2   219  ALA219     -0.2718
     84  CB        12.2510  -23.8960  -23.2620 C.3   219  ALA219      0.0304
     85  N         14.6430  -22.3970  -25.0270 N.am  220  GLY220     -0.1957
     86  CA        15.8410  -22.5780  -25.8100 C.3   220  GLY220      0.1869
     87  C         17.0180  -21.7300  -25.3640 C.2   220  GLY220      0.2309
     88  O         18.0960  -21.8310  -25.9440 O.2   220  GLY220     -0.2863
     89  N         14.4830  -22.7150  -10.2210 N.3   393  ARG393     -0.1245
     90  CA        14.9570  -23.8860  -10.9360 C.3   393  ARG393      0.1563
     91  C         15.7930  -23.4630  -12.1410 C.2   393  ARG393      0.2260
     92  O         15.2500  -23.0860  -13.1840 O.2   393  ARG393     -0.2867
     93  CB        13.7830  -24.7540  -11.3660 C.3   393  ARG393      0.0307
     94  CG        14.1990  -26.1340  -11.8040 C.3   393  ARG393      0.0489
     95  CD        13.1940  -27.1560  -11.3300 C.3   393  ARG393      0.2205
     96  NE        13.6680  -28.5130  -11.5550 N.pl3 393  ARG393     -0.0865
     97  CZ        14.3710  -29.2150  -10.6750 C.cat 393  ARG393      0.5346
     98  NH1       14.6900  -28.6970   -9.4930 N.pl3 393  ARG393      0.1354
     99  NH2       14.7570  -30.4390  -10.9810 N.pl3 393  ARG393      0.1354
    100  N         18.3100  -23.7460  -15.4240 N.3   395  PHE395     -0.1227
    101  CA        18.3750  -24.6490  -16.5660 C.3   395  PHE395      0.1736
    102  C         19.6650  -24.3480  -17.3080 C.2   395  PHE395      0.2595
    103  O         19.9800  -23.1920  -17.5430 O.2   395  PHE395     -0.2718
    104  CB        17.1480  -24.4740  -17.4680 C.3   395  PHE395      0.0547
    105  CG        17.1550  -25.3600  -18.6760 C.ar  395  PHE395     -0.0202
    106  CD1       17.2140  -26.7360  -18.5370 C.ar  395  PHE395     -0.0042
    107  CD2       17.0960  -24.8160  -19.9470 C.ar  395  PHE395     -0.0042
    108  CE1       17.2180  -27.5640  -19.6530 C.ar  395  PHE395     -0.0003
    109  CE2       17.0990  -25.6310  -21.0670 C.ar  395  PHE395     -0.0003
    110  CZ        17.1590  -27.0050  -20.9180 C.ar  395  PHE395     -0.0000
    111  N         20.3970  -25.3940  -17.6930 N.am  396  ARG396     -0.1980
    112  CA        21.7230  -25.2360  -18.2880 C.3   396  ARG396      0.1597
    113  C         22.5580  -24.2750  -17.4550 C.2   396  ARG396      0.2287
    114  O         22.7160  -24.4860  -16.2510 O.2   396  ARG396     -0.2864
    115  CB        21.6160  -24.7680  -19.7470 C.3   396  ARG396      0.0334
    116  CG        21.4710  -25.9280  -20.7290 C.3   396  ARG396      0.0492
    117  CD        20.4620  -25.6720  -21.8370 C.3   396  ARG396      0.2205
    118  NE        20.6350  -24.3860  -22.5040 N.pl3 396  ARG396     -0.0865
    119  CZ        20.0490  -24.0620  -23.6550 C.cat 396  ARG396      0.5346
    120  NH1       19.2680  -24.9410  -24.2750 N.pl3 396  ARG396      0.1354
    121  NH2       20.2520  -22.8650  -24.1920 N.pl3 396  ARG396      0.1354
@<TRIPOS>BOND
     1    61    60    2
     2    58    59    1
     3    60    59    1
     4    60    64   am
     5    70    69   ar
     6    59    62    1
     7    66    65    1
     8    66    67    2
     9    65    64    1
    10    65    68    1
    11    69    68    1
    12    69    71   ar
    13    62    63    1
    14    34    35    1
    15    35    36    1
    16    36    37    2
    17    36    38   am
    18    38    39    1
    19    79    78    2
    20    78    77    1
    21    40    41    2
    22    40    39    1
    23    72    73    1
    24    77    76    1
    25    39    42    1
    26    76    74   am
    27    53    52    2
    28    52    51    1
    29    50    51    1
    30    51    54    1
    31    73    74    1
    32    74    75    2
    33    42    43    1
    34    44    43   ar
    35    44    46   ar
    36    43    45   ar
    37    54    55    1
    38    88    87    2
    39    46    48   ar
    40    86    87    1
    41    86    85    1
    42    45    47   ar
    43    57    55   ar
    44    48    47   ar
    45    48    49    1
    46    55    56   ar
    47    85    82   am
    48    19    18    1
    49   120   119    1
    50   121   119    1
    51    82    83    2
    52    82    81    1
    53   119   118    2
    54    80    81    1
    55    18    16   ar
    56    18    17   ar
    57    84    81    1
    58    16    14   ar
    59   118   117    1
    60    17    15   ar
    61    14    13   ar
    62   117   116    1
    63   109   110   ar
    64   109   107   ar
    65    15    13   ar
    66   110   108   ar
    67    13    12    1
    68   116   115    1
    69   107   105   ar
    70   115   112    1
    71   108   106   ar
    72    12     9    1
    73     9     8    1
    74     9    10    1
    75    28    29   ar
    76    28    26   ar
    77    31    29   ar
    78    31    33   ar
    79   105   106   ar
    80   105   104    1
    81     8     3   am
    82    29    27   ar
    83   112   111    1
    84   112   113    1
    85    26    25   ar
    86    10    11    2
    87    33    32   ar
    88   111   102   am
    89   103   102    2
    90   104   101    1
    91   113   114    2
    92     3     2    1
    93     3     4    2
    94   102   101    1
    95     2     5    1
    96     2     1    1
    97    27    25   ar
    98    27    30   ar
    99     5     6    1
   100    23    22    2
   101    25    24    1
   102   101   100    1
   103    32    30   ar
   104    22    21    1
   105     6     7    1
   106     1     7    1
   107    24    21    1
   108    21    20    1
   109    92    91    2
   110    91    90    1
   111    94    93    1
   112    94    95    1
   113    96    95    1
   114    96    97    2
   115    93    90    1
   116    99    97    1
   117    90    89    1
   118    97    98    1
