@<TRIPOS>MOLECULE
tmp/4xjsA01.pdb
 106 104 0 0 0
SMALL
GASTEIGER

@<TRIPOS>ATOM
      1  N        -13.3590  -11.1160   21.2700 N.3    79  LEU79      -0.1231
      2  CA       -12.8490  -12.4320   20.9010 C.3    79  LEU79       0.1693
      3  C        -13.9890  -13.2770   20.3690 C.2    79  LEU79       0.2592
      4  O        -15.1560  -12.9440   20.5630 O.2    79  LEU79      -0.2718
      5  CB       -12.1970  -13.1200   22.0970 C.3    79  LEU79       0.0284
      6  CG       -11.0160  -12.4060   22.7610 C.3    79  LEU79       0.0019
      7  CD1      -10.3950  -13.3260   23.7960 C.3    79  LEU79       0.0001
      8  CD2       -9.9740  -11.9820   21.7390 C.3    79  LEU79       0.0001
      9  N        -13.6510  -14.3600   19.6770 N.am   80  TRP80      -0.1962
     10  CA       -14.6640  -15.2840   19.1230 C.3    80  TRP80       0.1771
     11  C        -14.1100  -16.6990   19.0500 C.2    80  TRP80       0.2620
     12  O        -12.9020  -16.9060   19.1220 O.2    80  TRP80      -0.2715
     13  CB       -15.1670  -14.8330   17.7300 C.3    80  TRP80       0.0590
     14  CG       -14.0810  -14.6580   16.6850 C.ar   80  TRP80       0.0006
     15  CD1      -13.4110  -13.5030   16.3790 C.ar   80  TRP80       0.0946
     16  CD2      -13.5440  -15.6690   15.8280 C.ar   80  TRP80       0.0152
     17  NE1      -12.4950  -13.7360   15.3890 N.ar   80  TRP80      -0.2442
     18  CE2      -12.5590  -15.0590   15.0300 C.ar   80  TRP80       0.0810
     19  CE3      -13.8140  -17.0260   15.6430 C.ar   80  TRP80       0.0012
     20  CZ2      -11.8410  -15.7670   14.0650 C.ar   80  TRP80       0.0191
     21  CZ3      -13.0960  -17.7280   14.6860 C.ar   80  TRP80       0.0001
     22  CH2      -12.1240  -17.0980   13.9090 C.ar   80  TRP80       0.0015
     23  N        -14.9960  -17.6790   18.9230 N.am   81  SER81      -0.1936
     24  CA       -14.5650  -19.0750   18.7720 C.3    81  SER81       0.2055
     25  C        -15.4670  -19.8250   17.7920 C.2    81  SER81       0.2642
     26  O        -16.6560  -20.0090   18.0400 O.2    81  SER81      -0.2714
     27  CB       -14.5200  -19.7810   20.1240 C.3    81  SER81       0.2130
     28  OG       -13.8010  -20.9990   20.0310 O.3    81  SER81      -0.2179
     29  N        -14.8790  -20.2130   16.6580 N.am   82  ARG82      -0.1977
     30  CA       -15.5520  -20.9420   15.5680 C.3    82  ARG82       0.1597
     31  C        -16.5870  -20.0830   14.8190 C.2    82  ARG82       0.2287
     32  O        -16.7240  -20.2050   13.6060 O.2    82  ARG82      -0.2864
     33  CB       -16.1620  -22.2740   16.0610 C.3    82  ARG82       0.0334
     34  CG       -15.1960  -23.1800   16.8580 C.3    82  ARG82       0.0492
     35  CD       -13.9820  -23.6550   16.0230 C.3    82  ARG82       0.2205
     36  NE       -12.6740  -23.4970   16.6990 N.pl3  82  ARG82      -0.0865
     37  CZ       -11.5360  -23.1400   16.0840 C.cat  82  ARG82       0.5346
     38  NH1      -11.5260  -22.8950   14.7670 N.pl3  82  ARG82       0.1354
     39  NH2      -10.4020  -23.0160   16.7810 N.pl3  82  ARG82       0.1354
     40  N         -9.6680   -9.6420   16.1550 N.3   100  LEU100     -0.1231
     41  CA        -8.3000   -9.7860   15.6720 C.3   100  LEU100      0.1693
     42  C         -8.1830   -9.4850   14.1880 C.2   100  LEU100      0.2591
     43  O         -7.2310   -8.8150   13.7670 O.2   100  LEU100     -0.2718
     44  CB        -7.8020  -11.2060   15.9120 C.3   100  LEU100      0.0284
     45  CG        -6.3840  -11.4860   15.4140 C.3   100  LEU100      0.0019
     46  CD1       -5.4060  -10.5610   16.1300 C.3   100  LEU100      0.0001
     47  CD2       -6.0270  -12.9540   15.6160 C.3   100  LEU100      0.0001
     48  N         -9.1620   -9.9610   13.4080 N.am  101  GLU101     -0.1979
     49  CA        -9.1370   -9.8240   11.9420 C.3   101  GLU101      0.1602
     50  C         -9.3950   -8.4030   11.4320 C.2   101  GLU101      0.2287
     51  O         -9.1520   -8.1350   10.2690 O.2   101  GLU101     -0.2864
     52  CB       -10.1240  -10.7790   11.2910 C.3   101  GLU101      0.0415
     53  CG        -9.8470  -12.2700   11.5370 C.3   101  GLU101      0.1163
     54  CD       -10.1620  -12.7440   12.9550 C.2   101  GLU101      0.3649
     55  OE1      -11.0620  -12.1790   13.6290 O.co2 101  GLU101     -0.2457
     56  OE2       -9.4950  -13.6950   13.4060 O.co2 101  GLU101     -0.2457
     57  N         -2.5860  -14.1140   18.2250 N.3   148  SER148     -0.1217
     58  CA        -3.6230  -14.3790   19.2340 C.3   148  SER148      0.1889
     59  C         -3.1360  -14.0200   20.6360 C.2   148  SER148      0.2288
     60  O         -3.8680  -13.3910   21.4030 O.2   148  SER148     -0.2866
     61  CB        -4.0390  -15.8480   19.2180 C.3   148  SER148      0.2089
     62  OG        -4.5600  -16.2160   17.9550 O.3   148  SER148     -0.2183
     63  N         -2.5500  -10.0800   20.9130 N.3   151  PHE151     -0.1241
     64  CA        -3.9020   -9.5190   20.9700 C.3   151  PHE151      0.1605
     65  C         -4.5560   -9.6610   22.3570 C.2   151  PHE151      0.2264
     66  O         -5.0370   -8.6740   22.9290 O.2   151  PHE151     -0.2867
     67  CB        -4.7880  -10.1680   19.8950 C.3   151  PHE151      0.0534
     68  CG        -6.0760   -9.4040   19.5870 C.ar  151  PHE151     -0.0203
     69  CD1       -6.0540   -8.0440   19.2700 C.ar  151  PHE151     -0.0042
     70  CD2       -7.3090  -10.0670   19.5660 C.ar  151  PHE151     -0.0042
     71  CE1       -7.2160   -7.3600   18.9670 C.ar  151  PHE151     -0.0003
     72  CE2       -8.4720   -9.3800   19.2620 C.ar  151  PHE151     -0.0003
     73  CZ        -8.4220   -8.0260   18.9600 C.ar  151  PHE151     -0.0000
     74  N         -9.1970  -25.1210   21.1660 N.3   175  SER175     -0.1202
     75  CA        -9.2790  -24.0970   20.1120 C.3   175  SER175      0.2020
     76  C         -8.3180  -22.9470   20.3860 C.2   175  SER175      0.2619
     77  O         -7.7320  -22.8880   21.4490 O.2   175  SER175     -0.2717
     78  CB       -10.6970  -23.5590   19.9950 C.3   175  SER175      0.2103
     79  OG       -11.0220  -22.7430   21.1060 O.3   175  SER175     -0.2182
     80  N         -8.1670  -22.0260   19.4360 N.am  176  THR176     -0.1938
     81  CA        -7.2070  -20.9330   19.5990 C.3   176  THR176      0.2028
     82  C         -7.5850  -20.1070   20.8160 C.2   176  THR176      0.2642
     83  O         -6.7230  -19.7240   21.6200 O.2   176  THR176     -0.2714
     84  CB        -7.1300  -19.9980   18.3780 C.3   176  THR176      0.1808
     85  OG1       -7.1110  -20.7500   17.1610 O.3   176  THR176     -0.2208
     86  CG2       -5.8770  -19.1370   18.4420 C.3   176  THR176      0.0379
     87  N         -8.8790  -19.8450   20.9520 N.am  177  PHE177     -0.1973
     88  CA        -9.3840  -19.1330   22.1280 C.3   177  PHE177      0.1639
     89  C         -9.1450  -19.9070   23.4430 C.2   177  PHE177      0.2290
     90  O         -8.4830  -19.4030   24.3570 O.2   177  PHE177     -0.2864
     91  CB       -10.8680  -18.7760   21.9680 C.3   177  PHE177      0.0560
     92  CG       -11.5070  -18.3310   23.2400 C.ar  177  PHE177     -0.0200
     93  CD1      -11.1510  -17.1210   23.8210 C.ar  177  PHE177     -0.0042
     94  CD2      -12.4350  -19.1270   23.8780 C.ar  177  PHE177     -0.0042
     95  CE1      -11.7290  -16.7150   25.0140 C.ar  177  PHE177     -0.0003
     96  CE2      -13.0140  -18.7260   25.0680 C.ar  177  PHE177     -0.0003
     97  CZ       -12.6580  -17.5250   25.6400 C.ar  177  PHE177     -0.0000
     98  N         -5.7410  -17.8280   23.9070 N.3   181  GLU181     -0.1245
     99  CA        -6.2610  -16.5210   24.3080 C.3   181  GLU181      0.1567
    100  C         -6.6610  -16.4550   25.7740 C.2   181  GLU181      0.2260
    101  O         -6.2390  -15.5640   26.5090 O.2   181  GLU181     -0.2867
    102  CB        -7.4520  -16.1330   23.4170 C.3   181  GLU181      0.0388
    103  CG        -7.0610  -15.4230   22.1160 C.3   181  GLU181      0.1160
    104  CD        -7.9450  -15.7840   20.9400 C.2   181  GLU181      0.3649
    105  OE1       -9.1770  -15.9120   21.1200 O.co2 181  GLU181     -0.2457
    106  OE2       -7.4060  -15.9440   19.8290 O.co2 181  GLU181     -0.2457
@<TRIPOS>BOND
     1    51    50    2
     2    52    53    1
     3    52    49    1
     4    50    49    1
     5    53    54    1
     6    49    48    1
     7    54    56   ar
     8    54    55   ar
     9    48    42   am
    10    32    31    2
    11    43    42    2
    12    22    20   ar
    13    22    21   ar
    14    20    18   ar
    15    42    41    1
    16    21    19   ar
    17    38    37    1
    18    31    30    1
    19    18    17   ar
    20    18    16   ar
    21    17    15   ar
    22    45    47    1
    23    45    44    1
    24    45    46    1
    25    30    33    1
    26    30    29    1
    27    19    16   ar
    28    41    44    1
    29    41    40    1
    30    16    14   ar
    31    35    36    1
    32    35    34    1
    33    33    34    1
    34    37    36    2
    35    37    39    1
    36    15    14   ar
    37    29    25   am
    38    14    13    1
    39    85    84    1
    40    13    10    1
    41    25    26    2
    42    25    24    1
    43    62    61    1
    44    57    58    1
    45    84    86    1
    46    84    81    1
    47    24    23    1
    48    24    27    1
    49    23    11   am
    50    73    71   ar
    51    73    72   ar
    52    71    69   ar
    53    11    12    2
    54    11    10    1
    55    10     9    1
    56    61    58    1
    57    58    59    1
    58    72    70   ar
    59    69    68   ar
    60    80    81    1
    61    80    76   am
    62    70    68   ar
    63    68    67    1
    64    81    82    1
    65     9     3   am
    66   106   104   ar
    67    67    64    1
    68    78    75    1
    69    78    79    1
    70    28    27    1
    71    75    76    1
    72    75    74    1
    73     3     4    2
    74     3     2    1
    75    76    77    2
    76    59    60    2
    77    82    87   am
    78    82    83    2
    79     2     1    1
    80     2     5    1
    81    63    64    1
    82   104   105   ar
    83   104   103    1
    84    87    88    1
    85    64    65    1
    86     8     6    1
    87    91    88    1
    88    91    92    1
    89     5     6    1
    90   103   102    1
    91    88    89    1
    92    65    66    2
    93     6     7    1
    94    92    93   ar
    95    92    94   ar
    96   102    99    1
    97    89    90    2
    98    93    95   ar
    99    94    96   ar
   100    98    99    1
   101    99   100    1
   102    95    97   ar
   103    96    97   ar
   104   100   101    2
