@<TRIPOS>MOLECULE
tmp/4xjsA00.pdb
 181 176 0 0 0
SMALL
GASTEIGER

@<TRIPOS>ATOM
      1  N        -13.6510  -14.3600   19.6770 N.3    80  TRP80      -0.1241
      2  CA       -14.6640  -15.2840   19.1230 C.3    80  TRP80       0.1605
      3  C        -14.1100  -16.6990   19.0500 C.2    80  TRP80       0.2264
      4  O        -12.9020  -16.9060   19.1220 O.2    80  TRP80      -0.2867
      5  CB       -15.1670  -14.8330   17.7300 C.3    80  TRP80       0.0550
      6  CG       -14.0810  -14.6580   16.6850 C.ar   80  TRP80       0.0003
      7  CD1      -13.4110  -13.5030   16.3790 C.ar   80  TRP80       0.0946
      8  CD2      -13.5440  -15.6690   15.8280 C.ar   80  TRP80       0.0152
      9  NE1      -12.4950  -13.7360   15.3890 N.ar   80  TRP80      -0.2442
     10  CE2      -12.5590  -15.0590   15.0300 C.ar   80  TRP80       0.0810
     11  CE3      -13.8140  -17.0260   15.6430 C.ar   80  TRP80       0.0012
     12  CZ2      -11.8410  -15.7670   14.0650 C.ar   80  TRP80       0.0191
     13  CZ3      -13.0960  -17.7280   14.6860 C.ar   80  TRP80       0.0001
     14  CH2      -12.1240  -17.0980   13.9090 C.ar   80  TRP80       0.0015
     15  N        -14.8790  -20.2130   16.6580 N.3    82  ARG82      -0.1245
     16  CA       -15.5520  -20.9420   15.5680 C.3    82  ARG82       0.1563
     17  C        -16.5870  -20.0830   14.8190 C.2    82  ARG82       0.2260
     18  O        -16.7240  -20.2050   13.6060 O.2    82  ARG82      -0.2867
     19  CB       -16.1620  -22.2740   16.0610 C.3    82  ARG82       0.0307
     20  CG       -15.1960  -23.1800   16.8580 C.3    82  ARG82       0.0489
     21  CD       -13.9820  -23.6550   16.0230 C.3    82  ARG82       0.2205
     22  NE       -12.6740  -23.4970   16.6990 N.pl3  82  ARG82      -0.0865
     23  CZ       -11.5360  -23.1400   16.0840 C.cat  82  ARG82       0.5346
     24  NH1      -11.5260  -22.8950   14.7670 N.pl3  82  ARG82       0.1354
     25  NH2      -10.4020  -23.0160   16.7810 N.pl3  82  ARG82       0.1354
     26  N        -16.9470  -17.0370   13.4780 N.3    84  LYS84      -0.1245
     27  CA       -16.2140  -15.8520   12.9870 C.3    84  LYS84       0.1561
     28  C        -17.0400  -14.9310   12.0800 C.2    84  LYS84       0.2260
     29  O        -16.8490  -13.7180   12.0790 O.2    84  LYS84      -0.2867
     30  CB       -14.9600  -16.3340   12.2470 C.3    84  LYS84       0.0271
     31  CG       -14.4850  -15.5260   11.0490 C.3    84  LYS84       0.0035
     32  CD       -13.0970  -16.0140   10.6320 C.3    84  LYS84       0.0206
     33  CE       -12.9740  -16.2160    9.1310 C.3    84  LYS84       0.1093
     34  NZ       -11.7550  -16.9930    8.7750 N.3    84  LYS84      -0.1314
     35  N         -9.6680   -9.6420   16.1550 N.3   100  LEU100     -0.1231
     36  CA        -8.3000   -9.7860   15.6720 C.3   100  LEU100      0.1693
     37  C         -8.1830   -9.4850   14.1880 C.2   100  LEU100      0.2591
     38  O         -7.2310   -8.8150   13.7670 O.2   100  LEU100     -0.2718
     39  CB        -7.8020  -11.2060   15.9120 C.3   100  LEU100      0.0284
     40  CG        -6.3840  -11.4860   15.4140 C.3   100  LEU100      0.0019
     41  CD1       -5.4060  -10.5610   16.1300 C.3   100  LEU100      0.0001
     42  CD2       -6.0270  -12.9540   15.6160 C.3   100  LEU100      0.0001
     43  N         -9.1620   -9.9610   13.4080 N.am  101  GLU101     -0.1979
     44  CA        -9.1370   -9.8240   11.9420 C.3   101  GLU101      0.1602
     45  C         -9.3950   -8.4030   11.4320 C.2   101  GLU101      0.2287
     46  O         -9.1520   -8.1350   10.2690 O.2   101  GLU101     -0.2864
     47  CB       -10.1240  -10.7790   11.2910 C.3   101  GLU101      0.0415
     48  CG        -9.8470  -12.2700   11.5370 C.3   101  GLU101      0.1163
     49  CD       -10.1620  -12.7440   12.9550 C.2   101  GLU101      0.3649
     50  OE1      -11.0620  -12.1790   13.6290 O.co2 101  GLU101     -0.2457
     51  OE2       -9.4950  -13.6950   13.4060 O.co2 101  GLU101     -0.2457
     52  N         -6.4920  -13.5310    7.3210 N.3   110  ASP110     -0.1225
     53  CA        -7.7870  -14.1540    7.4910 C.3   110  ASP110      0.1805
     54  C         -8.1640  -14.9860    6.2560 C.2   110  ASP110      0.2598
     55  O         -8.0240  -14.5320    5.1410 O.2   110  ASP110     -0.2718
     56  CB        -8.8410  -13.0760    7.7630 C.3   110  ASP110      0.1424
     57  CG       -10.1680  -13.6560    8.2780 C.2   110  ASP110      0.3668
     58  OD1      -10.2410  -14.8780    8.5470 O.co2 110  ASP110     -0.2456
     59  OD2      -11.1480  -12.8940    8.4350 O.co2 110  ASP110     -0.2456
     60  N         -8.6190  -16.2130    6.4800 N.am  111  ASP111     -0.1960
     61  CA        -9.0520  -17.1250    5.4210 C.3   111  ASP111      0.1840
     62  C         -7.9590  -17.6070    4.4600 C.2   111  ASP111      0.2622
     63  O         -8.2560  -18.3270    3.5030 O.2   111  ASP111     -0.2715
     64  CB       -10.1990  -16.5290    4.6010 C.3   111  ASP111      0.1450
     65  CG       -11.3690  -16.1170    5.4530 C.2   111  ASP111      0.3671
     66  OD1      -12.1400  -17.0080    5.8780 O.co2 111  ASP111     -0.2456
     67  OD2      -11.5280  -14.8930    5.6960 O.co2 111  ASP111     -0.2456
     68  N         -6.7040  -17.2530    4.7160 N.am  112  LEU112     -0.1963
     69  CA        -5.6180  -17.6300    3.8100 C.3   112  LEU112      0.1728
     70  C         -4.6960  -18.7190    4.3620 C.2   112  LEU112      0.2616
     71  O         -4.5370  -18.8730    5.5620 O.2   112  LEU112     -0.2715
     72  CB        -4.7840  -16.3980    3.4440 C.3   112  LEU112      0.0311
     73  CG        -5.4780  -15.2850    2.6540 C.3   112  LEU112      0.0022
     74  CD1       -4.5300  -14.0970    2.5160 C.3   112  LEU112      0.0001
     75  CD2       -5.9130  -15.7940    1.2960 C.3   112  LEU112      0.0001
     76  N         -4.0820  -19.4560    3.4450 N.am  113  THR113     -0.1951
     77  CA        -3.1270  -20.5110    3.7600 C.3   113  THR113      0.1897
     78  C         -1.8020  -20.1980    3.0570 C.2   113  THR113      0.2313
     79  O         -1.7900  -19.7810    1.9020 O.2   113  THR113     -0.2863
     80  CB        -3.6450  -21.8780    3.2570 C.3   113  THR113      0.1794
     81  OG1       -4.9230  -22.1310    3.8280 O.3   113  THR113     -0.2208
     82  CG2       -2.7380  -23.0130    3.6660 C.3   113  THR113      0.0378
     83  N         -2.3080  -29.2840   10.6200 N.3   131  TRP131     -0.1241
     84  CA        -1.9920  -29.0980   12.0410 C.3   131  TRP131      0.1605
     85  C         -2.0780  -30.4450   12.8140 C.2   131  TRP131      0.2264
     86  O         -1.2860  -30.7070   13.7420 O.2   131  TRP131     -0.2867
     87  CB        -2.8880  -28.0020   12.6580 C.3   131  TRP131      0.0550
     88  CG        -3.7420  -28.4820   13.7750 C.ar  131  TRP131      0.0003
     89  CD1       -4.9960  -29.0440   13.6850 C.ar  131  TRP131      0.0946
     90  CD2       -3.3980  -28.4790   15.1730 C.ar  131  TRP131      0.0152
     91  NE1       -5.4460  -29.3920   14.9460 N.ar  131  TRP131     -0.2442
     92  CE2       -4.4900  -29.0560   15.8750 C.ar  131  TRP131      0.0810
     93  CE3       -2.2700  -28.0450   15.9020 C.ar  131  TRP131      0.0012
     94  CZ2       -4.4880  -29.2080   17.2830 C.ar  131  TRP131      0.0191
     95  CZ3       -2.2670  -28.1990   17.3090 C.ar  131  TRP131      0.0001
     96  CH2       -3.3730  -28.7780   17.9760 C.ar  131  TRP131      0.0015
     97  N          1.0620  -21.2330    9.1750 N.3   140  VAL140     -0.1231
     98  CA        -0.2760  -20.7290    9.4560 C.3   140  VAL140      0.1692
     99  C         -0.5630  -20.7980   10.9750 C.2   140  VAL140      0.2592
    100  O         -0.8930  -19.7930   11.6090 O.2   140  VAL140     -0.2718
    101  CB        -1.3430  -21.5020    8.6620 C.3   140  VAL140      0.0266
    102  CG1       -2.7310  -21.1830    9.1800 C.3   140  VAL140      0.0020
    103  CG2       -1.2600  -21.1410    7.2000 C.3   140  VAL140      0.0020
    104  N         -0.4100  -21.9820   11.5450 N.am  141  SER141     -0.1952
    105  CA        -0.6880  -22.1980   12.9560 C.3   141  SER141      0.1924
    106  C          0.1820  -21.3270   13.8520 C.2   141  SER141      0.2314
    107  O         -0.3370  -20.6910   14.7650 O.2   141  SER141     -0.2863
    108  CB        -0.5020  -23.6720   13.3140 C.3   141  SER141      0.2116
    109  OG        -1.3780  -24.5050   12.5520 O.3   141  SER141     -0.2180
    110  N         -1.0560  -17.5650   13.7050 N.3   144  TRP144     -0.1227
    111  CA        -2.2310  -17.2410   14.5270 C.3   144  TRP144      0.1737
    112  C         -1.9700  -17.3340   16.0170 C.2   144  TRP144      0.2595
    113  O         -2.4140  -16.4670   16.7660 O.2   144  TRP144     -0.2718
    114  CB        -3.4140  -18.1090   14.1380 C.3   144  TRP144      0.0564
    115  CG        -3.8830  -17.7430   12.7940 C.ar  144  TRP144      0.0003
    116  CD1       -3.7920  -18.4980   11.6750 C.ar  144  TRP144      0.0946
    117  CD2       -4.4610  -16.4980   12.3990 C.ar  144  TRP144      0.0152
    118  NE1       -4.2990  -17.8190   10.6000 N.ar  144  TRP144     -0.2442
    119  CE2       -4.7240  -16.5840   11.0130 C.ar  144  TRP144      0.0810
    120  CE3       -4.7950  -15.3170   13.0810 C.ar  144  TRP144      0.0012
    121  CZ2       -5.3280  -15.5350   10.2830 C.ar  144  TRP144      0.0191
    122  CZ3       -5.3940  -14.2670   12.3520 C.ar  144  TRP144      0.0001
    123  CH2       -5.6510  -14.3910   10.9690 C.ar  144  TRP144      0.0015
    124  N         -1.2320  -18.3640   16.4380 N.am  145  LYS145     -0.1980
    125  CA        -0.7720  -18.4770   17.8230 C.3   145  LYS145      0.1596
    126  C         -0.0800  -17.1970   18.2690 C.2   145  LYS145      0.2287
    127  O         -0.4270  -16.6230   19.2850 O.2   145  LYS145     -0.2864
    128  CB         0.1690  -19.6600   17.9670 C.3   145  LYS145      0.0298
    129  CG         0.5420  -20.0000   19.4010 C.3   145  LYS145      0.0038
    130  CD         1.3560  -21.2930   19.4940 C.3   145  LYS145      0.0206
    131  CE         2.4670  -21.3570   18.4400 C.3   145  LYS145      0.1093
    132  NZ         3.5000  -22.4040   18.7030 N.3   145  LYS145     -0.1314
    133  N         -2.5860  -14.1140   18.2250 N.3   148  SER148     -0.1217
    134  CA        -3.6230  -14.3790   19.2340 C.3   148  SER148      0.1889
    135  C         -3.1360  -14.0200   20.6360 C.2   148  SER148      0.2288
    136  O         -3.8680  -13.3910   21.4030 O.2   148  SER148     -0.2866
    137  CB        -4.0390  -15.8480   19.2180 C.3   148  SER148      0.2089
    138  OG        -4.5600  -16.2160   17.9550 O.3   148  SER148     -0.2183
    139  N         -9.2270  -26.8150   23.3470 N.3   174  ASP174     -0.1225
    140  CA        -8.2070  -27.0460   22.3270 C.3   174  ASP174      0.1805
    141  C         -8.2510  -26.0600   21.1530 C.2   174  ASP174      0.2598
    142  O         -7.4250  -26.1610   20.2400 O.2   174  ASP174     -0.2718
    143  CB        -8.3260  -28.4870   21.8070 C.3   174  ASP174      0.1424
    144  CG        -8.1740  -29.5180   22.9130 C.2   174  ASP174      0.3668
    145  OD1       -7.3070  -29.3020   23.7930 O.co2 174  ASP174     -0.2456
    146  OD2       -8.9060  -30.5420   22.9030 O.co2 174  ASP174     -0.2456
    147  N         -9.1970  -25.1210   21.1660 N.am  175  SER175     -0.1938
    148  CA        -9.2790  -24.0970   20.1120 C.3   175  SER175      0.2055
    149  C         -8.3180  -22.9470   20.3860 C.2   175  SER175      0.2643
    150  O         -7.7320  -22.8880   21.4490 O.2   175  SER175     -0.2714
    151  CB       -10.6970  -23.5590   19.9950 C.3   175  SER175      0.2130
    152  OG       -11.0220  -22.7430   21.1060 O.3   175  SER175     -0.2179
    153  N         -8.1670  -22.0260   19.4360 N.am  176  THR176     -0.1950
    154  CA        -7.2070  -20.9330   19.5990 C.3   176  THR176      0.1897
    155  C         -7.5850  -20.1070   20.8160 C.2   176  THR176      0.2313
    156  O         -6.7230  -19.7240   21.6200 O.2   176  THR176     -0.2863
    157  CB        -7.1300  -19.9980   18.3780 C.3   176  THR176      0.1794
    158  OG1       -7.1110  -20.7500   17.1610 O.3   176  THR176     -0.2208
    159  CG2       -5.8770  -19.1370   18.4420 C.3   176  THR176      0.0378
    160  N         -7.2150  -22.3650   23.9850 N.3   179  SER179     -0.1202
    161  CA        -5.8610  -22.8820   24.0880 C.3   179  SER179      0.2020
    162  C         -4.8420  -21.7750   24.3480 C.2   179  SER179      0.2619
    163  O         -3.9470  -21.9570   25.1730 O.2   179  SER179     -0.2717
    164  CB        -5.5100  -23.6510   22.8070 C.3   179  SER179      0.2103
    165  OG        -4.1210  -23.7310   22.5940 O.3   179  SER179     -0.2182
    166  N         -4.9770  -20.6450   23.6420 N.am  180  VAL180     -0.1965
    167  CA        -4.0050  -19.5350   23.7100 C.3   180  VAL180      0.1727
    168  C         -4.5860  -18.2790   24.3730 C.2   180  VAL180      0.2616
    169  O         -3.9920  -17.7290   25.2990 O.2   180  VAL180     -0.2715
    170  CB        -3.4550  -19.1390   22.3070 C.3   180  VAL180      0.0290
    171  CG1       -2.2310  -18.2370   22.4440 C.3   180  VAL180      0.0023
    172  CG2       -3.0830  -20.3680   21.4800 C.3   180  VAL180      0.0023
    173  N         -5.7410  -17.8280   23.9070 N.am  181  GLU181     -0.1977
    174  CA        -6.2610  -16.5210   24.3080 C.3   181  GLU181      0.1602
    175  C         -6.6610  -16.4550   25.7740 C.2   181  GLU181      0.2287
    176  O         -6.2390  -15.5640   26.5090 O.2   181  GLU181     -0.2864
    177  CB        -7.4520  -16.1330   23.4170 C.3   181  GLU181      0.0415
    178  CG        -7.0610  -15.4230   22.1160 C.3   181  GLU181      0.1163
    179  CD        -7.9450  -15.7840   20.9400 C.2   181  GLU181      0.3649
    180  OE1       -9.1770  -15.9120   21.1200 O.co2 181  GLU181     -0.2457
    181  OE2       -7.4060  -15.9440   19.8290 O.co2 181  GLU181     -0.2457
@<TRIPOS>BOND
     1    75    73    1
     2    79    78    2
     3    74    73    1
     4    73    72    1
     5    78    77    1
     6    80    82    1
     7    80    77    1
     8    80    81    1
     9    72    69    1
    10    76    77    1
    11    76    70   am
    12    63    62    2
    13    69    70    1
    14    69    68    1
    15    70    71    2
    16    62    68   am
    17    62    61    1
    18    64    61    1
    19    64    65    1
    20    55    54    2
    21    61    60    1
    22    65    67   ar
    23    65    66   ar
    24    54    60   am
    25    54    53    1
    26   103   101    1
    27    52    53    1
    28    53    56    1
    29    56    57    1
    30    57    59   ar
    31    57    58   ar
    32   101   102    1
    33   101    98    1
    34    34    33    1
    35    33    32    1
    36    97    98    1
    37    98    99    1
    38    46    45    2
    39   121   123   ar
    40   121   119   ar
    41   118   119   ar
    42   118   116   ar
    43    83    84    1
    44    32    31    1
    45   123   122   ar
    46    99   104   am
    47    99   100    2
    48   119   117   ar
    49    31    30    1
    50    47    48    1
    51    47    44    1
    52    45    44    1
    53    48    49    1
    54   104   105    1
    55   116   115   ar
    56    44    43    1
    57    84    87    1
    58    84    85    1
    59    29    28    2
    60    28    27    1
    61    30    27    1
    62   122   120   ar
    63   117   115   ar
    64   117   120   ar
    65   109   108    1
    66    87    88    1
    67   115   114    1
    68    85    86    2
    69    49    51   ar
    70    49    50   ar
    71   105   108    1
    72   105   106    1
    73    27    26    1
    74    43    37   am
    75    18    17    2
    76    89    88   ar
    77    89    91   ar
    78   110   111    1
    79    38    37    2
    80    88    90   ar
    81   106   107    2
    82    14    12   ar
    83    14    13   ar
    84    12    10   ar
    85   114   111    1
    86    37    36    1
    87   111   112    1
    88    13    11   ar
    89    24    23    1
    90    17    16    1
    91    91    92   ar
    92    10     9   ar
    93    10     8   ar
    94    90    92   ar
    95    90    93   ar
    96     9     7   ar
    97    40    42    1
    98    40    39    1
    99    40    41    1
   100    16    19    1
   101    16    15    1
   102    11     8   ar
   103    36    39    1
   104    36    35    1
   105     8     6   ar
   106    92    94   ar
   107    93    95   ar
   108   112   124   am
   109   112   113    2
   110    21    22    1
   111    21    20    1
   112    19    20    1
   113    23    22    2
   114    23    25    1
   115     7     6   ar
   116   124   125    1
   117     6     5    1
   118   158   157    1
   119    94    96   ar
   120    95    96   ar
   121     5     2    1
   122   125   128    1
   123   125   126    1
   124   138   137    1
   125   128   129    1
   126   133   134    1
   127   126   127    2
   128   157   159    1
   129   157   154    1
   130   131   132    1
   131   131   130    1
   132     3     4    2
   133     3     2    1
   134     2     1    1
   135   137   134    1
   136   134   135    1
   137   129   130    1
   138   153   154    1
   139   153   149   am
   140   154   155    1
   141   181   179   ar
   142   151   148    1
   143   151   152    1
   144   148   149    1
   145   148   147    1
   146   142   141    2
   147   149   150    2
   148   135   136    2
   149   155   156    2
   150   179   180   ar
   151   179   178    1
   152   141   147   am
   153   141   140    1
   154   172   170    1
   155   143   140    1
   156   143   144    1
   157   178   177    1
   158   170   171    1
   159   170   167    1
   160   140   139    1
   161   165   164    1
   162   164   161    1
   163   146   144   ar
   164   144   145   ar
   165   177   174    1
   166   166   167    1
   167   166   162   am
   168   167   168    1
   169   173   174    1
   170   173   168   am
   171   160   161    1
   172   161   162    1
   173   174   175    1
   174   162   163    2
   175   168   169    2
   176   175   176    2
