@<TRIPOS>MOLECULE
tmp/4xk8L11.pdb
 98 96 0 0 0
SMALL
GASTEIGER

@<TRIPOS>ATOM
      1  N        -39.4830  -24.9600  155.4940 N.3    28  TRP28      -0.1227
      2  CA       -39.6560  -25.2300  154.0730 C.3    28  TRP28       0.1737
      3  C        -38.5170  -24.6080  153.2680 C.2    28  TRP28       0.2595
      4  O        -37.9670  -25.2370  152.3630 O.2    28  TRP28      -0.2718
      5  CB       -41.0060  -24.7010  153.5800 C.3    28  TRP28       0.0564
      6  CG       -41.2150  -24.8940  152.1080 C.ar   28  TRP28       0.0003
      7  CD1      -41.7800  -25.9760  151.4950 C.ar   28  TRP28       0.0946
      8  CD2      -40.8500  -23.9860  151.0620 C.ar   28  TRP28       0.0152
      9  NE1      -41.7920  -25.7950  150.1330 N.ar   28  TRP28      -0.2442
     10  CE2      -41.2260  -24.5810  149.8420 C.ar   28  TRP28       0.0810
     11  CE3      -40.2420  -22.7270  151.0390 C.ar   28  TRP28       0.0012
     12  CZ2      -41.0160  -23.9600  148.6130 C.ar   28  TRP28       0.0191
     13  CZ3      -40.0330  -22.1130  149.8190 C.ar   28  TRP28       0.0001
     14  CH2      -40.4200  -22.7290  148.6230 C.ar   28  TRP28       0.0015
     15  N        -38.1730  -23.3700  153.6070 N.am   29  TYR29      -0.1976
     16  CA       -37.1260  -22.6310  152.9070 C.3    29  TYR29       0.1639
     17  C        -35.7730  -23.3360  152.9720 C.2    29  TYR29       0.2290
     18  O        -35.1320  -23.5630  151.9460 O.2    29  TYR29      -0.2864
     19  CB       -37.0110  -21.2170  153.4790 C.3    29  TYR29       0.0560
     20  CG       -35.8680  -20.4030  152.9190 C.ar   29  TYR29      -0.0198
     21  CD1      -35.9770  -19.7700  151.6880 C.ar   29  TYR29      -0.0009
     22  CD2      -34.6820  -20.2570  153.6270 C.ar   29  TYR29      -0.0009
     23  CE1      -34.9370  -19.0190  151.1770 C.ar   29  TYR29       0.0417
     24  CE2      -33.6360  -19.5100  153.1230 C.ar   29  TYR29       0.0417
     25  CZ       -33.7690  -18.8930  151.8980 C.ar   29  TYR29       0.1957
     26  OH       -32.7290  -18.1460  151.3940 O.3    29  TYR29      -0.2866
     27  N        -35.4520  -26.7710  151.2880 N.3    32  ASN32      -0.1225
     28  CA       -35.4090  -26.6870  149.8330 C.3    32  ASN32       0.1785
     29  C        -34.1240  -26.0530  149.3100 C.2    32  ASN32       0.2597
     30  O        -34.0020  -25.7690  148.1180 O.2    32  ASN32      -0.2718
     31  CB       -36.6280  -25.9380  149.2990 C.3    32  ASN32       0.1169
     32  CG       -37.8590  -26.8170  149.2220 C.2    32  ASN32       0.2627
     33  OD1      -38.1040  -27.4690  148.2070 O.2    32  ASN32      -0.2716
     34  ND2      -38.6420  -26.8390  150.2950 N.am   32  ASN32      -0.0877
     35  N        -33.1730  -25.8230  150.2110 N.am   33  LEU33      -0.1966
     36  CA       -31.8560  -25.3270  149.8290 C.3    33  LEU33       0.1713
     37  C        -30.9650  -26.4970  149.4180 C.2    33  LEU33       0.2458
     38  O        -31.0470  -27.5730  150.0080 O.2    33  LEU33      -0.2730
     39  CB       -31.2200  -24.5480  150.9830 C.3    33  LEU33       0.0310
     40  CG       -31.0750  -23.0420  150.7590 C.3    33  LEU33       0.0022
     41  CD1      -32.4030  -22.4360  150.3440 C.3    33  LEU33       0.0001
     42  CD2      -30.5370  -22.3590  152.0060 C.3    33  LEU33       0.0001
     43  N        -30.1040  -26.2860  148.4070 N.am   34  PRO34      -0.2727
     44  CA       -29.2620  -27.3440  147.8360 C.3    34  PRO34       0.1402
     45  C        -28.4180  -28.0650  148.8780 C.2    34  PRO34       0.2269
     46  O        -28.0350  -29.2080  148.6660 O.2    34  PRO34      -0.2865
     47  CB       -28.3520  -26.5860  146.8610 C.3    34  PRO34       0.0296
     48  CG       -28.4110  -25.1700  147.3010 C.3    34  PRO34       0.0237
     49  CD       -29.7990  -24.9770  147.8090 C.3    34  PRO34       0.0939
     50  N        -30.7520  -30.8970  150.4640 N.3    37  ARG37      -0.1245
     51  CA       -31.2860  -31.9330  149.5810 C.3    37  ARG37       0.1563
     52  C        -30.6100  -33.2660  149.8920 C.2    37  ARG37       0.2260
     53  O        -29.8490  -33.7850  149.0780 O.2    37  ARG37      -0.2867
     54  CB       -31.0310  -31.5750  148.1160 C.3    37  ARG37       0.0307
     55  CG       -32.2080  -30.9600  147.3660 C.3    37  ARG37       0.0489
     56  CD       -32.4760  -29.5310  147.8120 C.3    37  ARG37       0.2205
     57  NE       -33.1910  -28.7570  146.7990 N.pl3  37  ARG37      -0.0865
     58  CZ       -34.5120  -28.7430  146.6560 C.cat  37  ARG37       0.5346
     59  NH1      -35.0660  -28.0040  145.7050 N.pl3  37  ARG37       0.1354
     60  NH2      -35.2810  -29.4670  147.4590 N.pl3  37  ARG37       0.1354
     61  N        -24.9220  -32.0030  141.8900 N.3    44  LEU44      -0.1245
     62  CA       -25.9030  -31.0130  141.4620 C.3    44  LEU44       0.1561
     63  C        -26.0570  -29.8950  142.4920 C.2    44  LEU44       0.2260
     64  O        -26.1700  -28.7100  142.1380 O.2    44  LEU44      -0.2867
     65  CB       -27.2520  -31.6810  141.1920 C.3    44  LEU44       0.0270
     66  CG       -27.3860  -32.5100  139.9090 C.3    44  LEU44       0.0019
     67  CD1      -26.6740  -31.8360  138.7400 C.3    44  LEU44       0.0001
     68  CD2      -26.8860  -33.9360  140.1120 C.3    44  LEU44       0.0001
     69  N        -23.2800  -27.6390  142.0250 N.3    47  ILE47      -0.1231
     70  CA       -23.5210  -26.7710  140.8760 C.3    47  ILE47       0.1692
     71  C        -24.3910  -25.5780  141.2590 C.2    47  ILE47       0.2591
     72  O        -24.0490  -24.4370  140.9380 O.2    47  ILE47      -0.2718
     73  CB       -24.1350  -27.5260  139.6720 C.3    47  ILE47       0.0266
     74  CG1      -23.0340  -28.0270  138.7350 C.3    47  ILE47       0.0019
     75  CG2      -25.0530  -26.6150  138.8740 C.3    47  ILE47       0.0020
     76  CD1      -22.4580  -29.3600  139.1120 C.3    47  ILE47       0.0001
     77  N        -25.4920  -25.8290  141.9670 N.am   48  GLU48      -0.1979
     78  CA       -26.3730  -24.7300  142.3650 C.3    48  GLU48       0.1602
     79  C        -25.6650  -23.7300  143.2790 C.2    48  GLU48       0.2287
     80  O        -25.6280  -22.5260  142.9890 O.2    48  GLU48      -0.2864
     81  CB       -27.6490  -25.2400  143.0390 C.3    48  GLU48       0.0415
     82  CG       -28.6290  -24.1220  143.3750 C.3    48  GLU48       0.1163
     83  CD       -29.9460  -24.6260  143.9320 C.2    48  GLU48       0.3649
     84  OE1      -30.1160  -25.8580  144.0500 O.co2  48  GLU48      -0.2457
     85  OE2      -30.8160  -23.7860  144.2510 O.co2  48  GLU48      -0.2457
     86  N        -22.9640  -21.8060  141.5950 N.3    51  LEU51      -0.1231
     87  CA       -23.5700  -20.9120  140.6150 C.3    51  LEU51       0.1693
     88  C        -24.0190  -19.6190  141.2910 C.2    51  LEU51       0.2591
     89  O        -23.6130  -18.5140  140.8970 O.2    51  LEU51      -0.2718
     90  CB       -24.7570  -21.6050  139.9450 C.3    51  LEU51       0.0284
     91  CG       -25.0900  -21.3070  138.4830 C.3    51  LEU51       0.0019
     92  CD1      -23.9110  -21.6140  137.5790 C.3    51  LEU51       0.0001
     93  CD2      -26.3060  -22.1160  138.0630 C.3    51  LEU51       0.0001
     94  N        -24.8310  -19.7720  142.3330 N.am   52  ALA52      -0.1980
     95  CA       -25.3530  -18.6330  143.0790 C.3    52  ALA52       0.1597
     96  C        -24.2280  -17.7880  143.6700 C.2    52  ALA52       0.2287
     97  O        -24.2270  -16.5580  143.5490 O.2    52  ALA52      -0.2864
     98  CB       -26.3000  -19.1040  144.1740 C.3    52  ALA52       0.0319
@<TRIPOS>BOND
     1    92    91    1
     2    93    91    1
     3    91    90    1
     4    74    76    1
     5    74    73    1
     6    67    66    1
     7    75    73    1
     8    73    70    1
     9    66    68    1
    10    66    65    1
    11    90    87    1
    12    87    88    1
    13    87    86    1
    14    70    71    1
    15    70    69    1
    16    89    88    2
    17    72    71    2
    18    65    62    1
    19    71    77   am
    20    88    94   am
    21    62    61    1
    22    62    63    1
    23    77    78    1
    24    64    63    2
    25    94    95    1
    26    78    81    1
    27    78    79    1
    28    80    79    2
    29    81    82    1
    30    95    96    1
    31    95    98    1
    32    82    83    1
    33    97    96    2
    34    83    84   ar
    35    83    85   ar
    36    59    58    1
    37    58    57    2
    38    58    60    1
    39    57    56    1
    40    47    48    1
    41    47    44    1
    42    48    49    1
    43    55    56    1
    44    55    54    1
    45    49    43    1
    46    44    43    1
    47    44    45    1
    48    54    51    1
    49    30    29    2
    50    33    32    2
    51    43    37   am
    52    12    14   ar
    53    12    10   ar
    54    14    13   ar
    55    46    45    2
    56    53    52    2
    57    32    31    1
    58    32    34   am
    59    31    28    1
    60    29    28    1
    61    29    35   am
    62    37    36    1
    63    37    38    2
    64    51    52    1
    65    51    50    1
    66    13    11   ar
    67    36    35    1
    68    36    39    1
    69    28    27    1
    70    10     9   ar
    71    10     8   ar
    72     9     7   ar
    73    41    40    1
    74    40    39    1
    75    40    42    1
    76    11     8   ar
    77     8     6   ar
    78    23    21   ar
    79    23    25   ar
    80    26    25    1
    81     7     6   ar
    82    21    20   ar
    83    25    24   ar
    84    18    17    2
    85     6     5    1
    86     4     3    2
    87    16    17    1
    88    16    19    1
    89    16    15    1
    90    20    19    1
    91    20    22   ar
    92    24    22   ar
    93     3    15   am
    94     3     2    1
    95     5     2    1
    96     2     1    1
