@<TRIPOS>MOLECULE
tmp/4xk8N03.pdb
 139 141 0 0 0
SMALL
GASTEIGER

@<TRIPOS>ATOM
      1  N         13.3780   26.6320  235.6180 N.3   101  TRP101     -0.1241
      2  CA        13.7630   25.9770  236.8600 C.3   101  TRP101      0.1605
      3  C         12.5360   25.6590  237.7080 C.2   101  TRP101      0.2264
      4  O         12.3240   24.5060  238.1140 O.2   101  TRP101     -0.2867
      5  CB        14.7180   26.8680  237.6520 C.3   101  TRP101      0.0550
      6  CG        15.0700   26.3130  238.9900 C.ar  101  TRP101      0.0003
      7  CD1       14.4230   26.5480  240.1700 C.ar  101  TRP101      0.0946
      8  CD2       16.1500   25.4250  239.2950 C.ar  101  TRP101      0.0152
      9  NE1       15.0340   25.8610  241.1900 N.ar  101  TRP101     -0.2442
     10  CE2       16.0970   25.1640  240.6800 C.ar  101  TRP101      0.0810
     11  CE3       17.1560   24.8270  238.5330 C.ar  101  TRP101      0.0012
     12  CZ2       17.0130   24.3310  241.3160 C.ar  101  TRP101      0.0191
     13  CZ3       18.0610   24.0030  239.1660 C.ar  101  TRP101      0.0001
     14  CH2       17.9850   23.7620  240.5440 C.ar  101  TRP101      0.0015
     15  N         11.1210   21.8580  238.6460 N.3   105  ARG105     -0.1245
     16  CA        10.9180   21.2520  239.9570 C.3   105  ARG105      0.1563
     17  C          9.4500   20.8900  240.1840 C.2   105  ARG105      0.2260
     18  O          9.1400   19.8460  240.7680 O.2   105  ARG105     -0.2867
     19  CB        11.4330   22.1710  241.0670 C.3   105  ARG105      0.0307
     20  CG        12.9270   22.4530  240.9880 C.3   105  ARG105      0.0489
     21  CD        13.4440   23.1190  242.2570 C.3   105  ARG105      0.2205
     22  NE        13.3880   22.2300  243.4160 N.pl3 105  ARG105     -0.0865
     23  CZ        14.3930   21.4580  243.8190 C.cat 105  ARG105      0.5346
     24  NH1       15.5420   21.4580  243.1560 N.pl3 105  ARG105      0.1354
     25  NH2       14.2510   20.6840  244.8860 N.pl3 105  ARG105      0.1354
     26  N         10.9320   16.6000  245.2950 N.3   116  VAL116     -0.1231
     27  CA        11.3680   17.9910  245.1710 C.3   116  VAL116      0.1692
     28  C         10.9560   18.8860  246.3370 C.2   116  VAL116      0.2592
     29  O         10.6630   20.0650  246.1390 O.2   116  VAL116     -0.2718
     30  CB        10.8580   18.6280  243.8650 C.3   116  VAL116      0.0266
     31  CG1       12.0270   19.0890  243.0140 C.3   116  VAL116      0.0020
     32  CG2       10.0130   17.6410  243.0950 C.3   116  VAL116      0.0020
     33  N         10.9380   18.3360  247.5470 N.am  117  ASN117     -0.1960
     34  CA        10.5440   19.1100  248.7240 C.3   117  ASN117      0.1819
     35  C         11.7120   19.7330  249.4870 C.2   117  ASN117      0.2622
     36  O         11.5110   20.6090  250.3270 O.2   117  ASN117     -0.2715
     37  CB         9.7030   18.2510  249.6730 C.3   117  ASN117      0.1195
     38  CG         8.3110   17.9810  249.1360 C.2   117  ASN117      0.2630
     39  OD1        7.3640   18.7030  249.4450 O.2   117  ASN117     -0.2716
     40  ND2        8.1810   16.9380  248.3230 N.am  117  ASN117     -0.0877
     41  N         12.9290   19.2880  249.1860 N.am  118  THR118     -0.1937
     42  CA        14.1150   19.7450  249.9100 C.3   118  THR118      0.2028
     43  C         15.0010   20.6680  249.0760 C.2   118  THR118      0.2642
     44  O         15.1330   20.4960  247.8650 O.2   118  THR118     -0.2714
     45  CB        14.9550   18.5610  250.4250 C.3   118  THR118      0.1808
     46  OG1       15.2700   17.6880  249.3350 O.3   118  THR118     -0.2208
     47  CG2       14.1840   17.7840  251.4790 C.3   118  THR118      0.0379
     48  N         15.5930   21.6560  249.7410 N.am  119  ASP119     -0.1957
     49  CA        16.4840   22.6200  249.1010 C.3   119  ASP119      0.1825
     50  C         17.8560   21.9930  248.8530 C.2   119  ASP119      0.2464
     51  O         18.5340   21.5860  249.7960 O.2   119  ASP119     -0.2730
     52  CB        16.5970   23.8720  249.9830 C.3   119  ASP119      0.1450
     53  CG        17.5660   24.9130  249.4350 C.2   119  ASP119      0.3671
     54  OD1       17.9890   24.8110  248.2660 O.co2 119  ASP119     -0.2456
     55  OD2       17.9040   25.8500  250.1880 O.co2 119  ASP119     -0.2456
     56  N         18.2620   21.9110  247.5740 N.am  120  PRO120     -0.2715
     57  CA        19.5280   21.2910  247.1600 C.3   120  PRO120      0.1536
     58  C         20.7700   21.9400  247.7710 C.2   120  PRO120      0.2598
     59  O         21.7660   21.2460  247.9840 O.2   120  PRO120     -0.2715
     60  CB        19.5260   21.4700  245.6350 C.3   120  PRO120      0.0310
     61  CG        18.5320   22.5530  245.3680 C.3   120  PRO120      0.0237
     62  CD        17.4840   22.3770  246.4140 C.3   120  PRO120      0.0939
     63  N         20.7190   23.2410  248.0430 N.am  121  ILE121     -0.1964
     64  CA        21.8560   23.9250  248.6520 C.3   121  ILE121      0.1727
     65  C         21.8430   23.7790  250.1700 C.2   121  ILE121      0.2616
     66  O         22.8030   23.2930  250.7690 O.2   121  ILE121     -0.2715
     67  CB        21.8870   25.4230  248.3010 C.3   121  ILE121      0.0290
     68  CG1       21.8140   25.6230  246.7890 C.3   121  ILE121      0.0022
     69  CG2       23.1340   26.0770  248.8800 C.3   121  ILE121      0.0023
     70  CD1       22.0330   27.0520  246.3500 C.3   121  ILE121      0.0001
     71  N         20.7440   24.2050  250.7850 N.am  122  PHE122     -0.1974
     72  CA        20.5930   24.1400  252.2340 C.3   122  PHE122      0.1639
     73  C         19.5220   23.1300  252.6310 C.2   122  PHE122      0.2290
     74  O         18.3320   23.4420  252.6040 O.2   122  PHE122     -0.2864
     75  CB        20.2390   25.5200  252.7900 C.3   122  PHE122      0.0560
     76  CG        21.1370   26.6190  252.2980 C.ar  122  PHE122     -0.0200
     77  CD1       22.3980   26.7980  252.8430 C.ar  122  PHE122     -0.0042
     78  CD2       20.7210   27.4720  251.2880 C.ar  122  PHE122     -0.0042
     79  CE1       23.2270   27.8080  252.3920 C.ar  122  PHE122     -0.0003
     80  CE2       21.5450   28.4870  250.8340 C.ar  122  PHE122     -0.0003
     81  CZ        22.8000   28.6540  251.3850 C.ar  122  PHE122     -0.0000
     82  N         16.0920   23.7660  254.8930 N.3   125  ASN125     -0.1225
     83  CA        14.7860   24.2610  254.4690 C.3   125  ASN125      0.1785
     84  C         14.0010   23.2500  253.6370 C.2   125  ASN125      0.2597
     85  O         14.5160   22.7030  252.6620 O.2   125  ASN125     -0.2718
     86  CB        14.9480   25.5620  253.6820 C.3   125  ASN125      0.1169
     87  CG        15.5150   26.6840  254.5250 C.2   125  ASN125      0.2627
     88  OD1       15.1290   26.8670  255.6790 O.2   125  ASN125     -0.2716
     89  ND2       16.4420   27.4420  253.9520 N.am  125  ASN125     -0.0877
     90  N         12.7510   23.0100  254.0240 N.am  126  LYS126     -0.1966
     91  CA        11.8980   22.0540  253.3230 C.3   126  LYS126      0.1728
     92  C         10.4950   22.6120  253.1050 C.2   126  LYS126      0.2616
     93  O         10.1000   23.5870  253.7420 O.2   126  LYS126     -0.2715
     94  CB        11.8130   20.7370  254.0990 C.3   126  LYS126      0.0311
     95  CG        13.1400   20.0170  254.2660 C.3   126  LYS126      0.0038
     96  CD        13.0160   18.8490  255.2310 C.3   126  LYS126      0.0206
     97  CE        13.4350   19.2470  256.6380 C.3   126  LYS126      0.1093
     98  NZ        13.1950   18.1580  257.6270 N.3   126  LYS126     -0.1314
     99  N          9.7470   21.9870  252.1990 N.am  127  LEU127     -0.1977
    100  CA         8.3600   22.3660  251.9450 C.3   127  LEU127      0.1596
    101  C          7.4080   21.4360  252.6910 C.2   127  LEU127      0.2287
    102  O          7.6330   20.2270  252.7510 O.2   127  LEU127     -0.2864
    103  CB         8.0610   22.3350  250.4460 C.3   127  LEU127      0.0297
    104  CG         8.9270   23.2530  249.5810 C.3   127  LEU127      0.0022
    105  CD1        8.5700   23.1090  248.1090 C.3   127  LEU127      0.0001
    106  CD2        8.7970   24.7000  250.0320 C.3   127  LEU127      0.0001
    107  N          7.7710   27.6980  253.7640 N.3   138  LEU138     -0.1231
    108  CA         7.8960   29.0920  254.1740 C.3   138  LEU138      0.1693
    109  C          7.7780   30.0340  252.9770 C.2   138  LEU138      0.2592
    110  O          7.2590   31.1430  253.0970 O.2   138  LEU138     -0.2718
    111  CB         9.2190   29.3200  254.9130 C.3   138  LEU138      0.0284
    112  CG         9.3880   30.6340  255.6840 C.3   138  LEU138      0.0019
    113  CD1       10.2200   30.4080  256.9370 C.3   138  LEU138      0.0001
    114  CD2       10.0190   31.7200  254.8190 C.3   138  LEU138      0.0001
    115  N          8.2620   29.5850  251.8240 N.am  139  TRP139     -0.1962
    116  CA         8.2710   30.4130  250.6220 C.3   139  TRP139      0.1771
    117  C          6.8810   30.6120  250.0220 C.2   139  TRP139      0.2619
    118  O          6.5280   31.7190  249.6190 O.2   139  TRP139     -0.2715
    119  CB         9.2240   29.8270  249.5740 C.3   139  TRP139      0.0590
    120  CG        10.5470   30.5380  249.5020 C.ar  139  TRP139      0.0006
    121  CD1       10.9480   31.6030  250.2560 C.ar  139  TRP139      0.0946
    122  CD2       11.6450   30.2260  248.6340 C.ar  139  TRP139      0.0152
    123  NE1       12.2240   31.9780  249.9070 N.ar  139  TRP139     -0.2442
    124  CE2       12.6740   31.1480  248.9150 C.ar  139  TRP139      0.0810
    125  CE3       11.8570   29.2600  247.6460 C.ar  139  TRP139      0.0012
    126  CZ2       13.8940   31.1310  248.2440 C.ar  139  TRP139      0.0191
    127  CZ3       13.0690   29.2460  246.9810 C.ar  139  TRP139      0.0001
    128  CH2       14.0720   30.1750  247.2830 C.ar  139  TRP139      0.0015
    129  N          6.0930   29.5420  249.9650 N.am  140  PHE140     -0.1974
    130  CA         4.7920   29.5990  249.3040 C.3   140  PHE140      0.1639
    131  C          3.6120   29.6620  250.2760 C.2   140  PHE140      0.2290
    132  O          2.4720   29.8790  249.8630 O.2   140  PHE140     -0.2864
    133  CB         4.6260   28.4180  248.3430 C.3   140  PHE140      0.0560
    134  CG         5.7800   28.2400  247.3980 C.ar  140  PHE140     -0.0200
    135  CD1        5.8990   29.0390  246.2730 C.ar  140  PHE140     -0.0042
    136  CD2        6.7440   27.2760  247.6330 C.ar  140  PHE140     -0.0042
    137  CE1        6.9590   28.8790  245.4000 C.ar  140  PHE140     -0.0003
    138  CE2        7.8050   27.1120  246.7640 C.ar  140  PHE140     -0.0003
    139  CZ         7.9120   27.9150  245.6460 C.ar  140  PHE140     -0.0000
@<TRIPOS>BOND
     1     1     2    1
     2     2     5    1
     3     2     3    1
     4     5     6    1
     5     3     4    2
     6    11    13   ar
     7    11     8   ar
     8    15    16    1
     9     6     8   ar
    10     6     7   ar
    11    13    14   ar
    12     8    10   ar
    13    16    17    1
    14    16    19    1
    15     7     9   ar
    16    17    18    2
    17    14    12   ar
    18    10     9   ar
    19    10    12   ar
    20    20    19    1
    21    20    21    1
    22    21    22    1
    23    31    30    1
    24    32    30    1
    25    24    23    1
    26    22    23    2
    27    23    25    1
    28    30    27    1
    29    27    26    1
    30    27    28    1
    31    61    60    1
    32    61    62    1
    33   137   139   ar
    34   137   135   ar
    35    60    57    1
    36   139   138   ar
    37    29    28    2
    38   135   134   ar
    39    28    33   am
    40    70    68    1
    41    62    56    1
    42   138   136   ar
    43    68    67    1
    44   127   128   ar
    45   127   125   ar
    46    57    56    1
    47    57    58    1
    48   128   126   ar
    49   134   136   ar
    50   134   133    1
    51    33    34    1
    52    56    50   am
    53   125   122   ar
    54    58    59    2
    55    58    63   am
    56    44    43    2
    57    63    64    1
    58   105   104    1
    59   126   124   ar
    60    54    53   ar
    61    67    64    1
    62    67    69    1
    63    40    38   am
    64   133   130    1
    65   122   124   ar
    66   122   120   ar
    67    64    65    1
    68    34    35    1
    69    34    37    1
    70    50    49    1
    71    50    51    2
    72   124   123   ar
    73    43    48   am
    74    43    42    1
    75    49    48    1
    76    49    52    1
    77    38    39    2
    78    38    37    1
    79    41    35   am
    80    41    42    1
    81   130   129    1
    82   130   131    1
    83    46    45    1
    84    53    52    1
    85    53    55   ar
    86    35    36    2
    87   120   119    1
    88   120   121   ar
    89   119   116    1
    90   104   106    1
    91   104   103    1
    92   118   117    2
    93   132   131    2
    94   123   121   ar
    95    42    45    1
    96   129   117   am
    97   117   116    1
    98    65    66    2
    99    65    71   am
   100    45    47    1
   101   103   100    1
   102   116   115    1
   103    71    72    1
   104    80    78   ar
   105    80    81   ar
   106    78    76   ar
   107    81    79   ar
   108   115   109   am
   109   100    99    1
   110   100   101    1
   111    99    92   am
   112    72    73    1
   113    72    75    1
   114    76    75    1
   115    76    77   ar
   116    79    77   ar
   117    74    73    2
   118    85    84    2
   119   101   102    2
   120   109   110    2
   121   109   108    1
   122    92    91    1
   123    92    93    2
   124    91    90    1
   125    91    94    1
   126    84    90   am
   127    84    83    1
   128    86    83    1
   129    86    87    1
   130   107   108    1
   131    89    87   am
   132    94    95    1
   133   108   111    1
   134    95    96    1
   135    83    82    1
   136    87    88    2
   137   114   112    1
   138   111   112    1
   139    96    97    1
   140   112   113    1
   141    97    98    1
