@<TRIPOS>MOLECULE
tmp/4xk8Q37.pdb
 80 81 0 0 0
SMALL
GASTEIGER

@<TRIPOS>ATOM
      1  N       -110.1750  -10.7160  116.1350 N.3   318  HIS318     -0.1226
      2  CA      -110.0400  -10.9870  114.7040 C.3   318  HIS318      0.1752
      3  C       -109.4690  -12.3700  114.3950 C.2   318  HIS318      0.2596
      4  O       -108.2590  -12.5890  114.4600 O.2   318  HIS318     -0.2718
      5  CB      -109.2010   -9.9010  114.0230 C.3   318  HIS318      0.0759
      6  CG      -109.8310   -8.5430  114.0550 C.ar  318  HIS318      0.0818
      7  ND1     -109.8790   -7.7700  115.1940 N.ar  318  HIS318     -0.2268
      8  CD2     -110.4440   -7.8220  113.0850 C.ar  318  HIS318      0.1154
      9  CE1     -110.4940   -6.6310  114.9260 C.ar  318  HIS318      0.1986
     10  NE2     -110.8470   -6.6380  113.6530 N.ar  318  HIS318     -0.2212
     11  N       -110.3590  -13.2940  114.0460 N.am  319  LYS319     -0.1966
     12  CA      -109.9810  -14.6670  113.7400 C.3   319  LYS319      0.1728
     13  C       -111.0090  -15.3190  112.8180 C.2   319  LYS319      0.2617
     14  O       -112.1950  -15.3790  113.1330 O.2   319  LYS319     -0.2715
     15  CB      -109.8110  -15.4740  115.0320 C.3   319  LYS319      0.0311
     16  CG      -110.9690  -15.3700  116.0160 C.3   319  LYS319      0.0038
     17  CD      -110.6650  -16.1230  117.3010 C.3   319  LYS319      0.0206
     18  CE      -111.8810  -16.1900  118.2150 C.3   319  LYS319      0.1093
     19  NZ      -112.3920  -14.8430  118.5900 N.3   319  LYS319     -0.1314
     20  N       -110.5470  -15.8080  111.6740 N.am  320  GLY320     -0.1941
     21  CA      -111.4420  -16.3550  110.6720 C.3   320  GLY320      0.1998
     22  C       -111.3530  -17.8610  110.5380 C.2   320  GLY320      0.2481
     23  O       -110.6360  -18.5150  111.2960 O.2   320  GLY320     -0.2729
     24  N       -112.0950  -18.4210  109.5720 N.am  321  PRO321     -0.2715
     25  CA      -112.1120  -19.8610  109.2930 C.3   321  PRO321      0.1536
     26  C       -110.7800  -20.3550  108.7310 C.2   321  PRO321      0.2599
     27  O       -110.3890  -21.4950  108.9880 O.2   321  PRO321     -0.2715
     28  CB      -113.2090  -19.9980  108.2290 C.3   321  PRO321      0.0310
     29  CG      -114.0230  -18.7470  108.3360 C.3   321  PRO321      0.0237
     30  CD      -113.0500  -17.6860  108.7270 C.3   321  PRO321      0.0939
     31  N       -110.0950  -19.4960  107.9810 N.am  322  PHE322     -0.1960
     32  CA      -108.8230  -19.8500  107.3560 C.3   322  PHE322      0.1771
     33  C       -107.6590  -19.7770  108.3380 C.2   322  PHE322      0.2620
     34  O       -106.6400  -20.4420  108.1530 O.2   322  PHE322     -0.2715
     35  CB      -108.5260  -18.9170  106.1780 C.3   322  PHE322      0.0574
     36  CG      -109.4580  -19.0800  105.0100 C.ar  322  PHE322     -0.0200
     37  CD1     -110.7150  -18.4950  105.0180 C.ar  322  PHE322     -0.0042
     38  CD2     -109.0650  -19.7960  103.8920 C.ar  322  PHE322     -0.0042
     39  CE1     -111.5670  -18.6330  103.9400 C.ar  322  PHE322     -0.0003
     40  CE2     -109.9120  -19.9390  102.8110 C.ar  322  PHE322     -0.0003
     41  CZ      -111.1660  -19.3560  102.8350 C.ar  322  PHE322     -0.0000
     42  N       -107.8120  -18.9650  109.3780 N.am  323  THR323     -0.1951
     43  CA      -106.6980  -18.6460  110.2650 C.3   323  THR323      0.1897
     44  C       -106.8570  -19.1840  111.6890 C.2   323  THR323      0.2313
     45  O       -105.9330  -19.0900  112.4980 O.2   323  THR323     -0.2863
     46  CB      -106.4560  -17.1250  110.3150 C.3   323  THR323      0.1794
     47  OG1     -107.6300  -16.4670  110.8060 O.3   323  THR323     -0.2208
     48  CG2     -106.1350  -16.5930  108.9240 C.3   323  THR323      0.0378
     49  N       -106.4550  -16.6830  114.8960 N.3   326  GLY326     -0.1210
     50  CA      -106.1890  -15.3310  114.4440 C.3   326  GLY326      0.1956
     51  C       -105.0570  -14.6130  115.1530 C.2   326  GLY326      0.2611
     52  O       -103.9530  -15.1460  115.2850 O.2   326  GLY326     -0.2717
     53  N       -105.3340  -13.3930  115.6050 N.am  327  HIS327     -0.1975
     54  CA      -104.2940  -12.5090  116.1230 C.3   327  HIS327      0.1656
     55  C       -104.0400  -12.6280  117.6220 C.2   327  HIS327      0.2291
     56  O       -103.3580  -11.7840  118.2030 O.2   327  HIS327     -0.2864
     57  CB      -104.6200  -11.0550  115.7800 C.3   327  HIS327      0.0771
     58  CG      -104.7590  -10.8000  114.3140 C.ar  327  HIS327      0.0820
     59  ND1     -105.8890  -11.1460  113.6050 N.ar  327  HIS327     -0.2267
     60  CD2     -103.9070  -10.2480  113.4190 C.ar  327  HIS327      0.1154
     61  CE1     -105.7310  -10.8090  112.3380 C.ar  327  HIS327      0.1986
     62  NE2     -104.5360  -10.2640  112.1990 N.ar  327  HIS327     -0.2212
     63  N       -101.3170  -17.3230  113.5850 N.3   415  LEU415     -0.1245
     64  CA      -100.9290  -16.8220  112.2620 C.3   415  LEU415      0.1561
     65  C        -99.4780  -17.1430  111.8900 C.2   415  LEU415      0.2260
     66  O        -99.1940  -17.6650  110.7980 O.2   415  LEU415     -0.2867
     67  CB      -101.1530  -15.3140  112.1880 C.3   415  LEU415      0.0270
     68  CG      -102.6000  -14.8360  112.2630 C.3   415  LEU415      0.0019
     69  CD1     -102.6490  -13.3260  112.3780 C.3   415  LEU415      0.0001
     70  CD2     -103.3670  -15.2950  111.0450 C.3   415  LEU415      0.0001
     71  N        -96.6690  -23.4440  106.1110 N.3   422  HIS422     -0.1241
     72  CA       -96.6640  -23.4970  104.6390 C.3   422  HIS422      0.1621
     73  C        -95.5840  -22.6260  103.9730 C.2   422  HIS422      0.2264
     74  O        -95.7200  -22.1910  102.8100 O.2   422  HIS422     -0.2867
     75  CB       -98.0540  -23.2060  104.0640 C.3   422  HIS422      0.0745
     76  CG       -98.4880  -21.7810  104.1980 C.ar  422  HIS422      0.0817
     77  ND1      -98.4650  -21.1020  105.3970 N.ar  422  HIS422     -0.2268
     78  CD2      -98.9790  -20.9120  103.2840 C.ar  422  HIS422      0.1154
     79  CE1      -98.9130  -19.8730  105.2130 C.ar  422  HIS422      0.1986
     80  NE2      -99.2310  -19.7320  103.9390 N.ar  422  HIS422     -0.2212
@<TRIPOS>BOND
     1    74    73    2
     2    40    41   ar
     3    40    38   ar
     4    41    39   ar
     5    78    80   ar
     6    78    76   ar
     7    38    36   ar
     8    80    79   ar
     9    39    37   ar
    10    73    72    1
    11    75    76    1
    12    75    72    1
    13    76    77   ar
    14    72    71    1
    15    36    37   ar
    16    36    35    1
    17    79    77   ar
    18    35    32    1
    19    32    31    1
    20    32    33    1
    21    31    26   am
    22    34    33    2
    23    28    29    1
    24    28    25    1
    25    29    30    1
    26    33    42   am
    27    30    24    1
    28    26    27    2
    29    26    25    1
    30    48    46    1
    31    25    24    1
    32    42    43    1
    33    24    22   am
    34    43    46    1
    35    43    44    1
    36    46    47    1
    37    22    21    1
    38    22    23    2
    39    21    20    1
    40    66    65    2
    41    70    68    1
    42    20    13   am
    43    44    45    2
    44    65    64    1
    45    67    64    1
    46    67    68    1
    47    62    61   ar
    48    62    60   ar
    49    64    63    1
    50    68    69    1
    51    61    59   ar
    52    13    14    2
    53    13    12    1
    54     8    10   ar
    55     8     6   ar
    56    60    58   ar
    57    59    58   ar
    58    10     9   ar
    59    12    11    1
    60    12    15    1
    61     5     6    1
    62     5     2    1
    63    11     3   am
    64     6     7   ar
    65    58    57    1
    66     3     4    2
    67     3     2    1
    68    50    49    1
    69    50    51    1
    70     2     1    1
    71     9     7   ar
    72    15    16    1
    73    51    52    2
    74    51    53   am
    75    53    54    1
    76    57    54    1
    77    16    17    1
    78    54    55    1
    79    17    18    1
    80    55    56    2
    81    18    19    1
