@<TRIPOS>MOLECULE
tmp/4xk8N12.pdb
 100 101 0 0 0
SMALL
GASTEIGER

@<TRIPOS>ATOM
      1  N         -3.7310   15.2340  236.0030 N.3    40  TRP40      -0.1227
      2  CA        -2.9260   16.1730  235.2370 C.3    40  TRP40       0.1737
      3  C         -3.7500   17.4060  234.8800 C.2    40  TRP40       0.2595
      4  O         -3.2590   18.5330  234.9500 O.2    40  TRP40      -0.2718
      5  CB        -2.3910   15.5120  233.9670 C.3    40  TRP40       0.0564
      6  CG        -1.5850   16.4430  233.1160 C.ar   40  TRP40       0.0003
      7  CD1       -2.0420   17.2220  232.0920 C.ar   40  TRP40       0.0946
      8  CD2       -0.1800   16.7030  233.2220 C.ar   40  TRP40       0.0152
      9  NE1       -1.0080   17.9490  231.5530 N.ar   40  TRP40      -0.2442
     10  CE2        0.1450   17.6480  232.2290 C.ar   40  TRP40       0.0810
     11  CE3        0.8340   16.2280  234.0600 C.ar   40  TRP40       0.0012
     12  CZ2        1.4410   18.1260  232.0490 C.ar   40  TRP40       0.0191
     13  CZ3        2.1220   16.7040  233.8800 C.ar   40  TRP40       0.0001
     14  CH2        2.4140   17.6440  232.8830 C.ar   40  TRP40       0.0015
     15  N         -5.0050   17.1820  234.5030 N.am   41  ASN41      -0.1974
     16  CA        -5.9250   18.2710  234.2000 C.3    41  ASN41       0.1688
     17  C         -6.2250   19.1260  235.4260 C.2    41  ASN41       0.2292
     18  O         -6.4990   20.3180  235.3020 O.2    41  ASN41      -0.2864
     19  CB        -7.2270   17.7320  233.6030 C.3    41  ASN41       0.1181
     20  CG        -7.0420   17.1880  232.2010 C.2    41  ASN41       0.2629
     21  OD1       -5.9390   17.2070  231.6560 O.2    41  ASN41      -0.2716
     22  ND2       -8.1210   16.6810  231.6160 N.am   41  ASN41      -0.0877
     23  N         -3.1260   21.3110  235.7560 N.3    44  ALA44      -0.1245
     24  CA        -3.1690   22.2690  234.6610 C.3    44  ALA44       0.1562
     25  C         -4.2060   23.3570  234.9180 C.2    44  ALA44       0.2260
     26  O         -3.9660   24.5330  234.6400 O.2    44  ALA44      -0.2867
     27  CB        -3.4470   21.5590  233.3470 C.3    44  ALA44       0.0290
     28  N         -3.2320   27.2640  235.3630 N.3    48  HIS48      -0.1241
     29  CA        -4.0050   28.1430  234.4900 C.3    48  HIS48       0.1621
     30  C         -4.7640   29.1740  235.3150 C.2    48  HIS48       0.2264
     31  O         -4.7750   30.3580  234.9880 O.2    48  HIS48      -0.2867
     32  CB        -4.9970   27.3430  233.6430 C.3    48  HIS48       0.0745
     33  CG        -4.4430   26.8760  232.3340 C.ar   48  HIS48       0.0817
     34  ND1       -3.8080   25.6620  232.1840 N.ar   48  HIS48      -0.2268
     35  CD2       -4.4410   27.4560  231.1110 C.ar   48  HIS48       0.1154
     36  CE1       -3.4340   25.5170  230.9250 C.ar   48  HIS48       0.1986
     37  NE2       -3.8050   26.5920  230.2530 N.ar   48  HIS48      -0.2212
     38  N         -2.1640   31.7290  237.0700 N.3    51  TRP51      -0.1241
     39  CA        -1.5910   32.6150  236.0630 C.3    51  TRP51       0.1605
     40  C         -2.6370   33.5830  235.5280 C.2    51  TRP51       0.2264
     41  O         -2.3380   34.7490  235.2760 O.2    51  TRP51      -0.2867
     42  CB        -0.9830   31.8190  234.9070 C.3    51  TRP51       0.0550
     43  CG         0.3970   31.3080  235.1880 C.ar   51  TRP51       0.0003
     44  CD1        0.7960   30.0030  235.2270 C.ar   51  TRP51       0.0946
     45  CD2        1.5630   32.0920  235.4670 C.ar   51  TRP51       0.0152
     46  NE1        2.1360   29.9260  235.5130 N.ar   51  TRP51      -0.2442
     47  CE2        2.6320   31.1950  235.6650 C.ar   51  TRP51       0.0810
     48  CE3        1.8080   33.4650  235.5690 C.ar   51  TRP51       0.0012
     49  CZ2        3.9240   31.6250  235.9620 C.ar   51  TRP51       0.0191
     50  CZ3        3.0910   33.8900  235.8630 C.ar   51  TRP51       0.0001
     51  CH2        4.1330   32.9740  236.0560 C.ar   51  TRP51       0.0015
     52  N          9.2760   25.5400  236.9830 N.3   103  GLU103     -0.1245
     53  CA         8.3960   24.5880  236.3220 C.3   103  GLU103      0.1567
     54  C          9.0470   23.2140  236.2410 C.2   103  GLU103      0.2260
     55  O          8.3570   22.2000  236.1650 O.2   103  GLU103     -0.2867
     56  CB         8.0300   25.0770  234.9180 C.3   103  GLU103      0.0388
     57  CG         7.1110   26.2900  234.8950 C.3   103  GLU103      0.1160
     58  CD         5.6750   25.9440  235.2320 C.2   103  GLU103      0.3649
     59  OE1        5.3250   25.9530  236.4310 O.co2 103  GLU103     -0.2457
     60  OE2        4.8950   25.6650  234.2970 O.co2 103  GLU103     -0.2457
     61  N         -9.5310   37.2140  231.2750 N.3   171  VAL171     -0.1231
     62  CA        -8.3670   37.4990  230.4450 C.3   171  VAL171      0.1692
     63  C         -8.6860   37.2760  228.9730 C.2   171  VAL171      0.2591
     64  O         -8.3790   38.1250  228.1240 O.2   171  VAL171     -0.2718
     65  CB        -7.1640   36.6280  230.8450 C.3   171  VAL171      0.0266
     66  CG1       -6.0160   36.8260  229.8700 C.3   171  VAL171      0.0020
     67  CG2       -6.7280   36.9510  232.2660 C.3   171  VAL171      0.0020
     68  N         -9.3040   36.1340  228.6730 N.am  172  MET172     -0.1979
     69  CA        -9.7530   35.8610  227.3080 C.3   172  MET172      0.1605
     70  C        -10.6680   36.9840  226.8230 C.2   172  MET172      0.2287
     71  O        -10.5610   37.4550  225.6800 O.2   172  MET172     -0.2864
     72  CB       -10.4740   34.5140  227.2340 C.3   172  MET172      0.0413
     73  CG        -9.7000   33.4430  226.4850 C.3   172  MET172      0.0598
     74  SD        -7.9290   33.5100  226.8160 S.3   172  MET172     -0.1393
     75  CE        -7.3090   34.0080  225.2130 C.3   172  MET172      0.0692
     76  N         -8.6280   40.0780  225.9270 N.3   175  TRP175     -0.1227
     77  CA        -7.9860   39.8830  224.6320 C.3   175  TRP175      0.1737
     78  C         -8.9710   40.1180  223.4850 C.2   175  TRP175      0.2595
     79  O         -8.7540   40.9980  222.6420 O.2   175  TRP175     -0.2718
     80  CB        -7.3780   38.4810  224.5550 C.3   175  TRP175      0.0564
     81  CG        -6.2970   38.3320  223.5260 C.ar  175  TRP175      0.0003
     82  CD1       -6.1420   39.0600  222.3820 C.ar  175  TRP175      0.0946
     83  CD2       -5.2040   37.4050  223.5620 C.ar  175  TRP175      0.0152
     84  NE1       -5.0300   38.6340  221.6960 N.ar  175  TRP175     -0.2442
     85  CE2       -4.4360   37.6200  222.4010 C.ar  175  TRP175      0.0810
     86  CE3       -4.8050   36.4110  224.4620 C.ar  175  TRP175      0.0012
     87  CZ2       -3.2900   36.8770  222.1150 C.ar  175  TRP175      0.0191
     88  CZ3       -3.6680   35.6740  224.1760 C.ar  175  TRP175      0.0001
     89  CH2       -2.9240   35.9120  223.0130 C.ar  175  TRP175      0.0015
     90  N        -10.0590   39.3500  223.4640 N.am  176  PHE176     -0.1976
     91  CA       -11.0570   39.4910  222.4000 C.3   176  PHE176      0.1639
     92  C        -11.6550   40.8970  222.3110 C.2   176  PHE176      0.2290
     93  O        -11.8920   41.4080  221.2150 O.2   176  PHE176     -0.2864
     94  CB       -12.1730   38.4550  222.5490 C.3   176  PHE176      0.0560
     95  CG       -11.8180   37.0970  222.0160 C.ar  176  PHE176     -0.0200
     96  CD1      -11.9540   36.8150  220.6680 C.ar  176  PHE176     -0.0042
     97  CD2      -11.3590   36.1010  222.8610 C.ar  176  PHE176     -0.0042
     98  CE1      -11.6340   35.5670  220.1720 C.ar  176  PHE176     -0.0003
     99  CE2      -11.0380   34.8500  222.3700 C.ar  176  PHE176     -0.0003
    100  CZ       -11.1750   34.5840  221.0240 C.ar  176  PHE176     -0.0000
@<TRIPOS>BOND
     1    98    96   ar
     2    98   100   ar
     3    96    95   ar
     4   100    99   ar
     5    93    92    2
     6    84    82   ar
     7    84    85   ar
     8    95    94    1
     9    95    97   ar
    10    87    85   ar
    11    87    89   ar
    12    92    91    1
    13    99    97   ar
    14    82    81   ar
    15    91    94    1
    16    91    90    1
    17    85    83   ar
    18    79    78    2
    19    89    88   ar
    20    90    78   am
    21    78    77    1
    22    81    83   ar
    23    81    80    1
    24    83    86   ar
    25    88    86   ar
    26    80    77    1
    27    77    76    1
    28    75    74    1
    29    71    70    2
    30    73    74    1
    31    73    72    1
    32    70    69    1
    33    72    69    1
    34    69    68    1
    35    64    63    2
    36    68    63   am
    37    63    62    1
    38    66    65    1
    39    37    36   ar
    40    37    35   ar
    41    62    65    1
    42    62    61    1
    43    65    67    1
    44    36    34   ar
    45    35    33   ar
    46     9     7   ar
    47     9    10   ar
    48    22    20   am
    49    21    20    2
    50    12    10   ar
    51    12    14   ar
    52     7     6   ar
    53    34    33   ar
    54    20    19    1
    55    10     8   ar
    56    33    32    1
    57    14    13   ar
    58     6     8   ar
    59     6     5    1
    60     8    11   ar
    61    27    24    1
    62    19    16    1
    63    32    29    1
    64    13    11   ar
    65     5     2    1
    66    16    15    1
    67    16    17    1
    68    60    58   ar
    69    29    30    1
    70    29    28    1
    71    15     3   am
    72    26    25    2
    73    24    25    1
    74    24    23    1
    75     3     4    2
    76     3     2    1
    77    57    56    1
    78    57    58    1
    79    42    43    1
    80    42    39    1
    81    56    53    1
    82    31    30    2
    83    43    44   ar
    84    43    45   ar
    85    44    46   ar
    86    58    59   ar
    87     2     1    1
    88    41    40    2
    89    18    17    2
    90    45    48   ar
    91    45    47   ar
    92    46    47   ar
    93    40    39    1
    94    48    50   ar
    95    47    49   ar
    96    50    51   ar
    97    49    51   ar
    98    39    38    1
    99    55    54    2
   100    54    53    1
   101    53    52    1
