@<TRIPOS>MOLECULE
tmp/4xk8Q16.pdb
 142 130 0 0 0
SMALL
GASTEIGER

@<TRIPOS>ATOM
      1  N        -90.7710    2.1350  104.0590 N.3   351  SER351     -0.1217
      2  CA       -91.7970    2.2860  103.0310 C.3   351  SER351      0.1889
      3  C        -92.2930    3.7300  102.9700 C.2   351  SER351      0.2288
      4  O        -92.4200    4.3200  101.8840 O.2   351  SER351     -0.2866
      5  CB       -92.9600    1.3290  103.2970 C.3   351  SER351      0.2089
      6  OG       -92.5140   -0.0170  103.3160 O.3   351  SER351     -0.2183
      7  N        -89.8800    6.0350  101.2920 N.3   354  ILE354     -0.1231
      8  CA       -90.0010    5.8930   99.8430 C.3   354  ILE354      0.1692
      9  C        -91.1770    6.7030   99.2770 C.2   354  ILE354      0.2591
     10  O        -91.0200    7.4630   98.2910 O.2   354  ILE354     -0.2718
     11  CB       -90.0840    4.4130   99.4300 C.3   354  ILE354      0.0266
     12  CG1      -88.7290    3.7440   99.6700 C.3   354  ILE354      0.0019
     13  CG2      -90.4800    4.2840   97.9740 C.3   354  ILE354      0.0020
     14  CD1      -88.7350    2.2580   99.4740 C.3   354  ILE354      0.0001
     15  N        -92.3470    6.5660   99.9030 N.am  355  VAL355     -0.1980
     16  CA       -93.4960    7.3560   99.4490 C.3   355  VAL355      0.1595
     17  C        -93.2180    8.8560   99.5930 C.2   355  VAL355      0.2287
     18  O        -93.7100    9.6600   98.8060 O.2   355  VAL355     -0.2864
     19  CB       -94.8390    6.9760  100.1410 C.3   355  VAL355      0.0276
     20  CG1      -94.9320    5.4670  100.3650 C.3   355  VAL355      0.0022
     21  CG2      -95.0190    7.7250  101.4430 C.3   355  VAL355      0.0022
     22  N        -91.3180    9.8930   96.4460 N.3   358  GLN358     -0.1231
     23  CA       -92.2310   10.0580   95.3070 C.3   358  GLN358      0.1698
     24  C        -93.1250   11.3060   95.4150 C.2   358  GLN358      0.2592
     25  O        -93.1790   12.1390   94.4990 O.2   358  GLN358     -0.2718
     26  CB       -93.0900    8.8070   95.1260 C.3   358  GLN358      0.0381
     27  CG       -92.2770    7.5260   95.0510 C.3   358  GLN358      0.0905
     28  CD       -92.2370    6.9300   93.6620 C.2   358  GLN358      0.2608
     29  OE1      -91.6600    5.8630   93.4500 O.2   358  GLN358     -0.2717
     30  NE2      -92.8630    7.6090   92.7090 N.am  358  GLN358     -0.0878
     31  N        -93.8150   11.4370   96.5420 N.am  359  HIS359     -0.1976
     32  CA       -94.7330   12.5490   96.7470 C.3   359  HIS359      0.1656
     33  C        -94.0320   13.9080   96.7550 C.2   359  HIS359      0.2291
     34  O        -94.6290   14.9260   96.3910 O.2   359  HIS359     -0.2864
     35  CB       -95.5350   12.3560   98.0330 C.3   359  HIS359      0.0771
     36  CG       -96.5130   11.2270   97.9680 C.ar  359  HIS359      0.0820
     37  ND1      -97.4570   11.0030   98.9470 N.ar  359  HIS359     -0.2267
     38  CD2      -96.6860   10.2500   97.0470 C.ar  359  HIS359      0.1154
     39  CE1      -98.1760    9.9420   98.6250 C.ar  359  HIS359      0.1986
     40  NE2      -97.7250    9.4640   97.4800 N.ar  359  HIS359     -0.2212
     41  N        -84.9860    7.5200   98.8370 N.3   384  MET384     -0.1245
     42  CA       -85.0840    6.1580   98.3120 C.3   384  MET384      0.1570
     43  C        -84.0900    5.2150   99.0000 C.2   384  MET384      0.2261
     44  O        -84.4600    4.1250   99.4730 O.2   384  MET384     -0.2867
     45  CB       -84.8610    6.1400   96.8000 C.3   384  MET384      0.0387
     46  CG       -86.1160    6.3850   95.9920 C.3   384  MET384      0.0595
     47  SD       -87.2500    4.9860   96.0630 S.3   384  MET384     -0.1393
     48  CE       -88.6070    5.5820   95.0570 C.3   384  MET384      0.0692
     49  N        -84.9560    1.9510  101.4800 N.3   388  GLY388     -0.1225
     50  CA       -84.5030    0.5980  101.2030 C.3   388  GLY388      0.1811
     51  C        -83.6900   -0.0120  102.3330 C.2   388  GLY388      0.2280
     52  O        -83.9150   -1.1710  102.7330 O.2   388  GLY388     -0.2866
     53  N        -85.8690   -0.9600  105.2500 N.3   391  ILE391     -0.1231
     54  CA       -86.6220   -2.1890  104.9720 C.3   391  ILE391      0.1692
     55  C        -85.7750   -3.4550  105.1480 C.2   391  ILE391      0.2591
     56  O        -86.1980   -4.4310  105.8020 O.2   391  ILE391     -0.2718
     57  CB       -87.2390   -2.1790  103.5620 C.3   391  ILE391      0.0266
     58  CG1      -88.2180   -1.0150  103.4170 C.3   391  ILE391      0.0019
     59  CG2      -87.9650   -3.4730  103.2970 C.3   391  ILE391      0.0020
     60  CD1      -88.8810   -0.9480  102.0640 C.3   391  ILE391      0.0001
     61  N        -84.5740   -3.4390  104.5750 N.am  392  VAL392     -0.1980
     62  CA       -83.6650   -4.5710  104.7520 C.3   392  VAL392      0.1595
     63  C        -83.4500   -4.8340  106.2450 C.2   392  VAL392      0.2287
     64  O        -83.4370   -5.9880  106.7030 O.2   392  VAL392     -0.2864
     65  CB       -82.3180   -4.3370  104.0370 C.3   392  VAL392      0.0276
     66  CG1      -81.3330   -5.4400  104.3780 C.3   392  VAL392      0.0022
     67  CG2      -82.5290   -4.2540  102.5290 C.3   392  VAL392      0.0022
     68  N       -105.6300    5.8370   85.1660 N.3   476  ILE476     -0.1245
     69  CA      -105.5500    6.5170   86.4570 C.3   476  ILE476      0.1561
     70  C       -105.1590    7.9850   86.3030 C.2   476  ILE476      0.2260
     71  O       -105.7170    8.8570   86.9740 O.2   476  ILE476     -0.2867
     72  CB      -104.5600    5.8270   87.4110 C.3   476  ILE476      0.0252
     73  CG1     -105.0780    4.4430   87.7990 C.3   476  ILE476      0.0019
     74  CG2     -104.3550    6.6580   88.6700 C.3   476  ILE476      0.0019
     75  CD1     -104.2750    3.7940   88.8930 C.3   476  ILE476      0.0001
     76  N        -87.8110   -5.7310   93.2990 N.3   533  ILE533     -0.1245
     77  CA       -88.4510   -5.7190   94.6110 C.3   533  ILE533      0.1561
     78  C        -88.8800   -7.1270   95.0310 C.2   533  ILE533      0.2260
     79  O        -88.6210   -7.5600   96.1630 O.2   533  ILE533     -0.2867
     80  CB       -89.6650   -4.7780   94.6540 C.3   533  ILE533      0.0252
     81  CG1      -89.2230   -3.3260   94.4640 C.3   533  ILE533      0.0019
     82  CG2      -90.4060   -4.9350   95.9740 C.3   533  ILE533      0.0019
     83  CD1      -90.3650   -2.3410   94.4160 C.3   533  ILE533      0.0001
     84  N        -85.8240   -9.1640   96.1180 N.3   536  THR536     -0.1203
     85  CA       -85.3830   -8.7290   97.4430 C.3   536  THR536      0.1994
     86  C        -86.2580   -9.3540   98.5260 C.2   536  THR536      0.2617
     87  O        -85.7560   -9.9000   99.5200 O.2   536  THR536     -0.2717
     88  CB       -85.4290   -7.1940   97.5790 C.3   536  THR536      0.1784
     89  OG1      -84.7700   -6.5900   96.4590 O.3   536  THR536     -0.2211
     90  CG2      -84.7500   -6.7470   98.8670 C.3   536  THR536      0.0376
     91  N        -87.5700   -9.2900   98.3140 N.am  537  VAL537     -0.1979
     92  CA       -88.5180   -9.9060   99.2340 C.3   537  VAL537      0.1595
     93  C        -88.2950  -11.4180   99.3190 C.2   537  VAL537      0.2287
     94  O        -88.3810  -11.9990  100.3980 O.2   537  VAL537     -0.2864
     95  CB       -89.9800   -9.6070   98.8330 C.3   537  VAL537      0.0276
     96  CG1      -90.9540  -10.4000   99.6970 C.3   537  VAL537      0.0022
     97  CG2      -90.2630   -8.1200   98.9380 C.3   537  VAL537      0.0022
     98  N        -85.0950  -11.9830  101.5380 N.3   540  LEU540     -0.1231
     99  CA       -85.3220  -11.6000  102.9340 C.3   540  LEU540      0.1693
    100  C        -86.3460  -12.4830  103.6630 C.2   540  LEU540      0.2591
    101  O        -86.0820  -12.9820  104.7630 O.2   540  LEU540     -0.2718
    102  CB       -85.7230  -10.1280  103.0220 C.3   540  LEU540      0.0284
    103  CG       -84.6800   -9.1370  102.5010 C.3   540  LEU540      0.0019
    104  CD1      -85.2030   -7.7100  102.5770 C.3   540  LEU540      0.0001
    105  CD2      -83.3690   -9.2720  103.2600 C.3   540  LEU540      0.0001
    106  N        -87.5070  -12.6740  103.0430 N.am  541  LEU541     -0.1980
    107  CA       -88.5770  -13.4890  103.6200 C.3   541  LEU541      0.1596
    108  C        -88.1600  -14.9430  103.7910 C.2   541  LEU541      0.2287
    109  O        -88.4560  -15.5590  104.8180 O.2   541  LEU541     -0.2864
    110  CB       -89.8480  -13.3980  102.7730 C.3   541  LEU541      0.0297
    111  CG       -91.0760  -14.1760  103.2510 C.3   541  LEU541      0.0022
    112  CD1      -91.4770  -13.7760  104.6620 C.3   541  LEU541      0.0001
    113  CD2      -92.2300  -13.9580  102.2860 C.3   541  LEU541      0.0001
    114  N        -81.1690   -5.0340   97.1510 N.3   589  MET589     -0.1245
    115  CA       -81.7520   -3.7330   97.4450 C.3   589  MET589      0.1570
    116  C        -80.9660   -2.6370   96.7290 C.2   589  MET589      0.2261
    117  O        -81.5420   -1.7050   96.1650 O.2   589  MET589     -0.2867
    118  CB       -81.7750   -3.4890   98.9570 C.3   589  MET589      0.0387
    119  CG       -82.4310   -2.1800   99.3840 C.3   589  MET589      0.0595
    120  SD       -81.2770   -0.7900   99.4670 S.3   589  MET589     -0.1393
    121  CE       -80.1740   -1.3330  100.7700 C.3   589  MET589      0.0692
    122  N        -81.9660   -2.8630   92.9520 N.3   592  SER592     -0.1202
    123  CA       -83.2990   -2.3050   92.7650 C.3   592  SER592      0.2020
    124  C        -83.3380   -0.7830   92.8790 C.2   592  SER592      0.2618
    125  O        -83.8430   -0.0990   91.9850 O.2   592  SER592     -0.2717
    126  CB       -84.2480   -2.9130   93.7890 C.3   592  SER592      0.2103
    127  OG       -83.7940   -2.6390   95.1010 O.3   592  SER592     -0.2182
    128  N        -82.8030   -0.2550   93.9760 N.am  593  ILE593     -0.1979
    129  CA       -82.8210    1.1860   94.1940 C.3   593  ILE593      0.1595
    130  C        -81.9980    1.9060   93.1280 C.2   593  ILE593      0.2287
    131  O        -82.3680    2.9900   92.6790 O.2   593  ILE593     -0.2864
    132  CB       -82.3320    1.5680   95.6090 C.3   593  ILE593      0.0276
    133  CG1      -83.1970    0.8920   96.6780 C.3   593  ILE593      0.0022
    134  CG2      -82.3740    3.0720   95.8040 C.3   593  ILE593      0.0022
    135  CD1      -84.6680    1.2520   96.6100 C.3   593  ILE593      0.0001
    136  N        -83.9760    2.1500   90.0990 N.3   596  VAL596     -0.1245
    137  CA       -85.0420    3.1080   90.4050 C.3   596  VAL596      0.1561
    138  C        -84.5900    4.5630   90.2180 C.2   596  VAL596      0.2260
    139  O        -85.2470    5.3490   89.5200 O.2   596  VAL596     -0.2867
    140  CB       -85.5820    2.9270   91.8420 C.3   596  VAL596      0.0252
    141  CG1      -86.4280    4.1280   92.2490 C.3   596  VAL596      0.0019
    142  CG2      -86.3850    1.6450   91.9480 C.3   596  VAL596      0.0019
@<TRIPOS>BOND
     1    68    69    1
     2    70    69    1
     3    70    71    2
     4    69    72    1
     5    72    73    1
     6    72    74    1
     7    73    75    1
     8   139   138    2
     9   136   137    1
    10   138   137    1
    11   137   140    1
    12   140   142    1
    13   140   141    1
    14   125   124    2
    15   131   130    2
    16    30    28   am
    17   123   124    1
    18   123   122    1
    19   123   126    1
    20   124   128   am
    21   130   129    1
    22    76    77    1
    23    29    28    2
    24    28    27    1
    25   126   127    1
    26   128   129    1
    27   129   132    1
    28    83    81    1
    29    81    80    1
    30    25    24    2
    31    77    80    1
    32    77    78    1
    33    80    82    1
    34    78    79    2
    35    27    26    1
    36    48    47    1
    37    26    23    1
    38    23    24    1
    39    23    22    1
    40    24    31   am
    41   132   134    1
    42   132   133    1
    43    46    47    1
    44    46    45    1
    45    84    85    1
    46   117   116    2
    47    34    33    2
    48    89    88    1
    49    31    32    1
    50   135   133    1
    51   116   115    1
    52    32    33    1
    53    32    35    1
    54    45    42    1
    55    38    40   ar
    56    38    36   ar
    57   114   115    1
    58    85    88    1
    59    85    86    1
    60   115   118    1
    61    40    39   ar
    62    88    90    1
    63    36    35    1
    64    36    37   ar
    65    13    11    1
    66    10     9    2
    67    42    41    1
    68    42    43    1
    69    91    86   am
    70    91    92    1
    71    86    87    2
    72    39    37   ar
    73    18    17    2
    74    95    97    1
    75    95    92    1
    76    95    96    1
    77   118   119    1
    78    43    44    2
    79    92    93    1
    80     9     8    1
    81     9    15   am
    82    93    94    2
    83   119   120    1
    84    11    12    1
    85    11     8    1
    86    16    17    1
    87    16    15    1
    88    16    19    1
    89   120   121    1
    90    14    12    1
    91     8     7    1
    92    19    20    1
    93    19    21    1
    94    50    49    1
    95    50    51    1
    96    98    99    1
    97     4     3    2
    98    60    58    1
    99   113   111    1
   100    51    52    2
   101   103   104    1
   102   103   102    1
   103   103   105    1
   104    67    65    1
   105   110   111    1
   106   110   107    1
   107    99   102    1
   108    99   100    1
   109     3     2    1
   110     2     5    1
   111     2     1    1
   112   106   107    1
   113   106   100   am
   114   111   112    1
   115     5     6    1
   116    59    57    1
   117    58    57    1
   118    57    54    1
   119   107   108    1
   120   100   101    2
   121   108   109    2
   122    65    66    1
   123    65    62    1
   124    61    62    1
   125    61    55   am
   126    62    63    1
   127    54    55    1
   128    54    53    1
   129    55    56    2
   130    63    64    2
