@<TRIPOS>MOLECULE
tmp/4xk8R19.pdb
 187 178 0 0 0
SMALL
GASTEIGER

@<TRIPOS>ATOM
      1  N        -35.0800  -39.8330   79.7130 N.3   170  ALA170     -0.1245
      2  CA       -34.9630  -38.3880   79.5300 C.3   170  ALA170      0.1562
      3  C        -33.8740  -37.9880   78.5350 C.2   170  ALA170      0.2260
      4  O        -34.1050  -37.1500   77.6660 O.2   170  ALA170     -0.2867
      5  CB       -34.7380  -37.7000   80.8730 C.3   170  ALA170      0.0290
      6  N        -34.8310  -38.5290   74.8170 N.3   173  ARG173     -0.1231
      7  CA       -35.8580  -37.5780   74.3980 C.3   173  ARG173      0.1694
      8  C        -35.3060  -36.1610   74.2560 C.2   173  ARG173      0.2591
      9  O        -35.6650  -35.4430   73.3280 O.2   173  ARG173     -0.2718
     10  CB       -37.0620  -37.6080   75.3500 C.3   173  ARG173      0.0321
     11  CG       -38.0580  -36.4700   75.1260 C.3   173  ARG173      0.0489
     12  CD       -39.5090  -36.8930   75.3330 C.3   173  ARG173      0.2205
     13  NE       -39.7170  -37.6210   76.5790 N.pl3 173  ARG173     -0.0865
     14  CZ       -40.0310  -37.0500   77.7350 C.cat 173  ARG173      0.5346
     15  NH1      -40.1650  -35.7360   77.8090 N.pl3 173  ARG173      0.1354
     16  NH2      -40.2030  -37.7930   78.8180 N.pl3 173  ARG173      0.1354
     17  N        -34.4210  -35.7680   75.1640 N.am  174  LEU174     -0.1980
     18  CA       -33.7920  -34.4560   75.0830 C.3   174  LEU174      0.1596
     19  C        -32.8910  -34.3430   73.8550 C.2   174  LEU174      0.2287
     20  O        -32.9710  -33.3610   73.1090 O.2   174  LEU174     -0.2864
     21  CB       -33.0080  -34.1440   76.3590 C.3   174  LEU174      0.0297
     22  CG       -33.8360  -33.5590   77.5050 C.3   174  LEU174      0.0022
     23  CD1      -32.9770  -33.3390   78.7410 C.3   174  LEU174      0.0001
     24  CD2      -34.4940  -32.2560   77.0700 C.3   174  LEU174      0.0001
     25  N        -35.2090  -34.2880   70.7210 N.3   177  HIS177     -0.1226
     26  CA       -36.0190  -33.0790   70.6170 C.3   177  HIS177      0.1752
     27  C        -35.1740  -31.8550   70.2770 C.2   177  HIS177      0.2595
     28  O        -35.5550  -31.0490   69.4270 O.2   177  HIS177     -0.2718
     29  CB       -36.8260  -32.8490   71.8990 C.3   177  HIS177      0.0759
     30  CG       -38.0560  -33.6980   71.9950 C.ar  177  HIS177      0.0818
     31  ND1      -38.9250  -33.6330   73.0630 N.ar  177  HIS177     -0.2268
     32  CD2      -38.5690  -34.6240   71.1500 C.ar  177  HIS177      0.1154
     33  CE1      -39.9160  -34.4870   72.8750 C.ar  177  HIS177      0.1986
     34  NE2      -39.7240  -35.1010   71.7210 N.ar  177  HIS177     -0.2212
     35  N        -34.0210  -31.7270   70.9270 N.am  178  LEU178     -0.1980
     36  CA       -33.1250  -30.6140   70.6430 C.3   178  LEU178      0.1596
     37  C        -32.5820  -30.6830   69.2250 C.2   178  LEU178      0.2287
     38  O        -32.5640  -29.6820   68.5090 O.2   178  LEU178     -0.2864
     39  CB       -31.9700  -30.5670   71.6420 C.3   178  LEU178      0.0297
     40  CG       -32.3170  -30.0260   73.0250 C.3   178  LEU178      0.0022
     41  CD1      -31.0640  -29.8760   73.8690 C.3   178  LEU178      0.0001
     42  CD2      -33.0350  -28.7020   72.8840 C.3   178  LEU178      0.0001
     43  N        -36.5540  -32.2000   66.7210 N.3   181  LEU181     -0.1231
     44  CA       -37.7660  -31.3910   66.8270 C.3   181  LEU181      0.1693
     45  C        -37.4820  -29.8960   66.7320 C.2   181  LEU181      0.2592
     46  O        -38.2380  -29.1540   66.1090 O.2   181  LEU181     -0.2718
     47  CB       -38.5040  -31.7060   68.1280 C.3   181  LEU181      0.0284
     48  CG       -39.8330  -30.9840   68.3570 C.3   181  LEU181      0.0019
     49  CD1      -40.7970  -31.2220   67.2010 C.3   181  LEU181      0.0001
     50  CD2      -40.4460  -31.4280   69.6740 C.3   181  LEU181      0.0001
     51  N        -36.3890  -29.4580   67.3460 N.am  182  PHE182     -0.1976
     52  CA       -35.9910  -28.0550   67.2840 C.3   182  PHE182      0.1639
     53  C        -35.0630  -27.7910   66.1010 C.2   182  PHE182      0.2290
     54  O        -35.3400  -26.9280   65.2690 O.2   182  PHE182     -0.2864
     55  CB       -35.3110  -27.6270   68.5870 C.3   182  PHE182      0.0560
     56  CG       -36.2690  -27.3040   69.6970 C.ar  182  PHE182     -0.0200
     57  CD1      -36.9580  -28.3090   70.3540 C.ar  182  PHE182     -0.0042
     58  CD2      -36.4730  -25.9920   70.0920 C.ar  182  PHE182     -0.0042
     59  CE1      -37.8380  -28.0120   71.3760 C.ar  182  PHE182     -0.0003
     60  CE2      -37.3500  -25.6910   71.1140 C.ar  182  PHE182     -0.0003
     61  CZ       -38.0340  -26.7030   71.7550 C.ar  182  PHE182     -0.0000
     62  N        -29.6990  -20.9480   64.2750 N.3   279  ILE279     -0.1245
     63  CA       -30.2700  -21.5820   65.4590 C.3   279  ILE279      0.1561
     64  C        -30.4430  -23.0830   65.2450 C.2   279  ILE279      0.2260
     65  O        -30.3080  -23.8630   66.1880 O.2   279  ILE279     -0.2867
     66  CB       -31.6110  -20.9420   65.8970 C.3   279  ILE279      0.0252
     67  CG1      -32.6810  -21.1650   64.8310 C.3   279  ILE279      0.0019
     68  CG2      -31.4300  -19.4590   66.1880 C.3   279  ILE279      0.0019
     69  CD1      -33.9940  -20.5210   65.1420 C.3   279  ILE279      0.0001
     70  N        -27.0920  -24.5010   66.0970 N.3   282  LEU282     -0.1231
     71  CA       -26.8700  -24.5170   67.5420 C.3   282  LEU282      0.1693
     72  C        -27.6640  -25.6340   68.2250 C.2   282  LEU282      0.2592
     73  O        -27.1660  -26.3010   69.1350 O.2   282  LEU282     -0.2718
     74  CB       -27.2040  -23.1600   68.1600 C.3   282  LEU282      0.0284
     75  CG       -26.2690  -22.0160   67.7670 C.3   282  LEU282      0.0019
     76  CD1      -26.5650  -20.7780   68.5970 C.3   282  LEU282      0.0001
     77  CD2      -24.8150  -22.4350   67.9150 C.3   282  LEU282      0.0001
     78  N        -28.8980  -25.8360   67.7730 N.am  283  PHE283     -0.1976
     79  CA       -29.7380  -26.9060   68.2960 C.3   283  PHE283      0.1639
     80  C        -29.1610  -28.2720   67.9490 C.2   283  PHE283      0.2290
     81  O        -29.0970  -29.1610   68.7990 O.2   283  PHE283     -0.2864
     82  CB       -31.1640  -26.7830   67.7590 C.3   283  PHE283      0.0560
     83  CG       -32.0100  -25.7960   68.5100 C.ar  283  PHE283     -0.0200
     84  CD1      -32.0160  -25.7840   69.8950 C.ar  283  PHE283     -0.0042
     85  CD2      -32.7990  -24.8810   67.8330 C.ar  283  PHE283     -0.0042
     86  CE1      -32.7910  -24.8770   70.5920 C.ar  283  PHE283     -0.0003
     87  CE2      -33.5770  -23.9710   68.5250 C.ar  283  PHE283     -0.0003
     88  CZ       -33.5730  -23.9710   69.9060 C.ar  283  PHE283     -0.0000
     89  N        -27.5150  -36.9260   83.1140 N.3   300  ILE300     -0.1245
     90  CA       -28.1830  -35.7980   83.7550 C.3   300  ILE300      0.1561
     91  C        -28.1710  -35.9330   85.2750 C.2   300  ILE300      0.2260
     92  O        -27.9020  -34.9640   85.9960 O.2   300  ILE300     -0.2867
     93  CB       -29.6290  -35.6510   83.2490 C.3   300  ILE300      0.0252
     94  CG1      -29.6360  -35.5160   81.7250 C.3   300  ILE300      0.0019
     95  CG2      -30.3050  -34.4580   83.8940 C.3   300  ILE300      0.0019
     96  CD1      -31.0160  -35.4380   81.1210 C.3   300  ILE300      0.0001
     97  N        -26.4810  -33.1920   87.8540 N.3   304  LEU304     -0.1245
     98  CA       -27.2320  -32.6380   88.9740 C.3   304  LEU304      0.1561
     99  C        -26.5420  -32.9550   90.2980 C.2   304  LEU304      0.2260
    100  O        -26.3590  -32.0800   91.1470 O.2   304  LEU304     -0.2867
    101  CB       -28.6510  -33.2090   88.9890 C.3   304  LEU304      0.0270
    102  CG       -29.6280  -32.7560   87.9040 C.3   304  LEU304      0.0019
    103  CD1      -30.8590  -33.6490   87.8950 C.3   304  LEU304      0.0001
    104  CD2      -30.0270  -31.3090   88.1290 C.3   304  LEU304      0.0001
    105  N        -33.1920  -35.5530   89.7100 N.3   322  TYR322     -0.1241
    106  CA       -33.4930  -36.2660   88.4740 C.3   322  TYR322      0.1605
    107  C        -34.7430  -37.1250   88.6200 C.2   322  TYR322      0.2264
    108  O        -35.6790  -36.9960   87.8390 O.2   322  TYR322     -0.2867
    109  CB       -32.3110  -37.1390   88.0360 C.3   322  TYR322      0.0534
    110  CG       -32.5270  -37.8420   86.7100 C.ar  322  TYR322     -0.0201
    111  CD1      -33.1470  -39.0850   86.6490 C.ar  322  TYR322     -0.0009
    112  CD2      -32.1120  -37.2620   85.5200 C.ar  322  TYR322     -0.0009
    113  CE1      -33.3470  -39.7280   85.4400 C.ar  322  TYR322      0.0417
    114  CE2      -32.3080  -37.8970   84.3060 C.ar  322  TYR322      0.0417
    115  CZ       -32.9240  -39.1290   84.2720 C.ar  322  TYR322      0.1957
    116  OH       -33.1170  -39.7640   83.0650 O.3   322  TYR322     -0.2866
    117  N        -38.0770  -35.2580   89.5580 N.3   325  ILE325     -0.1231
    118  CA       -38.6730  -34.5730   88.4150 C.3   325  ILE325      0.1692
    119  C        -39.2360  -35.5810   87.4150 C.2   325  ILE325      0.2592
    120  O        -40.3650  -35.4530   86.9390 O.2   325  ILE325     -0.2718
    121  CB       -37.6460  -33.6890   87.6900 C.3   325  ILE325      0.0266
    122  CG1      -37.2470  -32.5070   88.5640 C.3   325  ILE325      0.0019
    123  CG2      -38.2020  -33.1860   86.3690 C.3   325  ILE325      0.0020
    124  CD1      -36.2770  -31.5930   87.8910 C.3   325  ILE325      0.0001
    125  N        -38.4290  -36.5870   87.1060 N.am  326  ASN326     -0.1974
    126  CA       -38.7550  -37.5750   86.0880 C.3   326  ASN326      0.1688
    127  C        -39.8830  -38.5180   86.5060 C.2   326  ASN326      0.2292
    128  O        -40.5340  -39.1310   85.6570 O.2   326  ASN326     -0.2864
    129  CB       -37.4910  -38.3540   85.7070 C.3   326  ASN326      0.1181
    130  CG       -37.6590  -39.1710   84.4470 C.2   326  ASN326      0.2629
    131  OD1      -37.5150  -40.3930   84.4640 O.2   326  ASN326     -0.2716
    132  ND2      -37.9590  -38.5000   83.3410 N.am  326  ASN326     -0.0877
    133  N        -44.4650  -31.9170   87.9650 N.3   331  PHE331     -0.1227
    134  CA       -43.2720  -31.0790   88.0110 C.3   331  PHE331      0.1736
    135  C        -42.8990  -30.7010   86.5830 C.2   331  PHE331      0.2595
    136  O        -42.6190  -29.5330   86.2730 O.2   331  PHE331     -0.2718
    137  CB       -42.1230  -31.8550   88.6580 C.3   331  PHE331      0.0547
    138  CG       -41.0210  -30.9860   89.2040 C.ar  331  PHE331     -0.0202
    139  CD1      -40.3040  -30.1360   88.3760 C.ar  331  PHE331     -0.0042
    140  CD2      -40.6770  -31.0490   90.5450 C.ar  331  PHE331     -0.0042
    141  CE1      -39.2840  -29.3480   88.8790 C.ar  331  PHE331     -0.0003
    142  CE2      -39.6560  -30.2630   91.0530 C.ar  331  PHE331     -0.0003
    143  CZ       -38.9580  -29.4130   90.2170 C.ar  331  PHE331     -0.0000
    144  N        -42.9130  -31.7130   85.7200 N.am  332  GLN332     -0.1979
    145  CA       -42.5680  -31.5660   84.3140 C.3   332  GLN332      0.1601
    146  C        -43.4970  -30.5730   83.6370 C.2   332  GLN332      0.2287
    147  O        -43.0590  -29.7210   82.8570 O.2   332  GLN332     -0.2864
    148  CB       -42.6490  -32.9270   83.6260 C.3   332  GLN332      0.0394
    149  CG       -41.8080  -33.9830   84.3210 C.3   332  GLN332      0.0908
    150  CD       -42.0760  -35.3860   83.8180 C.2   332  GLN332      0.2608
    151  OE1      -42.6950  -35.5800   82.7720 O.2   332  GLN332     -0.2717
    152  NE2      -41.6170  -36.3760   84.5730 N.am  332  GLN332     -0.0878
    153  N        -42.5880  -26.9600   84.8310 N.3   335  LEU335     -0.1231
    154  CA       -41.4670  -26.3860   84.0900 C.3   335  LEU335      0.1693
    155  C        -41.8990  -26.0170   82.6760 C.2   335  LEU335      0.2591
    156  O        -41.6390  -24.9040   82.2010 O.2   335  LEU335     -0.2718
    157  CB       -40.2940  -27.3690   84.0470 C.3   335  LEU335      0.0284
    158  CG       -39.6290  -27.6910   85.3890 C.3   335  LEU335      0.0019
    159  CD1      -38.7040  -28.8880   85.2610 C.3   335  LEU335      0.0001
    160  CD2      -38.8620  -26.4890   85.9170 C.3   335  LEU335      0.0001
    161  N        -42.5810  -26.9540   82.0220 N.am  336  ALA336     -0.1980
    162  CA       -43.0750  -26.7580   80.6630 C.3   336  ALA336      0.1597
    163  C        -43.9490  -25.5110   80.5300 C.2   336  ALA336      0.2287
    164  O        -43.7050  -24.6640   79.6760 O.2   336  ALA336     -0.2864
    165  CB       -43.8440  -27.9850   80.2070 C.3   336  ALA336      0.0319
    166  N        -41.9660  -22.1110   81.3300 N.3   339  SER339     -0.1202
    167  CA       -41.1440  -21.7260   80.1910 C.3   339  SER339      0.2020
    168  C        -41.9850  -21.2700   78.9990 C.2   339  SER339      0.2618
    169  O        -41.7050  -20.2310   78.3900 O.2   339  SER339     -0.2717
    170  CB       -40.2440  -22.8920   79.7850 C.3   339  SER339      0.2103
    171  OG       -39.4910  -23.3490   80.8940 O.3   339  SER339     -0.2182
    172  N        -43.0170  -22.0470   78.6800 N.am  340  LEU340     -0.1979
    173  CA       -43.8940  -21.7470   77.5540 C.3   340  LEU340      0.1596
    174  C        -44.6010  -20.4100   77.7420 C.2   340  LEU340      0.2287
    175  O        -44.8040  -19.6650   76.7840 O.2   340  LEU340     -0.2864
    176  CB       -44.9240  -22.8570   77.3570 C.3   340  LEU340      0.0297
    177  CG       -45.7930  -22.6700   76.1150 C.3   340  LEU340      0.0022
    178  CD1      -44.9170  -22.6480   74.8770 C.3   340  LEU340      0.0001
    179  CD2      -46.8520  -23.7550   76.0050 C.3   340  LEU340      0.0001
    180  N        -41.9770  -17.6010   77.1350 N.3   343  ILE343     -0.1245
    181  CA       -41.7170  -17.3670   75.7210 C.3   343  ILE343      0.1561
    182  C        -42.9670  -16.9150   74.9650 C.2   343  ILE343      0.2260
    183  O        -42.8610  -16.3860   73.8660 O.2   343  ILE343     -0.2867
    184  CB       -41.0680  -18.5790   75.0180 C.3   343  ILE343      0.0252
    185  CG1      -42.0980  -19.6780   74.7790 C.3   343  ILE343      0.0019
    186  CG2      -39.8730  -19.0880   75.8140 C.3   343  ILE343      0.0019
    187  CD1      -41.8890  -20.4000   73.4800 C.3   343  ILE343      0.0001
@<TRIPOS>BOND
     1    62    63    1
     2    67    69    1
     3    67    66    1
     4    64    63    1
     5    64    65    2
     6    54    53    2
     7    63    66    1
     8    66    68    1
     9    70    71    1
    10    53    52    1
    11    46    45    2
    12    43    44    1
    13    45    44    1
    14    45    51   am
    15    44    47    1
    16    49    48    1
    17    52    51    1
    18    52    55    1
    19    71    74    1
    20    71    72    1
    21    82    79    1
    22    82    83    1
    23    75    77    1
    24    75    74    1
    25    75    76    1
    26    78    72   am
    27    78    79    1
    28    85    83   ar
    29    85    87   ar
    30    80    79    1
    31    80    81    2
    32    47    48    1
    33    72    73    2
    34    48    50    1
    35    38    37    2
    36    83    84   ar
    37    87    88   ar
    38    55    56    1
    39    37    36    1
    40    28    27    2
    41    56    58   ar
    42    56    57   ar
    43    84    86   ar
    44    88    86   ar
    45    58    60   ar
    46    27    26    1
    47    27    35   am
    48    57    59   ar
    49    26    25    1
    50    26    29    1
    51    36    35    1
    52    36    39    1
    53    60    61   ar
    54    32    34   ar
    55    32    30   ar
    56    59    61   ar
    57    39    40    1
    58    34    33   ar
    59    29    30    1
    60    30    31   ar
    61    33    31   ar
    62    42    40    1
    63    40    41    1
    64    20    19    2
    65     9     8    2
    66   187   185    1
    67    19    18    1
    68   183   182    2
    69     8     7    1
    70     8    17   am
    71     7     6    1
    72     7    10    1
    73   185   184    1
    74   178   177    1
    75   182   181    1
    76   184   181    1
    77   184   186    1
    78    18    17    1
    79    18    21    1
    80    11    12    1
    81    11    10    1
    82    12    13    1
    83   181   180    1
    84   179   177    1
    85   177   176    1
    86    21    22    1
    87    13    14    2
    88   175   174    2
    89    24    22    1
    90   176   173    1
    91    22    23    1
    92   173   174    1
    93   173   172    1
    94     4     3    2
    95    14    15    1
    96    14    16    1
    97   169   168    2
    98     3     2    1
    99   172   168   am
   100   168   167    1
   101     2     1    1
   102     2     5    1
   103   164   163    2
   104   170   167    1
   105   170   171    1
   106   167   166    1
   107   165   162    1
   108   163   162    1
   109   162   161    1
   110    96    94    1
   111    94    93    1
   112   161   155   am
   113   156   155    2
   114   155   154    1
   115   151   150    2
   116   147   146    2
   117   116   115    1
   118    89    90    1
   119    93    90    1
   120    93    95    1
   121   132   130   am
   122   148   145    1
   123   148   149    1
   124   146   145    1
   125    90    91    1
   126   150   149    1
   127   150   152   am
   128   157   154    1
   129   157   158    1
   130   154   153    1
   131   115   114   ar
   132   115   113   ar
   133   114   112   ar
   134   145   144    1
   135   130   131    2
   136   130   129    1
   137   159   158    1
   138    91    92    2
   139   158   160    1
   140   113   111   ar
   141   112   110   ar
   142   128   127    2
   143   129   126    1
   144   144   135   am
   145   126   127    1
   146   126   125    1
   147   136   135    2
   148   123   121    1
   149   135   134    1
   150   111   110   ar
   151   110   109    1
   152   120   119    2
   153   125   119   am
   154   119   118    1
   155   121   118    1
   156   121   122    1
   157   108   107    2
   158    97    98    1
   159   124   122    1
   160   103   102    1
   161   102   104    1
   162   102   101    1
   163   133   134    1
   164   134   137    1
   165   109   106    1
   166   139   141   ar
   167   139   138   ar
   168   118   117    1
   169   106   107    1
   170   106   105    1
   171   137   138    1
   172   141   143   ar
   173    98   101    1
   174    98    99    1
   175   138   140   ar
   176   143   142   ar
   177    99   100    2
   178   140   142   ar
