@<TRIPOS>MOLECULE
tmp/4xk8P19.pdb
 129 128 0 0 0
SMALL
GASTEIGER

@<TRIPOS>ATOM
      1  N         42.3930   15.9090  228.7250 N.3    48  TRP48      -0.1241
      2  CA        42.8650   16.7070  227.5960 C.3    48  TRP48       0.1605
      3  C         42.0960   18.0220  227.4880 C.2    48  TRP48       0.2264
      4  O         42.6460   19.0380  227.0570 O.2    48  TRP48      -0.2867
      5  CB        42.7770   15.9230  226.2840 C.3    48  TRP48       0.0550
      6  CG        43.8680   14.9050  226.1150 C.ar   48  TRP48       0.0003
      7  CD1       43.7170   13.5550  225.9980 C.ar   48  TRP48       0.0946
      8  CD2       45.2780   15.1580  226.0430 C.ar   48  TRP48       0.0152
      9  NE1       44.9430   12.9500  225.8590 N.ar   48  TRP48      -0.2442
     10  CE2       45.9180   13.9120  225.8820 C.ar   48  TRP48       0.0810
     11  CE3       46.0610   16.3150  226.1020 C.ar   48  TRP48       0.0012
     12  CZ2       47.3010   13.7910  225.7810 C.ar   48  TRP48       0.0191
     13  CZ3       47.4350   16.1910  226.0010 C.ar   48  TRP48       0.0001
     14  CH2       48.0400   14.9380  225.8420 C.ar   48  TRP48       0.0015
     15  N         45.0580   31.6640  221.3070 N.3    73  TRP73      -0.1241
     16  CA        45.1430   30.2510  220.9440 C.3    73  TRP73       0.1605
     17  C         44.7830   29.9710  219.4880 C.2    73  TRP73       0.2264
     18  O         45.3560   29.0770  218.8650 O.2    73  TRP73      -0.2867
     19  CB        44.2780   29.3920  221.8720 C.3    73  TRP73       0.0550
     20  CG        42.8070   29.6700  221.7730 C.ar   73  TRP73       0.0003
     21  CD1       42.0840   30.5380  222.5380 C.ar   73  TRP73       0.0946
     22  CD2       41.8790   29.0740  220.8560 C.ar   73  TRP73       0.0152
     23  NE1       40.7640   30.5190  222.1550 N.ar   73  TRP73      -0.2442
     24  CE2       40.6130   29.6300  221.1240 C.ar   73  TRP73       0.0810
     25  CE3       41.9970   28.1240  219.8350 C.ar   73  TRP73       0.0012
     26  CZ2       39.4730   29.2690  220.4080 C.ar   73  TRP73       0.0191
     27  CZ3       40.8650   27.7690  219.1260 C.ar   73  TRP73       0.0001
     28  CH2       39.6190   28.3390  219.4160 C.ar   73  TRP73       0.0015
     29  N         47.8350   31.0490  217.1440 N.3    76  ALA76      -0.1231
     30  CA        49.1320   30.6900  217.7080 C.3    76  ALA76       0.1694
     31  C         49.9650   29.8070  216.7830 C.2    76  ALA76       0.2592
     32  O         51.1910   29.7610  216.8960 O.2    76  ALA76      -0.2718
     33  CB        48.9450   30.0100  219.0570 C.3    76  ALA76       0.0304
     34  N         49.3010   29.1070  215.8700 N.am   77  GLY77      -0.1957
     35  CA        49.9860   28.1740  214.9960 C.3    77  GLY77       0.1869
     36  C         50.6510   28.7970  213.7840 C.2    77  GLY77       0.2309
     37  O         51.4840   28.1650  213.1380 O.2    77  GLY77      -0.2863
     38  N         57.3910   29.2260  214.5860 N.3    81  TYR81      -0.1227
     39  CA        58.2590   28.2700  215.2730 C.3    81  TYR81       0.1736
     40  C         59.4520   27.7970  214.4480 C.2    81  TYR81       0.2595
     41  O         59.5040   27.9900  213.2320 O.2    81  TYR81      -0.2718
     42  CB        57.4430   27.0740  215.7730 C.3    81  TYR81       0.0548
     43  CG        56.2910   27.4780  216.6600 C.ar   81  TYR81      -0.0200
     44  CD1       56.4490   27.5710  218.0350 C.ar   81  TYR81      -0.0009
     45  CD2       55.0480   27.7830  216.1210 C.ar   81  TYR81      -0.0009
     46  CE1       55.4010   27.9470  218.8490 C.ar   81  TYR81       0.0417
     47  CE2       53.9960   28.1630  216.9260 C.ar   81  TYR81       0.0417
     48  CZ        54.1760   28.2410  218.2900 C.ar   81  TYR81       0.1957
     49  OH        53.1260   28.6170  219.0970 O.3    81  TYR81      -0.2866
     50  N         60.4040   27.1640  215.1270 N.am   82  PHE82      -0.1976
     51  CA        61.6750   26.7940  214.5160 C.3    82  PHE82       0.1639
     52  C         61.5860   25.5570  213.6300 C.2    82  PHE82       0.2290
     53  O         62.2210   25.4980  212.5800 O.2    82  PHE82      -0.2864
     54  CB        62.7510   26.5900  215.5910 C.3    82  PHE82       0.0560
     55  CG        62.4820   25.4340  216.5180 C.ar   82  PHE82      -0.0200
     56  CD1       61.6300   25.5770  217.6030 C.ar   82  PHE82      -0.0042
     57  CD2       63.0920   24.2070  216.3130 C.ar   82  PHE82      -0.0042
     58  CE1       61.3850   24.5120  218.4620 C.ar   82  PHE82      -0.0003
     59  CE2       62.8520   23.1400  217.1670 C.ar   82  PHE82      -0.0003
     60  CZ        61.9970   23.2940  218.2410 C.ar   82  PHE82      -0.0000
     61  N         55.2980   23.3260  211.5110 N.3    85  SER85      -0.1217
     62  CA        54.1650   22.5460  212.0000 C.3    85  SER85       0.1889
     63  C         54.0880   21.1210  211.4570 C.2    85  SER85       0.2288
     64  O         53.5230   20.2440  212.1030 O.2    85  SER85      -0.2866
     65  CB        52.8580   23.2780  211.7000 C.3    85  SER85       0.2089
     66  OG        52.6940   23.4870  210.3090 O.3    85  SER85      -0.2183
     67  N         56.6300   18.9820  213.4030 N.3    88  LEU88      -0.1245
     68  CA        55.9860   18.9090  214.7100 C.3    88  LEU88       0.1561
     69  C         54.8540   17.8900  214.7030 C.2    88  LEU88       0.2260
     70  O         54.6590   17.1570  215.6730 O.2    88  LEU88      -0.2867
     71  CB        55.4430   20.2840  215.1090 C.3    88  LEU88       0.0270
     72  CG        56.3200   21.2020  215.9660 C.3    88  LEU88       0.0019
     73  CD1       57.7950   20.8880  215.7890 C.3    88  LEU88       0.0001
     74  CD2       56.0390   22.6590  215.6290 C.3    88  LEU88       0.0001
     75  N         56.4050   14.2220  214.5120 N.3    91  ILE91      -0.1231
     76  CA        56.8770   13.9060  215.8550 C.3    91  ILE91       0.1692
     77  C         55.7040   13.5610  216.7720 C.2    91  ILE91       0.2591
     78  O         55.6450   12.4690  217.3590 O.2    91  ILE91      -0.2718
     79  CB        57.6510   15.0970  216.4480 C.3    91  ILE91       0.0266
     80  CG1       58.8870   15.4040  215.6030 C.3    91  ILE91       0.0019
     81  CG2       58.0630   14.8160  217.8740 C.3    91  ILE91       0.0020
     82  CD1       59.5850   16.6840  216.0050 C.3    91  ILE91       0.0001
     83  N         54.7650   14.4990  216.8660 N.am   92  GLU92      -0.1979
     84  CA        53.5670   14.3360  217.6820 C.3    92  GLU92       0.1602
     85  C         52.8510   13.0270  217.3790 C.2    92  GLU92       0.2287
     86  O         52.5000   12.2760  218.2870 O.2    92  GLU92      -0.2864
     87  CB        52.6200   15.5190  217.4680 C.3    92  GLU92       0.0415
     88  CG        51.3380   15.4530  218.2770 C.3    92  GLU92       0.1163
     89  CD        50.4340   16.6460  218.0320 C.2    92  GLU92       0.3649
     90  OE1       50.9190   17.6630  217.4920 O.co2  92  GLU92      -0.2457
     91  OE2       49.2370   16.5650  218.3770 O.co2  92  GLU92      -0.2457
     92  N         55.0430    9.8700  218.6720 N.3    95  LEU95      -0.1231
     93  CA        55.0280    9.7210  220.1250 C.3    95  LEU95       0.1693
     94  C         53.6370    9.3710  220.6500 C.2    95  LEU95       0.2592
     95  O         53.4830    8.5380  221.5540 O.2    95  LEU95      -0.2718
     96  CB        55.5640   10.9780  220.8170 C.3    95  LEU95       0.0284
     97  CG        57.0890   11.1030  220.8740 C.3    95  LEU95       0.0019
     98  CD1       57.7290    9.7320  220.9720 C.3    95  LEU95       0.0001
     99  CD2       57.6340   11.8510  219.6850 C.3    95  LEU95       0.0001
    100  N         52.6240    9.9990  220.0710 N.am   96  PHE96      -0.1976
    101  CA        51.2570    9.7080  220.4630 C.3    96  PHE96       0.1639
    102  C         50.8090    8.3320  219.9990 C.2    96  PHE96       0.2290
    103  O         50.0050    7.6920  220.6630 O.2    96  PHE96      -0.2864
    104  CB        50.3020   10.7960  219.9770 C.3    96  PHE96       0.0560
    105  CG        49.9940   11.8170  221.0230 C.ar   96  PHE96      -0.0200
    106  CD1       50.8710   12.8580  221.2700 C.ar   96  PHE96      -0.0042
    107  CD2       48.8390   11.7220  221.7790 C.ar   96  PHE96      -0.0042
    108  CE1       50.5960   13.7920  222.2430 C.ar   96  PHE96      -0.0003
    109  CE2       48.5560   12.6560  222.7520 C.ar   96  PHE96      -0.0003
    110  CZ        49.4370   13.6910  222.9860 C.ar   96  PHE96      -0.0000
    111  N         55.0170    6.0390  238.6160 N.3   135  ILE135     -0.1231
    112  CA        55.8610    7.1420  238.1710 C.3   135  ILE135      0.1692
    113  C         55.0060    8.3290  237.7220 C.2   135  ILE135      0.2592
    114  O         55.4610    9.4730  237.7280 O.2   135  ILE135     -0.2718
    115  CB        56.8320    6.6880  237.0480 C.3   135  ILE135      0.0266
    116  CG1       57.9060    7.7520  236.7760 C.3   135  ILE135      0.0019
    117  CG2       56.0630    6.3060  235.7840 C.3   135  ILE135      0.0020
    118  CD1       57.6370    8.6250  235.5600 C.3   135  ILE135      0.0001
    119  N         53.7580    8.0530  237.3540 N.am  136  PHE136     -0.1976
    120  CA        52.8310    9.1060  236.9490 C.3   136  PHE136      0.1639
    121  C         52.3410    9.8910  238.1590 C.2   136  PHE136      0.2290
    122  O         51.7450   10.9580  238.0210 O.2   136  PHE136     -0.2864
    123  CB        51.6370    8.5250  236.1870 C.3   136  PHE136      0.0560
    124  CG        51.9880    7.9670  234.8380 C.ar  136  PHE136     -0.0200
    125  CD1       52.0630    8.7940  233.7310 C.ar  136  PHE136     -0.0042
    126  CD2       52.2300    6.6150  234.6750 C.ar  136  PHE136     -0.0042
    127  CE1       52.3830    8.2850  232.4880 C.ar  136  PHE136     -0.0003
    128  CE2       52.5490    6.0980  233.4340 C.ar  136  PHE136     -0.0003
    129  CZ        52.6250    6.9340  232.3390 C.ar  136  PHE136     -0.0000
@<TRIPOS>BOND
     1    66    65    1
     2    63    62    1
     3    63    64    2
     4    61    62    1
     5    65    62    1
     6    53    52    2
     7    37    36    2
     8    41    40    2
     9    67    68    1
    10    52    51    1
    11    36    35    1
    12    40    50   am
    13    40    39    1
    14    75    76    1
    15    51    50    1
    16    51    54    1
    17    38    39    1
    18    69    68    1
    19    69    70    2
    20    68    71    1
    21    35    34    1
    22    71    72    1
    23    39    42    1
    24    54    55    1
    25    80    82    1
    26    80    79    1
    27    74    72    1
    28    42    43    1
    29    73    72    1
    30    76    79    1
    31    76    77    1
    32    34    31   am
    33    45    43   ar
    34    45    47   ar
    35    57    55   ar
    36    57    59   ar
    37    79    81    1
    38    55    56   ar
    39    43    44   ar
    40    77    83   am
    41    77    78    2
    42    31    32    2
    43    31    30    1
    44    83    84    1
    45    47    48   ar
    46    29    30    1
    47    59    60   ar
    48    85    84    1
    49    85    86    2
    50    87    84    1
    51    87    88    1
    52    90    89   ar
    53    56    58   ar
    54    30    33    1
    55    89    88    1
    56    89    91   ar
    57    44    46   ar
    58    60    58   ar
    59    48    46   ar
    60    48    49    1
    61    92    93    1
    62    18    17    2
    63    27    28   ar
    64    27    25   ar
    65    28    26   ar
    66    17    16    1
    67    99    97    1
    68    25    22   ar
    69   104   101    1
    70   104   105    1
    71   102   101    1
    72   102   103    2
    73   100   101    1
    74   100    94   am
    75    93    94    1
    76    93    96    1
    77    26    24   ar
    78    94    95    2
    79    96    97    1
    80    22    24   ar
    81    22    20   ar
    82    97    98    1
    83    16    15    1
    84    16    19    1
    85   105   106   ar
    86   105   107   ar
    87    24    23   ar
    88   106   108   ar
    89    20    19    1
    90    20    21   ar
    91   107   109   ar
    92    23    21   ar
    93   108   110   ar
    94   109   110   ar
    95    12    14   ar
    96    12    10   ar
    97    14    13   ar
    98     9    10   ar
    99     9     7   ar
   100    10     8   ar
   101     7     6   ar
   102    13    11   ar
   103     8    11   ar
   104     8     6   ar
   105     6     5    1
   106     5     2    1
   107     4     3    2
   108     3     2    1
   109     2     1    1
   110   129   127   ar
   111   129   128   ar
   112   127   125   ar
   113   128   126   ar
   114   125   124   ar
   115   126   124   ar
   116   124   123    1
   117   118   116    1
   118   117   115    1
   119   123   120    1
   120   116   115    1
   121   120   119    1
   122   120   121    1
   123   115   112    1
   124   119   113   am
   125   113   114    2
   126   113   112    1
   127   122   121    2
   128   112   111    1
