@<TRIPOS>MOLECULE
tmp/4xk8P21.pdb
 185 178 0 0 0
SMALL
GASTEIGER

@<TRIPOS>ATOM
      1  N         36.7310    5.3000  230.4450 N.3    40  GLN40      -0.1245
      2  CA        38.0670    5.6410  229.9700 C.3    40  GLN40       0.1566
      3  C         38.0360    6.8740  229.0790 C.2    40  GLN40       0.2260
      4  O         38.8240    7.7990  229.2630 O.2    40  GLN40      -0.2867
      5  CB        38.6960    4.4600  229.2310 C.3    40  GLN40       0.0367
      6  CG        39.0130    3.2980  230.1440 C.3    40  GLN40       0.0905
      7  CD        39.9620    3.7010  231.2540 C.2    40  GLN40       0.2608
      8  OE1       40.9350    4.4180  231.0200 O.2    40  GLN40      -0.2717
      9  NE2       39.6690    3.2670  232.4760 N.am   40  GLN40      -0.0878
     10  N         39.8360   10.4980  229.5980 N.3    44  VAL44      -0.1245
     11  CA        40.8090   11.0250  228.6430 C.3    44  VAL44       0.1561
     12  C         40.3740   12.3540  228.0060 C.2    44  VAL44       0.2260
     13  O         41.1180   13.3440  228.0550 O.2    44  VAL44      -0.2867
     14  CB        41.1570    9.9920  227.5530 C.3    44  VAL44       0.0252
     15  CG1       42.2240   10.5430  226.6330 C.3    44  VAL44       0.0019
     16  CG2       41.6470    8.7050  228.1880 C.3    44  VAL44       0.0019
     17  N         40.5790   15.0040  230.7240 N.3    47  ARG47      -0.1231
     18  CA        41.9150   15.4820  231.0670 C.3    47  ARG47       0.1694
     19  C         42.5070   16.3630  229.9710 C.2    47  ARG47       0.2592
     20  O         43.0560   17.4380  230.2500 O.2    47  ARG47      -0.2718
     21  CB        42.8410   14.3080  231.3820 C.3    47  ARG47       0.0321
     22  CG        42.4490   13.5630  232.6470 C.3    47  ARG47       0.0489
     23  CD        43.4000   12.4240  232.9470 C.3    47  ARG47       0.2205
     24  NE        43.0630   11.7320  234.1890 N.pl3  47  ARG47      -0.0865
     25  CZ        42.8430   10.4250  234.2790 C.cat  47  ARG47       0.5346
     26  NH1       42.5420    9.8790  235.4490 N.pl3  47  ARG47       0.1354
     27  NH2       42.9320    9.6600  233.2010 N.pl3  47  ARG47       0.1354
     28  N         42.3930   15.9090  228.7250 N.am   48  TRP48      -0.1976
     29  CA        42.8650   16.7070  227.5960 C.3    48  TRP48       0.1640
     30  C         42.0960   18.0220  227.4880 C.2    48  TRP48       0.2290
     31  O         42.6460   19.0380  227.0570 O.2    48  TRP48      -0.2864
     32  CB        42.7770   15.9230  226.2840 C.3    48  TRP48       0.0576
     33  CG        43.8680   14.9050  226.1150 C.ar   48  TRP48       0.0006
     34  CD1       43.7170   13.5550  225.9980 C.ar   48  TRP48       0.0946
     35  CD2       45.2780   15.1580  226.0430 C.ar   48  TRP48       0.0152
     36  NE1       44.9430   12.9500  225.8590 N.ar   48  TRP48      -0.2442
     37  CE2       45.9180   13.9120  225.8820 C.ar   48  TRP48       0.0810
     38  CE3       46.0610   16.3150  226.1020 C.ar   48  TRP48       0.0012
     39  CZ2       47.3010   13.7910  225.7810 C.ar   48  TRP48       0.0191
     40  CZ3       47.4350   16.1910  226.0010 C.ar   48  TRP48       0.0001
     41  CH2       48.0400   14.9380  225.8420 C.ar   48  TRP48       0.0015
     42  N         43.5510   20.3570  230.3470 N.3    51  LEU51      -0.1245
     43  CA        44.8280   20.8860  229.8780 C.3    51  LEU51       0.1561
     44  C         44.6340   21.9310  228.7850 C.2    51  LEU51       0.2260
     45  O         45.1970   23.0270  228.8520 O.2    51  LEU51      -0.2867
     46  CB        45.7190   19.7520  229.3700 C.3    51  LEU51       0.0270
     47  CG        47.0010   19.4630  230.1570 C.3    51  LEU51       0.0019
     48  CD1       46.7290   19.3700  231.6490 C.3    51  LEU51       0.0001
     49  CD2       47.6580   18.1900  229.6490 C.3    51  LEU51       0.0001
     50  N         52.6240    9.9990  220.0710 N.3    96  PHE96      -0.1241
     51  CA        51.2570    9.7080  220.4630 C.3    96  PHE96       0.1605
     52  C         50.8090    8.3320  219.9990 C.2    96  PHE96       0.2264
     53  O         50.0050    7.6920  220.6630 O.2    96  PHE96      -0.2867
     54  CB        50.3020   10.7960  219.9770 C.3    96  PHE96       0.0534
     55  CG        49.9940   11.8170  221.0230 C.ar   96  PHE96      -0.0203
     56  CD1       50.8710   12.8580  221.2700 C.ar   96  PHE96      -0.0042
     57  CD2       48.8390   11.7220  221.7790 C.ar   96  PHE96      -0.0042
     58  CE1       50.5960   13.7920  222.2430 C.ar   96  PHE96      -0.0003
     59  CE2       48.5560   12.6560  222.7520 C.ar   96  PHE96      -0.0003
     60  CZ        49.4370   13.6910  222.9860 C.ar   96  PHE96      -0.0000
     61  N         52.7600    5.6740  219.8260 N.3    98  TYR98      -0.1227
     62  CA        53.3270    4.7900  220.8390 C.3    98  TYR98       0.1736
     63  C         52.5430    4.8480  222.1560 C.2    98  TYR98       0.2595
     64  O         52.0390    3.8250  222.6370 O.2    98  TYR98      -0.2718
     65  CB        54.8040    5.1160  221.0780 C.3    98  TYR98       0.0548
     66  CG        55.4770    4.1970  222.0730 C.ar   98  TYR98      -0.0200
     67  CD1       55.8610    2.9100  221.7140 C.ar   98  TYR98      -0.0009
     68  CD2       55.7290    4.6160  223.3730 C.ar   98  TYR98      -0.0009
     69  CE1       56.4760    2.0670  222.6240 C.ar   98  TYR98       0.0417
     70  CE2       56.3430    3.7800  224.2880 C.ar   98  TYR98       0.0417
     71  CZ        56.7130    2.5080  223.9100 C.ar   98  TYR98       0.1957
     72  OH        57.3230    1.6810  224.8260 O.3    98  TYR98      -0.2866
     73  N         52.4270    6.0490  222.7180 N.am   99  VAL99      -0.1966
     74  CA        51.7740    6.2360  224.0140 C.3    99  VAL99       0.1727
     75  C         50.3210    5.7430  224.0450 C.2    99  VAL99       0.2616
     76  O         49.9080    5.0320  224.9710 O.2    99  VAL99      -0.2715
     77  CB        51.8410    7.7170  224.4510 C.3    99  VAL99       0.0290
     78  CG1       50.9080    7.9870  225.6150 C.3    99  VAL99       0.0023
     79  CG2       53.2700    8.0970  224.8050 C.3    99  VAL99       0.0023
     80  N         49.5540    6.1090  223.0230 N.am  100  GLU100     -0.1977
     81  CA        48.1410    5.7460  222.9600 C.3   100  GLU100      0.1602
     82  C         47.9220    4.2610  222.6870 C.2   100  GLU100      0.2287
     83  O         46.9600    3.6810  223.1880 O.2   100  GLU100     -0.2864
     84  CB        47.3990    6.5900  221.9210 C.3   100  GLU100      0.0415
     85  CG        47.2920    8.0730  222.2660 C.3   100  GLU100      0.1163
     86  CD        46.2900    8.3520  223.3670 C.2   100  GLU100      0.3649
     87  OE1       46.6290    8.1380  224.5500 O.co2 100  GLU100     -0.2457
     88  OE2       45.1630    8.7880  223.0480 O.co2 100  GLU100     -0.2457
     89  N         49.9860    2.0320  223.7410 N.3   102  ARG102     -0.1231
     90  CA        50.3570    1.5120  225.0500 C.3   102  ARG102      0.1694
     91  C         49.1550    1.5260  226.0060 C.2   102  ARG102      0.2591
     92  O         48.7680    0.4880  226.5710 O.2   102  ARG102     -0.2718
     93  CB        51.5070    2.3480  225.6110 C.3   102  ARG102      0.0321
     94  CG        52.3280    1.6590  226.6680 C.3   102  ARG102      0.0489
     95  CD        53.3380    0.6950  226.0710 C.3   102  ARG102      0.2205
     96  NE        54.1570    0.0900  227.1170 N.pl3 102  ARG102     -0.0865
     97  CZ        54.9610   -0.9520  226.9380 C.cat 102  ARG102      0.5346
     98  NH1       55.0640   -1.5210  225.7450 N.pl3 102  ARG102      0.1354
     99  NH2       55.6590   -1.4280  227.9590 N.pl3 102  ARG102      0.1354
    100  N         48.5560    2.7040  226.1720 N.am  103  ARG103     -0.1980
    101  CA        47.3810    2.8450  227.0300 C.3   103  ARG103      0.1597
    102  C         46.2340    1.9580  226.5550 C.2   103  ARG103      0.2287
    103  O         45.4840    1.4060  227.3650 O.2   103  ARG103     -0.2864
    104  CB        46.9120    4.2980  227.0700 C.3   103  ARG103      0.0334
    105  CG        45.7680    4.5480  228.0420 C.3   103  ARG103      0.0492
    106  CD        45.1490    5.9020  227.7910 C.3   103  ARG103      0.2205
    107  NE        44.3980    5.8960  226.5420 N.pl3 103  ARG103     -0.0865
    108  CZ        44.0930    6.9840  225.8470 C.cat 103  ARG103      0.5346
    109  NH1       43.4070    6.8790  224.7180 N.pl3 103  ARG103      0.1354
    110  NH2       44.4860    8.1760  226.2740 N.pl3 103  ARG103      0.1354
    111  N         46.6870   -1.3370  227.7250 N.3   106  ASP106     -0.1239
    112  CA        46.2890   -1.3440  229.1320 C.3   106  ASP106      0.1674
    113  C         44.7760   -1.5020  229.3020 C.2   106  ASP106      0.2266
    114  O         44.3160   -2.1670  230.2290 O.2   106  ASP106     -0.2867
    115  CB        46.7550   -0.0770  229.8420 C.3   106  ASP106      0.1410
    116  CG        46.2840   -0.0090  231.2840 C.2   106  ASP106      0.3668
    117  OD1       46.3160   -1.0510  231.9740 O.co2 106  ASP106     -0.2456
    118  OD2       45.8750    1.0860  231.7260 O.co2 106  ASP106     -0.2456
    119  N         50.4090   -4.3860  230.3820 N.3   113  VAL113     -0.1231
    120  CA        51.3870   -3.3220  230.1860 C.3   113  VAL113      0.1692
    121  C         51.6360   -2.5390  231.4690 C.2   113  VAL113      0.2592
    122  O         50.7640   -1.8070  231.9370 O.2   113  VAL113     -0.2718
    123  CB        50.9500   -2.3510  229.0820 C.3   113  VAL113      0.0266
    124  CG1       51.8900   -1.1650  229.0270 C.3   113  VAL113      0.0020
    125  CG2       50.9070   -3.0640  227.7420 C.3   113  VAL113      0.0020
    126  N         52.8330   -2.6960  232.0280 N.am  114  ASN114     -0.1974
    127  CA        53.1990   -2.0400  233.2790 C.3   114  ASN114      0.1688
    128  C         54.7020   -1.8190  233.4210 C.2   114  ASN114      0.2292
    129  O         55.1360   -0.9330  234.1570 O.2   114  ASN114     -0.2864
    130  CB        52.6800   -2.8410  234.4760 C.3   114  ASN114      0.1181
    131  CG        51.2270   -2.5430  234.7960 C.2   114  ASN114      0.2629
    132  OD1       50.8290   -1.3830  234.9030 O.2   114  ASN114     -0.2716
    133  ND2       50.4230   -3.5910  234.9360 N.am  114  ASN114     -0.0877
    134  N         59.7660   -1.6220  228.5590 N.3   117  PRO117     -0.2116
    135  CA        60.2620   -2.5740  227.5580 C.3   117  PRO117      0.1372
    136  C         61.7780   -2.5210  227.3820 C.2   117  PRO117      0.2244
    137  O         62.3780   -3.5250  226.9990 O.2   117  PRO117     -0.2868
    138  CB        59.5620   -2.1240  226.2700 C.3   117  PRO117      0.0268
    139  CG        59.1740   -0.7060  226.5150 C.3   117  PRO117      0.0207
    140  CD        58.8450   -0.6360  227.9700 C.3   117  PRO117      0.0892
    141  N         55.5520   -0.3350  236.9660 N.3   124  LEU124     -0.1245
    142  CA        54.4450    0.4210  237.5310 C.3   124  LEU124      0.1561
    143  C         53.5520   -0.5030  238.3550 C.2   124  LEU124      0.2260
    144  O         53.1350   -1.5570  237.8760 O.2   124  LEU124     -0.2867
    145  CB        53.6490    1.0850  236.4040 C.3   124  LEU124      0.0270
    146  CG        52.5340    2.0750  236.7410 C.3   124  LEU124      0.0019
    147  CD1       52.5700    3.2410  235.7690 C.3   124  LEU124      0.0001
    148  CD2       51.1780    1.3910  236.6930 C.3   124  LEU124      0.0001
    149  N         42.9420    3.3630  233.8770 N.3   130  GLY130     -0.1225
    150  CA        42.6110    4.7710  233.7560 C.3   130  GLY130      0.1811
    151  C         43.2820    5.5830  234.8460 C.2   130  GLY130      0.2280
    152  O         43.3650    6.8090  234.7660 O.2   130  GLY130     -0.2866
    153  N         46.8190    5.0960  236.3240 N.3   132  PRO132     -0.2116
    154  CA        48.0950    4.3700  236.2870 C.3   132  PRO132      0.1372
    155  C         48.8800    4.4620  237.5940 C.2   132  PRO132      0.2244
    156  O         49.2000    3.4290  238.1810 O.2   132  PRO132     -0.2868
    157  CB        48.8600    5.0570  235.1500 C.3   132  PRO132      0.0268
    158  CG        48.2450    6.4070  235.0330 C.3   132  PRO132      0.0207
    159  CD        46.7980    6.2220  235.3750 C.3   132  PRO132      0.0892
    160  N         55.0170    6.0390  238.6160 N.3   135  ILE135     -0.1231
    161  CA        55.8610    7.1420  238.1710 C.3   135  ILE135      0.1692
    162  C         55.0060    8.3290  237.7220 C.2   135  ILE135      0.2592
    163  O         55.4610    9.4730  237.7280 O.2   135  ILE135     -0.2718
    164  CB        56.8320    6.6880  237.0480 C.3   135  ILE135      0.0266
    165  CG1       57.9060    7.7520  236.7760 C.3   135  ILE135      0.0019
    166  CG2       56.0630    6.3060  235.7840 C.3   135  ILE135      0.0020
    167  CD1       57.6370    8.6250  235.5600 C.3   135  ILE135      0.0001
    168  N         53.7580    8.0530  237.3540 N.am  136  PHE136     -0.1976
    169  CA        52.8310    9.1060  236.9490 C.3   136  PHE136      0.1639
    170  C         52.3410    9.8910  238.1590 C.2   136  PHE136      0.2290
    171  O         51.7450   10.9580  238.0210 O.2   136  PHE136     -0.2864
    172  CB        51.6370    8.5250  236.1870 C.3   136  PHE136      0.0560
    173  CG        51.9880    7.9670  234.8380 C.ar  136  PHE136     -0.0200
    174  CD1       52.0630    8.7940  233.7310 C.ar  136  PHE136     -0.0042
    175  CD2       52.2300    6.6150  234.6750 C.ar  136  PHE136     -0.0042
    176  CE1       52.3830    8.2850  232.4880 C.ar  136  PHE136     -0.0003
    177  CE2       52.5490    6.0980  233.4340 C.ar  136  PHE136     -0.0003
    178  CZ        52.6250    6.9340  232.3390 C.ar  136  PHE136     -0.0000
    179  N         54.3500   11.0670  241.2060 N.3   138  PRO138     -0.2116
    180  CA        55.5850   11.2220  241.9820 C.3   138  PRO138      0.1372
    181  C         55.3440   11.8050  243.3710 C.2   138  PRO138      0.2244
    182  O         56.1230   11.5370  244.2850 O.2   138  PRO138     -0.2868
    183  CB        56.4030   12.2010  241.1370 C.3   138  PRO138      0.0268
    184  CG        55.3840   12.9930  240.4000 C.3   138  PRO138      0.0207
    185  CD        54.2760   12.0290  240.0930 C.3   138  PRO138      0.0892
@<TRIPOS>BOND
     1    61    62    1
     2    54    51    1
     3    54    55    1
     4    52    51    1
     5    52    53    2
     6    50    51    1
     7    62    65    1
     8    62    63    1
     9    55    56   ar
    10    55    57   ar
    11    65    66    1
    12    56    58   ar
    13    67    66   ar
    14    67    69   ar
    15    57    59   ar
    16    84    85    1
    17    84    81    1
    18    66    68   ar
    19    63    64    2
    20    63    73   am
    21    58    60   ar
    22    85    86    1
    23    69    71   ar
    24    82    81    1
    25    82    83    2
    26    73    74    1
    27    59    60   ar
    28    81    80    1
    29    80    75   am
    30    88    86   ar
    31    86    87   ar
    32    68    70   ar
    33    89    90    1
    34    71    70   ar
    35    71    72    1
    36    74    75    1
    37    74    77    1
    38    75    76    2
    39    77    79    1
    40    77    78    1
    41   109   108    1
    42    90    93    1
    43    90    91    1
    44    93    94    1
    45    98    97    1
    46    39    41   ar
    47    39    37   ar
    48    41    40   ar
    49   108   110    1
    50   108   107    2
    51    36    37   ar
    52    36    34   ar
    53    37    35   ar
    54    34    33   ar
    55    40    38   ar
    56    91   100   am
    57    91    92    2
    58    35    38   ar
    59    35    33   ar
    60    95    94    1
    61    95    96    1
    62    33    32    1
    63   100   101    1
    64   138   139    1
    65   138   135    1
    66    32    29    1
    67   139   140    1
    68   107   106    1
    69   102   101    1
    70   102   103    2
    71    15    14    1
    72    97    96    2
    73    97    99    1
    74   137   136    2
    75   101   104    1
    76    31    30    2
    77   104   105    1
    78   136   135    1
    79    30    29    1
    80    14    16    1
    81    14    11    1
    82   135   134    1
    83    29    28    1
    84   111   112    1
    85   125   123    1
    86   106   105    1
    87   140   134    1
    88    12    13    2
    89    12    11    1
    90    11    10    1
    91    28    19   am
    92    44    45    2
    93    44    43    1
    94   124   123    1
    95     3     4    2
    96     3     2    1
    97   123   120    1
    98   112   113    1
    99   112   115    1
   100     5     2    1
   101     5     6    1
   102   113   114    2
   103    46    43    1
   104    46    47    1
   105    49    47    1
   106   115   116    1
   107    43    42    1
   108     2     1    1
   109    19    20    2
   110    19    18    1
   111     6     7    1
   112    47    48    1
   113   120   119    1
   114   120   121    1
   115    17    18    1
   116     8     7    2
   117    18    21    1
   118     7     9   am
   119   116   118   ar
   120   116   117   ar
   121    21    22    1
   122   121   122    2
   123   121   126   am
   124   126   127    1
   125   178   176   ar
   126   178   177   ar
   127   176   174   ar
   128    22    23    1
   129    23    24    1
   130    27    25    1
   131   127   128    1
   132   127   130    1
   133   128   129    2
   134   177   175   ar
   135   174   173   ar
   136   150   149    1
   137   150   151    1
   138    24    25    2
   139    25    26    1
   140   130   131    1
   141   175   173   ar
   142   152   151    2
   143   131   132    2
   144   131   133   am
   145   173   172    1
   146   158   157    1
   147   158   159    1
   148   157   154    1
   149   159   153    1
   150   167   165    1
   151   147   146    1
   152   166   164    1
   153   172   169    1
   154   154   153    1
   155   154   155    1
   156   145   146    1
   157   145   142    1
   158   148   146    1
   159   165   164    1
   160   169   168    1
   161   169   170    1
   162   141   142    1
   163   164   161    1
   164   168   162   am
   165   142   143    1
   166   155   156    2
   167   162   163    2
   168   162   161    1
   169   144   143    2
   170   171   170    2
   171   161   160    1
   172   185   184    1
   173   185   179    1
   174   184   183    1
   175   183   180    1
   176   179   180    1
   177   180   181    1
   178   181   182    2
