@<TRIPOS>MOLECULE
tmp/4xk8P20.pdb
 116 114 0 0 0
SMALL
GASTEIGER

@<TRIPOS>ATOM
      1  N         45.0580   31.6640  221.3070 N.3    73  TRP73      -0.1227
      2  CA        45.1430   30.2510  220.9440 C.3    73  TRP73       0.1737
      3  C         44.7830   29.9710  219.4880 C.2    73  TRP73       0.2595
      4  O         45.3560   29.0770  218.8650 O.2    73  TRP73      -0.2718
      5  CB        44.2780   29.3920  221.8720 C.3    73  TRP73       0.0564
      6  CG        42.8070   29.6700  221.7730 C.ar   73  TRP73       0.0003
      7  CD1       42.0840   30.5380  222.5380 C.ar   73  TRP73       0.0946
      8  CD2       41.8790   29.0740  220.8560 C.ar   73  TRP73       0.0152
      9  NE1       40.7640   30.5190  222.1550 N.ar   73  TRP73      -0.2442
     10  CE2       40.6130   29.6300  221.1240 C.ar   73  TRP73       0.0810
     11  CE3       41.9970   28.1240  219.8350 C.ar   73  TRP73       0.0012
     12  CZ2       39.4730   29.2690  220.4080 C.ar   73  TRP73       0.0191
     13  CZ3       40.8650   27.7690  219.1260 C.ar   73  TRP73       0.0001
     14  CH2       39.6190   28.3390  219.4160 C.ar   73  TRP73       0.0015
     15  N         43.8410   30.7330  218.9450 N.am   74  TYR74      -0.1962
     16  CA        43.3750   30.4820  217.5850 C.3    74  TYR74       0.1771
     17  C         44.2490   31.1430  216.5250 C.2    74  TYR74       0.2619
     18  O         43.9880   31.0210  215.3300 O.2    74  TYR74      -0.2715
     19  CB        41.9050   30.8850  217.4150 C.3    74  TYR74       0.0574
     20  CG        41.5850   32.3330  217.7240 C.ar   74  TYR74      -0.0198
     21  CD1       41.7480   33.3240  216.7640 C.ar   74  TYR74      -0.0009
     22  CD2       41.0940   32.7050  218.9700 C.ar   74  TYR74      -0.0009
     23  CE1       41.4440   34.6440  217.0400 C.ar   74  TYR74       0.0417
     24  CE2       40.7870   34.0230  219.2550 C.ar   74  TYR74       0.0417
     25  CZ        40.9640   34.9880  218.2860 C.ar   74  TYR74       0.1957
     26  OH        40.6590   36.3010  218.5660 O.3    74  TYR74      -0.2866
     27  N         45.2890   31.8360  216.9720 N.am   75  ALA75      -0.1977
     28  CA        46.2180   32.4950  216.0660 C.3    75  ALA75       0.1597
     29  C         47.6520   32.1880  216.4850 C.2    75  ALA75       0.2287
     30  O         48.5710   32.9580  216.2100 O.2    75  ALA75      -0.2864
     31  CB        45.9690   34.0010  216.0520 C.3    75  ALA75       0.0319
     32  N         49.3010   29.1070  215.8700 N.3    77  GLY77      -0.1210
     33  CA        49.9860   28.1740  214.9960 C.3    77  GLY77       0.1956
     34  C         50.6510   28.7970  213.7840 C.2    77  GLY77       0.2612
     35  O         51.4840   28.1650  213.1380 O.2    77  GLY77      -0.2717
     36  N         50.3170   30.0490  213.4900 N.am   78  LYS78      -0.1965
     37  CA        50.7220   30.6560  212.2260 C.3    78  LYS78       0.1728
     38  C         52.2010   31.0460  212.1370 C.2    78  LYS78       0.2616
     39  O         52.5880   32.1500  212.5200 O.2    78  LYS78      -0.2715
     40  CB        49.8330   31.8620  211.9040 C.3    78  LYS78       0.0311
     41  CG        50.1300   32.5110  210.5600 C.3    78  LYS78       0.0038
     42  CD        49.1400   33.6190  210.2460 C.3    78  LYS78       0.0206
     43  CE        47.7350   33.0640  210.0730 C.3    78  LYS78       0.1093
     44  NZ        47.6620   32.0730  208.9620 N.3    78  LYS78      -0.1314
     45  N         53.0090   30.1110  211.6370 N.am   79  GLU79      -0.1977
     46  CA        54.3840   30.3620  211.1880 C.3    79  GLU79       0.1602
     47  C         55.2650   31.1610  212.1520 C.2    79  GLU79       0.2287
     48  O         55.8030   32.2060  211.7860 O.2    79  GLU79      -0.2864
     49  CB        54.3690   31.0460  209.8140 C.3    79  GLU79       0.0415
     50  CG        55.5990   30.7780  208.9550 C.3    79  GLU79       0.1163
     51  CD        55.5150   29.4620  208.2010 C.2    79  GLU79       0.3649
     52  OE1       56.4600   29.1470  207.4480 O.co2  79  GLU79      -0.2457
     53  OE2       54.5040   28.7450  208.3580 O.co2  79  GLU79      -0.2457
     54  N         55.2980   23.3260  211.5110 N.3    85  SER85      -0.1217
     55  CA        54.1650   22.5460  212.0000 C.3    85  SER85       0.1889
     56  C         54.0880   21.1210  211.4570 C.2    85  SER85       0.2288
     57  O         53.5230   20.2440  212.1030 O.2    85  SER85      -0.2866
     58  CB        52.8580   23.2780  211.7000 C.3    85  SER85       0.2089
     59  OG        52.6940   23.4870  210.3090 O.3    85  SER85      -0.2183
     60  N         56.6300   18.9820  213.4030 N.3    88  LEU88      -0.1231
     61  CA        55.9860   18.9090  214.7100 C.3    88  LEU88       0.1693
     62  C         54.8540   17.8900  214.7030 C.2    88  LEU88       0.2592
     63  O         54.6590   17.1570  215.6730 O.2    88  LEU88      -0.2718
     64  CB        55.4430   20.2840  215.1090 C.3    88  LEU88       0.0284
     65  CG        56.3200   21.2020  215.9660 C.3    88  LEU88       0.0019
     66  CD1       57.7950   20.8880  215.7890 C.3    88  LEU88       0.0001
     67  CD2       56.0390   22.6590  215.6290 C.3    88  LEU88       0.0001
     68  N         54.1160   17.8460  213.5980 N.am   89  PHE89      -0.1976
     69  CA        53.0130   16.9050  213.4560 C.3    89  PHE89       0.1639
     70  C         53.4980   15.4700  213.3440 C.2    89  PHE89       0.2290
     71  O         52.8800   14.5680  213.8950 O.2    89  PHE89      -0.2864
     72  CB        52.1410   17.2390  212.2440 C.3    89  PHE89       0.0560
     73  CG        51.1430   16.1650  211.9110 C.ar   89  PHE89      -0.0200
     74  CD1       49.9860   16.0190  212.6590 C.ar   89  PHE89      -0.0042
     75  CD2       51.3680   15.2920  210.8570 C.ar   89  PHE89      -0.0042
     76  CE1       49.0700   15.0290  212.3610 C.ar   89  PHE89      -0.0003
     77  CE2       50.4560   14.3000  210.5530 C.ar   89  PHE89      -0.0003
     78  CZ        49.3060   14.1670  211.3080 C.ar   89  PHE89      -0.0000
     79  N         54.7650   14.4990  216.8660 N.3    92  GLU92      -0.1245
     80  CA        53.5670   14.3360  217.6820 C.3    92  GLU92       0.1567
     81  C         52.8510   13.0270  217.3790 C.2    92  GLU92       0.2260
     82  O         52.5000   12.2760  218.2870 O.2    92  GLU92      -0.2867
     83  CB        52.6200   15.5190  217.4680 C.3    92  GLU92       0.0388
     84  CG        51.3380   15.4530  218.2770 C.3    92  GLU92       0.1160
     85  CD        50.4340   16.6460  218.0320 C.2    92  GLU92       0.3649
     86  OE1       50.9190   17.6630  217.4920 O.co2  92  GLU92      -0.2457
     87  OE2       49.2370   16.5650  218.3770 O.co2  92  GLU92      -0.2457
     88  N         35.3500   23.9950  226.8420 N.3   162  PHE162     -0.1241
     89  CA        36.0460   23.9590  225.5630 C.3   162  PHE162      0.1605
     90  C         35.0520   24.1500  224.4300 C.2   162  PHE162      0.2264
     91  O         35.3200   24.8900  223.4790 O.2   162  PHE162     -0.2867
     92  CB        36.8110   22.6470  225.3730 C.3   162  PHE162      0.0534
     93  CG        37.4720   22.5280  224.0290 C.ar  162  PHE162     -0.0203
     94  CD1       38.6960   23.1320  223.7880 C.ar  162  PHE162     -0.0042
     95  CD2       36.8620   21.8280  222.9990 C.ar  162  PHE162     -0.0042
     96  CE1       39.3050   23.0320  222.5480 C.ar  162  PHE162     -0.0003
     97  CE2       37.4640   21.7280  221.7590 C.ar  162  PHE162     -0.0003
     98  CZ        38.6880   22.3290  221.5330 C.ar  162  PHE162     -0.0000
     99  N         35.1430   27.2090  221.7050 N.3   166  ILE166     -0.1245
    100  CA        35.0250   27.0090  220.2650 C.3   166  ILE166      0.1561
    101  C         33.8780   27.8150  219.6670 C.2   166  ILE166      0.2260
    102  O         34.0810   28.5910  218.7300 O.2   166  ILE166     -0.2867
    103  CB        34.8360   25.5230  219.9170 C.3   166  ILE166      0.0252
    104  CG1       36.0750   24.7290  220.3300 C.3   166  ILE166      0.0019
    105  CG2       34.5650   25.3550  218.4310 C.3   166  ILE166      0.0019
    106  CD1       37.3580   25.2390  219.7070 C.3   166  ILE166      0.0001
    107  N         34.3460   31.7420  220.0980 N.3   169  HIS169     -0.1241
    108  CA        35.3000   32.2700  219.1320 C.3   169  HIS169      0.1621
    109  C         34.6980   32.2560  217.7340 C.2   169  HIS169      0.2264
    110  O         34.9250   33.1680  216.9370 O.2   169  HIS169     -0.2867
    111  CB        36.6040   31.4770  219.1320 C.3   169  HIS169      0.0745
    112  CG        37.4770   31.7780  217.9550 C.ar  169  HIS169      0.0817
    113  ND1       37.8300   30.8240  217.0250 N.ar  169  HIS169     -0.2268
    114  CD2       38.0400   32.9370  217.5370 C.ar  169  HIS169      0.1154
    115  CE1       38.5870   31.3780  216.0950 C.ar  169  HIS169      0.1986
    116  NE2       38.7280   32.6590  216.3810 N.ar  169  HIS169     -0.2212
@<TRIPOS>BOND
     1    52    51   ar
     2    51    53   ar
     3    51    50    1
     4    50    49    1
     5    44    43    1
     6    49    46    1
     7    43    42    1
     8    42    41    1
     9    59    58    1
    10    77    75   ar
    11    77    78   ar
    12    41    40    1
    13    75    73   ar
    14    46    45    1
    15    46    47    1
    16    78    76   ar
    17    56    55    1
    18    56    57    2
    19    54    55    1
    20    45    38   am
    21    58    55    1
    22    48    47    2
    23    40    37    1
    24    73    72    1
    25    73    74   ar
    26    38    37    1
    27    38    39    2
    28    37    36    1
    29    72    69    1
    30    76    74   ar
    31    35    34    2
    32    70    69    1
    33    70    71    2
    34    60    61    1
    35    69    68    1
    36    36    34   am
    37    68    62   am
    38    34    33    1
    39    62    61    1
    40    62    63    2
    41    61    64    1
    42    33    32    1
    43    64    65    1
    44    18    17    2
    45    67    65    1
    46    66    65    1
    47    31    28    1
    48    28    29    1
    49    28    27    1
    50   115   116   ar
    51   115   113   ar
    52    30    29    2
    53   116   114   ar
    54    17    27   am
    55    17    16    1
    56    21    23   ar
    57    21    20   ar
    58    79    80    1
    59   110   109    2
    60   113   112   ar
    61    23    25   ar
    62    81    80    1
    63    81    82    2
    64    19    16    1
    65    19    20    1
    66    83    80    1
    67    83    84    1
    68    86    85   ar
    69   114   112   ar
    70    16    15    1
    71    20    22   ar
    72   109   108    1
    73   112   111    1
    74    85    84    1
    75    85    87   ar
    76    25    26    1
    77    25    24   ar
    78   105   103    1
    79   102   101    2
    80     4     3    2
    81    15     3   am
    82    22    24   ar
    83    13    14   ar
    84    13    11   ar
    85   108   111    1
    86   108   107    1
    87    14    12   ar
    88     3     2    1
    89   101   100    1
    90   106   104    1
    91    11     8   ar
    92   103   100    1
    93   103   104    1
    94   100    99    1
    95    12    10   ar
    96     8    10   ar
    97     8     6   ar
    98     2     1    1
    99     2     5    1
   100    10     9   ar
   101    98    97   ar
   102    98    96   ar
   103    97    95   ar
   104     6     5    1
   105     6     7   ar
   106     9     7   ar
   107    96    94   ar
   108    95    93   ar
   109    91    90    2
   110    94    93   ar
   111    93    92    1
   112    90    89    1
   113    92    89    1
   114    89    88    1
