@<TRIPOS>MOLECULE
tmp/4xk8O16.pdb
 106 107 0 0 0
SMALL
GASTEIGER

@<TRIPOS>ATOM
      1  N        -48.0080   43.9440  213.5270 N.3    82  TRP82      -0.1241
      2  CA       -47.1780   42.9290  214.1750 C.3    82  TRP82       0.1605
      3  C        -45.8540   42.6810  213.4540 C.2    82  TRP82       0.2264
      4  O        -44.8710   42.2790  214.0740 O.2    82  TRP82      -0.2867
      5  CB       -47.9530   41.6200  214.3610 C.3    82  TRP82       0.0550
      6  CG       -48.3490   40.9510  213.0840 C.ar   82  TRP82       0.0003
      7  CD1      -49.5230   41.1080  212.4060 C.ar   82  TRP82       0.0946
      8  CD2      -47.5780   40.0020  212.3380 C.ar   82  TRP82       0.0152
      9  NE1      -49.5270   40.3220  211.2780 N.ar   82  TRP82      -0.2442
     10  CE2      -48.3450   39.6330  211.2140 C.ar   82  TRP82       0.0810
     11  CE3      -46.3130   39.4310  212.5090 C.ar   82  TRP82       0.0012
     12  CZ2      -47.8880   38.7220  210.2690 C.ar   82  TRP82       0.0191
     13  CZ3      -45.8620   38.5270  211.5700 C.ar   82  TRP82       0.0001
     14  CH2      -46.6460   38.1820  210.4630 C.ar   82  TRP82       0.0015
     15  N        -40.3240   45.3740  214.1840 N.3    86  GLY86      -0.1210
     16  CA       -38.8940   45.1430  214.0980 C.3    86  GLY86       0.1956
     17  C        -38.5580   43.6680  214.0070 C.2    86  GLY86       0.2612
     18  O        -37.3890   43.2880  213.9260 O.2    86  GLY86      -0.2717
     19  N        -39.5940   42.8350  214.0330 N.am   87  VAL87      -0.1965
     20  CA       -39.4410   41.3890  213.9110 C.3    87  VAL87       0.1727
     21  C        -38.9270   41.0160  212.5120 C.2    87  VAL87       0.2616
     22  O        -38.1840   40.0340  212.3350 O.2    87  VAL87      -0.2715
     23  CB       -40.7790   40.6690  214.2320 C.3    87  VAL87       0.0290
     24  CG1      -41.8830   41.1170  213.2810 C.3    87  VAL87       0.0023
     25  CG2      -40.6140   39.1640  214.1970 C.3    87  VAL87       0.0023
     26  N        -39.3330   41.8190  211.5300 N.am   88  ILE88      -0.1964
     27  CA       -38.8500   41.7230  210.1580 C.3    88  ILE88       0.1712
     28  C        -38.4280   43.1160  209.6850 C.2    88  ILE88       0.2458
     29  O        -39.2330   43.8410  209.0990 O.2    88  ILE88      -0.2730
     30  CB       -39.9460   41.1870  209.2140 C.3    88  ILE88       0.0289
     31  CG1      -40.6070   39.9390  209.8050 C.3    88  ILE88       0.0022
     32  CG2      -39.3760   40.9030  207.8300 C.3    88  ILE88       0.0023
     33  CD1      -41.7750   39.4300  208.9980 C.3    88  ILE88       0.0001
     34  N        -37.1640   43.4950  209.9440 N.am   89  PRO89      -0.2716
     35  CA       -36.5960   44.8240  209.6620 C.3    89  PRO89       0.1521
     36  C        -36.8830   45.4420  208.2800 C.2    89  PRO89       0.2440
     37  O        -37.1500   46.6420  208.2300 O.2    89  PRO89      -0.2731
     38  CB       -35.0930   44.6100  209.8740 C.3    89  PRO89       0.0310
     39  CG       -35.0320   43.5510  210.9130 C.3    89  PRO89       0.0237
     40  CD       -36.1900   42.6260  210.6270 C.3    89  PRO89       0.0939
     41  N        -36.8220   44.6630  207.1820 N.am   90  PRO90      -0.2727
     42  CA       -37.1390   45.3350  205.9150 C.3    90  PRO90       0.1402
     43  C        -38.6290   45.6490  205.7580 C.2    90  PRO90       0.2269
     44  O        -39.0150   46.3020  204.7890 O.2    90  PRO90      -0.2865
     45  CB       -36.6930   44.3190  204.8590 C.3    90  PRO90       0.0296
     46  CG       -36.7720   43.0070  205.5440 C.3    90  PRO90       0.0237
     47  CD       -36.3720   43.2750  206.9640 C.3    90  PRO90       0.0939
     48  N        -32.1080   45.5050  218.5490 N.3   100  ASN100     -0.1225
     49  CA       -32.8950   44.3020  218.2740 C.3   100  ASN100      0.1785
     50  C        -32.1460   42.9900  218.5240 C.2   100  ASN100      0.2597
     51  O        -32.7140   42.0320  219.0540 O.2   100  ASN100     -0.2718
     52  CB       -33.4270   44.3300  216.8380 C.3   100  ASN100      0.1169
     53  CG       -34.5510   45.3320  216.6500 C.2   100  ASN100      0.2627
     54  OD1      -34.8610   46.1110  217.5510 O.2   100  ASN100     -0.2716
     55  ND2      -35.1700   45.3130  215.4740 N.am  100  ASN100     -0.0877
     56  N        -30.8700   42.9550  218.1550 N.am  101  TYR101     -0.1976
     57  CA       -30.0620   41.7540  218.3330 C.3   101  TYR101      0.1639
     58  C        -29.6730   41.5930  219.7980 C.2   101  TYR101      0.2290
     59  O        -29.5640   40.4750  220.3080 O.2   101  TYR101     -0.2864
     60  CB       -28.8160   41.8070  217.4450 C.3   101  TYR101      0.0560
     61  CG       -29.1270   41.8360  215.9650 C.ar  101  TYR101     -0.0198
     62  CD1      -29.4850   43.0220  215.3340 C.ar  101  TYR101     -0.0009
     63  CD2      -29.0680   40.6790  215.1980 C.ar  101  TYR101     -0.0009
     64  CE1      -29.7740   43.0560  213.9830 C.ar  101  TYR101      0.0417
     65  CE2      -29.3540   40.7030  213.8440 C.ar  101  TYR101      0.0417
     66  CZ       -29.7070   41.8950  213.2420 C.ar  101  TYR101      0.1957
     67  OH       -29.9950   41.9290  211.8960 O.3   101  TYR101     -0.2866
     68  N        -31.5570   42.7500  222.2910 N.3   103  LEU103     -0.1231
     69  CA       -32.8300   42.3110  222.8490 C.3   103  LEU103      0.1693
     70  C        -33.0300   40.8240  222.5970 C.2   103  LEU103      0.2592
     71  O        -33.5830   40.1130  223.4350 O.2   103  LEU103     -0.2718
     72  CB       -33.9900   43.0970  222.2330 C.3   103  LEU103      0.0284
     73  CG       -34.2240   44.5270  222.7210 C.3   103  LEU103      0.0019
     74  CD1      -35.3520   45.1780  221.9370 C.3   103  LEU103      0.0001
     75  CD2      -34.5310   44.5400  224.2080 C.3   103  LEU103      0.0001
     76  N        -32.5740   40.3610  221.4380 N.am  104  PHE104     -0.1976
     77  CA       -32.6650   38.9490  221.0930 C.3   104  PHE104      0.1639
     78  C        -31.7890   38.0980  222.0080 C.2   104  PHE104      0.2290
     79  O        -32.1950   37.0180  222.4410 O.2   104  PHE104     -0.2864
     80  CB       -32.2820   38.7310  219.6290 C.3   104  PHE104      0.0560
     81  CG       -32.3180   37.2930  219.2030 C.ar  104  PHE104     -0.0200
     82  CD1      -33.5070   36.5840  219.2090 C.ar  104  PHE104     -0.0042
     83  CD2      -31.1640   36.6540  218.7850 C.ar  104  PHE104     -0.0042
     84  CE1      -33.5430   35.2640  218.8130 C.ar  104  PHE104     -0.0003
     85  CE2      -31.1930   35.3320  218.3880 C.ar  104  PHE104     -0.0003
     86  CZ       -32.3840   34.6370  218.4000 C.ar  104  PHE104     -0.0000
     87  N        -33.4840   37.9330  225.3360 N.3   107  GLU107     -0.1245
     88  CA       -34.6080   37.0220  225.1680 C.3   107  GLU107      0.1567
     89  C        -34.1570   35.5750  225.2980 C.2   107  GLU107      0.2260
     90  O        -34.7240   34.8070  226.0780 O.2   107  GLU107     -0.2867
     91  CB       -35.2530   37.2520  223.8020 C.3   107  GLU107      0.0388
     92  CG       -36.2340   36.1820  223.3720 C.3   107  GLU107      0.1160
     93  CD       -36.7540   36.4190  221.9670 C.2   107  GLU107      0.3649
     94  OE1      -37.2190   35.4500  221.3300 O.co2 107  GLU107     -0.2457
     95  OE2      -36.6910   37.5750  221.4970 O.co2 107  GLU107     -0.2457
     96  N        -50.0720   35.2010  209.3040 N.3   188  PHE188     -0.1241
     97  CA       -48.9490   35.0560  208.3830 C.3   188  PHE188      0.1605
     98  C        -49.3880   35.1950  206.9320 C.2   188  PHE188      0.2264
     99  O        -48.8760   36.0520  206.2100 O.2   188  PHE188     -0.2867
    100  CB       -48.2230   33.7220  208.5870 C.3   188  PHE188      0.0534
    101  CG       -47.4060   33.6550  209.8500 C.ar  188  PHE188     -0.0203
    102  CD1      -47.1540   34.7950  210.5960 C.ar  188  PHE188     -0.0042
    103  CD2      -46.8760   32.4490  210.2830 C.ar  188  PHE188     -0.0042
    104  CE1      -46.3990   34.7320  211.7570 C.ar  188  PHE188     -0.0003
    105  CE2      -46.1190   32.3790  211.4420 C.ar  188  PHE188     -0.0003
    106  CZ       -45.8810   33.5230  212.1790 C.ar  188  PHE188     -0.0000
@<TRIPOS>BOND
     1    44    43    2
     2    45    46    1
     3    45    42    1
     4    46    47    1
     5    43    42    1
     6    42    41    1
     7    99    98    2
     8    98    97    1
     9    47    41    1
    10    41    36   am
    11    32    30    1
    12    37    36    2
    13    36    35    1
    14    97   100    1
    15    97    96    1
    16   100   101    1
    17    33    31    1
    18    29    28    2
    19    30    31    1
    20    30    27    1
    21    35    38    1
    22    35    34    1
    23    28    34   am
    24    28    27    1
    25   101   103   ar
    26   101   102   ar
    27    38    39    1
    28    34    40    1
    29    27    26    1
    30    12    14   ar
    31    12    10   ar
    32   103   105   ar
    33    14    13   ar
    34   102   104   ar
    35    40    39    1
    36    10     9   ar
    37    10     8   ar
    38     9     7   ar
    39   105   106   ar
    40    26    21   am
    41    13    11   ar
    42   104   106   ar
    43    67    66    1
    44    22    21    2
    45     8    11   ar
    46     8     6   ar
    47     7     6   ar
    48    21    20    1
    49     6     5    1
    50    66    65   ar
    51    66    64   ar
    52    24    23    1
    53     3     4    2
    54     3     2    1
    55     1     2    1
    56    65    63   ar
    57    20    19    1
    58    20    23    1
    59    18    17    2
    60    64    62   ar
    61    17    19   am
    62    17    16    1
    63    16    15    1
    64     2     5    1
    65    25    23    1
    66    63    61   ar
    67    62    61   ar
    68    55    53   am
    69    61    60    1
    70    53    52    1
    71    53    54    2
    72    52    49    1
    73    60    57    1
    74    56    57    1
    75    56    50   am
    76    49    50    1
    77    49    48    1
    78    57    58    1
    79    85    86   ar
    80    85    83   ar
    81    86    84   ar
    82    50    51    2
    83    83    81   ar
    84    84    82   ar
    85    81    82   ar
    86    81    80    1
    87    80    77    1
    88    58    59    2
    89    77    76    1
    90    77    78    1
    91    94    93   ar
    92    76    70   am
    93    95    93   ar
    94    74    73    1
    95    93    92    1
    96    78    79    2
    97    72    73    1
    98    72    69    1
    99    68    69    1
   100    70    69    1
   101    70    71    2
   102    73    75    1
   103    92    91    1
   104    91    88    1
   105    88    89    1
   106    88    87    1
   107    89    90    2
