@<TRIPOS>MOLECULE
tmp/4xk8M17.pdb
 161 158 0 0 0
SMALL
GASTEIGER

@<TRIPOS>ATOM
      1  N         67.8850  -11.2200  199.3390 N.3    48  TRP48      -0.1241
      2  CA        67.9390  -10.3410  198.1790 C.3    48  TRP48       0.1605
      3  C         68.0500   -8.8880  198.6270 C.2    48  TRP48       0.2264
      4  O         68.7960   -8.1040  198.0400 O.2    48  TRP48      -0.2867
      5  CB        66.7180  -10.5340  197.2780 C.3    48  TRP48       0.0550
      6  CG        66.8450  -11.6930  196.3310 C.ar   48  TRP48       0.0003
      7  CD1       66.1010  -12.8350  196.3320 C.ar   48  TRP48       0.0946
      8  CD2       67.7790  -11.8260  195.2470 C.ar   48  TRP48       0.0152
      9  NE1       66.5070  -13.6690  195.3170 N.ar   48  TRP48      -0.2442
     10  CE2       67.5360  -13.0720  194.6360 C.ar   48  TRP48       0.0810
     11  CE3       68.7950  -11.0110  194.7350 C.ar   48  TRP48       0.0012
     12  CZ2       68.2710  -13.5240  193.5420 C.ar   48  TRP48       0.0191
     13  CZ3       69.5220  -11.4620  193.6470 C.ar   48  TRP48       0.0001
     14  CH2       69.2560  -12.7060  193.0620 C.ar   48  TRP48       0.0015
     15  N         71.5980    4.8830  187.5330 N.3    70  ALA70      -0.1231
     16  CA        72.3020    3.7270  186.9830 C.3    70  ALA70       0.1694
     17  C         71.3910    2.8860  186.0930 C.2    70  ALA70       0.2591
     18  O         71.8430    1.9460  185.4380 O.2    70  ALA70      -0.2718
     19  CB        72.8830    2.8740  188.1010 C.3    70  ALA70       0.0304
     20  N         70.1070    3.2310  186.0700 N.am   71  GLN71      -0.1979
     21  CA        69.1310    2.5160  185.2580 C.3    71  GLN71       0.1601
     22  C         68.9960    3.1770  183.8900 C.2    71  GLN71       0.2287
     23  O         68.6540    2.5240  182.9040 O.2    71  GLN71      -0.2864
     24  CB        67.7580    2.5280  185.9380 C.3    71  GLN71       0.0394
     25  CG        67.7500    2.1440  187.4100 C.3    71  GLN71       0.0908
     26  CD        67.7200    0.6470  187.6290 C.2    71  GLN71       0.2608
     27  OE1       66.6780    0.0010  187.4840 O.2    71  GLN71      -0.2717
     28  NE2       68.8650    0.0880  187.9910 N.am   71  GLN71      -0.0878
     29  N         70.9400    4.3690  181.6060 N.3    73  TRP73      -0.1227
     30  CA        71.8380    4.1290  180.4730 C.3    73  TRP73       0.1737
     31  C         71.1630    3.2710  179.4080 C.2    73  TRP73       0.2595
     32  O         71.4890    3.3600  178.2260 O.2    73  TRP73      -0.2718
     33  CB        73.1740    3.5120  180.9090 C.3    73  TRP73       0.0564
     34  CG        73.1020    2.0790  181.3540 C.ar   73  TRP73       0.0003
     35  CD1       73.0510    1.6240  182.6380 C.ar   73  TRP73       0.0946
     36  CD2       73.0840    0.9140  180.5160 C.ar   73  TRP73       0.0152
     37  NE1       73.0010    0.2520  182.6540 N.ar   73  TRP73      -0.2442
     38  CE2       73.0170   -0.2090  181.3640 C.ar   73  TRP73       0.0810
     39  CE3       73.1140    0.7120  179.1320 C.ar   73  TRP73       0.0012
     40  CZ2       72.9800   -1.5130  180.8750 C.ar   73  TRP73       0.0191
     41  CZ3       73.0750   -0.5830  178.6500 C.ar   73  TRP73       0.0001
     42  CH2       73.0110   -1.6780  179.5180 C.ar   73  TRP73       0.0015
     43  N         70.2290    2.4310  179.8370 N.am   74  ALA74      -0.1980
     44  CA        69.4530    1.6220  178.9100 C.3    74  ALA74       0.1597
     45  C         68.2900    2.4530  178.3800 C.2    74  ALA74       0.2287
     46  O         68.2780    3.6740  178.5380 O.2    74  ALA74      -0.2864
     47  CB        68.9550    0.3640  179.5880 C.3    74  ALA74       0.0319
     48  N         77.0180    0.6800  179.3790 N.3    81  ALA81      -0.1231
     49  CA        77.0490    0.5970  180.8340 C.3    81  ALA81       0.1694
     50  C         78.4680    0.7260  181.3760 C.2    81  ALA81       0.2593
     51  O         79.4410    0.4540  180.6720 O.2    81  ALA81      -0.2718
     52  CB        76.4220   -0.7020  181.2970 C.3    81  ALA81       0.0304
     53  N         78.5780    1.1460  182.6330 N.am   82  THR82      -0.1939
     54  CA        79.8780    1.3360  183.2670 C.3    82  THR82       0.2028
     55  C         79.9320    0.6800  184.6440 C.2    82  THR82       0.2642
     56  O         78.9600    0.7110  185.3990 O.2    82  THR82      -0.2714
     57  CB        80.2220    2.8330  183.4170 C.3    82  THR82       0.1808
     58  OG1       79.1900    3.4910  184.1620 O.3    82  THR82      -0.2208
     59  CG2       80.3590    3.4950  182.0530 C.3    82  THR82       0.0379
     60  N         81.0780    0.0870  184.9610 N.am   83  TYR83      -0.1973
     61  CA        81.3010   -0.5300  186.2630 C.3    83  TYR83       0.1639
     62  C         82.5960    0.0170  186.8510 C.2    83  TYR83       0.2290
     63  O         83.6600   -0.1090  186.2420 O.2    83  TYR83      -0.2864
     64  CB        81.3850   -2.0530  186.1320 C.3    83  TYR83       0.0560
     65  CG        81.4750   -2.7840  187.4540 C.ar   83  TYR83      -0.0198
     66  CD1       80.8980   -2.2580  188.6020 C.ar   83  TYR83      -0.0009
     67  CD2       82.1430   -3.9980  187.5560 C.ar   83  TYR83      -0.0009
     68  CE1       80.9770   -2.9200  189.8120 C.ar   83  TYR83       0.0417
     69  CE2       82.2280   -4.6680  188.7630 C.ar   83  TYR83       0.0417
     70  CZ        81.6430   -4.1230  189.8880 C.ar   83  TYR83       0.1957
     71  OH        81.7230   -4.7830  191.0930 O.3    83  TYR83      -0.2866
     72  N         82.0240   -1.3000  180.3920 N.3    88  VAL88      -0.1245
     73  CA        82.0680   -2.7300  180.1070 C.3    88  VAL88       0.1561
     74  C         81.7280   -3.0130  178.6460 C.2    88  VAL88       0.2260
     75  O         80.7980   -2.4220  178.0950 O.2    88  VAL88      -0.2867
     76  CB        81.1240   -3.5230  181.0300 C.3    88  VAL88       0.0252
     77  CG1       81.7530   -3.7000  182.4030 C.3    88  VAL88       0.0019
     78  CG2       79.7770   -2.8300  181.1360 C.3    88  VAL88       0.0019
     79  N         80.6630   -5.9600  177.1220 N.3    90  TRP90      -0.1227
     80  CA        79.4430   -6.7320  176.9130 C.3    90  TRP90       0.1737
     81  C         78.2370   -6.0780  177.5850 C.2    90  TRP90       0.2596
     82  O         77.1640   -6.6770  177.6740 O.2    90  TRP90      -0.2718
     83  CB        79.6260   -8.1650  177.4220 C.3    90  TRP90       0.0564
     84  CG        79.9440   -8.2450  178.8850 C.ar   90  TRP90       0.0003
     85  CD1       79.0610   -8.1740  179.9230 C.ar   90  TRP90       0.0946
     86  CD2       81.2400   -8.4140  179.4720 C.ar   90  TRP90       0.0152
     87  NE1       79.7260   -8.2850  181.1200 N.ar   90  TRP90      -0.2442
     88  CE2       81.0650   -8.4340  180.8710 C.ar   90  TRP90       0.0810
     89  CE3       82.5300   -8.5520  178.9520 C.ar   90  TRP90       0.0012
     90  CZ2       82.1330   -8.5850  181.7540 C.ar   90  TRP90       0.0191
     91  CZ3       83.5880   -8.7000  179.8310 C.ar   90  TRP90       0.0001
     92  CH2       83.3830   -8.7160  181.2160 C.ar   90  TRP90       0.0015
     93  N         78.4180   -4.8430  178.0460 N.am   91  GLY91      -0.1957
     94  CA        77.3820   -4.1310  178.7740 C.3    91  GLY91       0.1869
     95  C         76.3170   -3.4740  177.9150 C.2    91  GLY91       0.2309
     96  O         76.1920   -2.2510  177.8990 O.2    91  GLY91      -0.2863
     97  N         71.9970   -3.8810  176.7740 N.3    93  LEU93      -0.1245
     98  CA        70.7430   -4.4090  177.3210 C.3    93  LEU93       0.1561
     99  C         70.4090   -5.8570  176.9180 C.2    93  LEU93       0.2260
    100  O         70.2270   -6.6960  177.7990 O.2    93  LEU93      -0.2867
    101  CB        69.5640   -3.4680  177.0240 C.3    93  LEU93       0.0270
    102  CG        68.5720   -3.1520  178.1490 C.3    93  LEU93       0.0019
    103  CD1       67.4560   -2.2530  177.6320 C.3    93  LEU93       0.0001
    104  CD2       67.9970   -4.4170  178.7690 C.3    93  LEU93       0.0001
    105  N         73.1550   -8.7030  178.3690 N.3    96  ILE96      -0.1245
    106  CA        73.0770   -8.9100  179.8090 C.3    96  ILE96       0.1561
    107  C         71.6930   -9.3980  180.2210 C.2    96  ILE96       0.2260
    108  O         71.5460  -10.0530  181.2490 O.2    96  ILE96      -0.2867
    109  CB        73.4400   -7.6360  180.6070 C.3    96  ILE96       0.0252
    110  CG1       72.4020   -6.5360  180.3770 C.3    96  ILE96       0.0019
    111  CG2       74.8390   -7.1590  180.2470 C.3    96  ILE96       0.0019
    112  CD1       72.6590   -5.2810  181.1780 C.3    96  ILE96       0.0001
    113  N         71.8780  -13.1780  179.4460 N.3    99  ILE99      -0.1231
    114  CA        72.7510  -13.7960  180.4440 C.3    99  ILE99       0.1692
    115  C         72.0630  -13.8960  181.8060 C.2    99  ILE99       0.2591
    116  O         72.0330  -14.9660  182.4280 O.2    99  ILE99      -0.2718
    117  CB        74.0710  -13.0160  180.6080 C.3    99  ILE99       0.0266
    118  CG1       74.8360  -12.9660  179.2840 C.3    99  ILE99       0.0019
    119  CG2       74.9280  -13.6440  181.6950 C.3    99  ILE99       0.0020
    120  CD1       75.2730  -14.3240  178.7720 C.3    99  ILE99       0.0001
    121  N         71.5130  -12.7720  182.2570 N.am  100  GLU100     -0.1979
    122  CA        70.7900  -12.7110  183.5220 C.3   100  GLU100      0.1602
    123  C         69.6300  -13.6920  183.5330 C.2   100  GLU100      0.2287
    124  O         69.4510  -14.4370  184.4960 O.2   100  GLU100     -0.2864
    125  CB        70.2750  -11.2940  183.7810 C.3   100  GLU100      0.0415
    126  CG        69.3270  -11.1770  184.9590 C.3   100  GLU100      0.1163
    127  CD        68.8160   -9.7630  185.1480 C.2   100  GLU100      0.3649
    128  OE1       67.7910   -9.5830  185.8370 O.co2 100  GLU100     -0.2457
    129  OE2       69.4440   -8.8300  184.6080 O.co2 100  GLU100     -0.2457
    130  N         69.0710  -16.5010  181.6560 N.3   102  LEU102     -0.1231
    131  CA        69.5290  -17.8890  181.7010 C.3   102  LEU102      0.1693
    132  C         70.0980  -18.2800  183.0660 C.2   102  LEU102      0.2592
    133  O         69.6980  -19.2940  183.6450 O.2   102  LEU102     -0.2718
    134  CB        70.5590  -18.1540  180.6020 C.3   102  LEU102      0.0284
    135  CG        70.0180  -18.0770  179.1730 C.3   102  LEU102      0.0019
    136  CD1       71.1150  -18.3680  178.1640 C.3   102  LEU102      0.0001
    137  CD2       68.8480  -19.0340  178.9910 C.3   102  LEU102      0.0001
    138  N         71.0270  -17.4730  183.5720 N.am  103  ALA103     -0.1966
    139  CA        71.6690  -17.7490  184.8570 C.3   103  ALA103      0.1728
    140  C         70.6670  -17.8310  186.0100 C.2   103  ALA103      0.2616
    141  O         70.6160  -18.8330  186.7420 O.2   103  ALA103     -0.2715
    142  CB        72.7300  -16.6970  185.1520 C.3   103  ALA103      0.0334
    143  N         69.8690  -16.7790  186.1680 N.am  104  ILE104     -0.1977
    144  CA        68.9270  -16.7140  187.2780 C.3   104  ILE104      0.1596
    145  C         67.8360  -17.7810  187.1550 C.2   104  ILE104      0.2287
    146  O         67.3890  -18.3270  188.1610 O.2   104  ILE104     -0.2864
    147  CB        68.3210  -15.2940  187.4660 C.3   104  ILE104      0.0276
    148  CG1       67.9530  -15.0580  188.9310 C.3   104  ILE104      0.0022
    149  CG2       67.1230  -15.0650  186.5530 C.3   104  ILE104      0.0022
    150  CD1       69.1490  -14.8170  189.8210 C.3   104  ILE104      0.0001
    151  N         68.2220  -20.7330  185.7350 N.3   106  PHE106     -0.1241
    152  CA        68.8810  -21.9830  186.0860 C.3   106  PHE106      0.1605
    153  C         69.0010  -22.1430  187.5960 C.2   106  PHE106      0.2264
    154  O         68.6040  -23.1710  188.1450 O.2   106  PHE106     -0.2867
    155  CB        70.2620  -22.0790  185.4390 C.3   106  PHE106      0.0534
    156  CG        70.9860  -23.3550  185.7530 C.ar  106  PHE106     -0.0203
    157  CD1       70.7360  -24.5040  185.0240 C.ar  106  PHE106     -0.0042
    158  CD2       71.9130  -23.4080  186.7810 C.ar  106  PHE106     -0.0042
    159  CE1       71.3990  -25.6840  185.3130 C.ar  106  PHE106     -0.0003
    160  CE2       72.5790  -24.5860  187.0740 C.ar  106  PHE106     -0.0003
    161  CZ        72.3210  -25.7240  186.3380 C.ar  106  PHE106     -0.0000
@<TRIPOS>BOND
     1    97    98    1
     2    80    79    1
     3    80    83    1
     4    80    81    1
     5    99    98    1
     6    99   100    2
     7   101    98    1
     8   101   102    1
     9    83    84    1
    10    81    82    2
    11    81    93   am
    12   103   102    1
    13    96    95    2
    14    95    94    1
    15    93    94    1
    16    75    74    2
    17   102   104    1
    18   136   135    1
    19    32    31    2
    20   105   106    1
    21    45    46    2
    22    45    44    1
    23    74    73    1
    24    41    39   ar
    25    41    42   ar
    26   120   118    1
    27    84    86   ar
    28    84    85   ar
    29    44    47    1
    30    44    43    1
    31    89    86   ar
    32    89    91   ar
    33   137   135    1
    34    39    36   ar
    35   135   134    1
    36   118   117    1
    37    48    49    1
    38    31    43   am
    39    31    30    1
    40   113   114    1
    41    86    88   ar
    42    42    40   ar
    43   106   107    1
    44   106   109    1
    45    91    92   ar
    46    85    87   ar
    47    73    72    1
    48    73    76    1
    49   107   108    2
    50   111   109    1
    51   110   109    1
    52   110   112    1
    53   114   117    1
    54   114   115    1
    55    30    33    1
    56    30    29    1
    57    36    34   ar
    58    36    38   ar
    59   134   131    1
    60   117   119    1
    61    51    50    2
    62    49    52    1
    63    49    50    1
    64    88    87   ar
    65    88    90   ar
    66    40    38   ar
    67    33    34    1
    68    76    78    1
    69    76    77    1
    70    92    90   ar
    71    34    35   ar
    72    38    37   ar
    73    50    53   am
    74   130   131    1
    75   131   132    1
    76   115   121   am
    77   115   116    2
    78    59    57    1
    79   121   122    1
    80    53    54    1
    81    35    37   ar
    82    23    22    2
    83   132   138   am
    84   132   133    2
    85    54    57    1
    86    54    55    1
    87    57    58    1
    88   122   123    1
    89   122   125    1
    90   123   124    2
    91   138   139    1
    92   125   126    1
    93    22    21    1
    94   129   127   ar
    95    55    60   am
    96    55    56    2
    97   139   142    1
    98   139   140    1
    99   126   127    1
   100    60    61    1
   101   157   159   ar
   102   157   156   ar
   103   127   128   ar
   104    21    24    1
   105    21    20    1
   106   159   161   ar
   107    18    17    2
   108   155   156    1
   109   155   152    1
   110   151   152    1
   111   156   158   ar
   112    24    25    1
   113   140   143   am
   114   140   141    2
   115    20    17   am
   116   152   153    1
   117    17    16    1
   118    64    61    1
   119    64    65    1
   120   143   144    1
   121    63    62    2
   122    61    62    1
   123   161   160   ar
   124   149   147    1
   125   158   160   ar
   126    16    15    1
   127    16    19    1
   128   145   144    1
   129   145   146    2
   130   144   147    1
   131    25    26    1
   132    65    67   ar
   133    65    66   ar
   134   147   148    1
   135    27    26    2
   136    67    69   ar
   137   153   154    2
   138    26    28   am
   139    66    68   ar
   140    69    70   ar
   141   148   150    1
   142    68    70   ar
   143    70    71    1
   144    14    12   ar
   145    14    13   ar
   146    12    10   ar
   147    13    11   ar
   148    10     8   ar
   149    10     9   ar
   150    11     8   ar
   151     8     6   ar
   152     9     7   ar
   153     6     7   ar
   154     6     5    1
   155     5     2    1
   156     4     3    2
   157     2     3    1
   158     2     1    1
