@<TRIPOS>MOLECULE
tmp/4xk8P18.pdb
 129 128 0 0 0
SMALL
GASTEIGER

@<TRIPOS>ATOM
      1  N         42.3930   15.9090  228.7250 N.3    48  TRP48      -0.1241
      2  CA        42.8650   16.7070  227.5960 C.3    48  TRP48       0.1605
      3  C         42.0960   18.0220  227.4880 C.2    48  TRP48       0.2264
      4  O         42.6460   19.0380  227.0570 O.2    48  TRP48      -0.2867
      5  CB        42.7770   15.9230  226.2840 C.3    48  TRP48       0.0550
      6  CG        43.8680   14.9050  226.1150 C.ar   48  TRP48       0.0003
      7  CD1       43.7170   13.5550  225.9980 C.ar   48  TRP48       0.0946
      8  CD2       45.2780   15.1580  226.0430 C.ar   48  TRP48       0.0152
      9  NE1       44.9430   12.9500  225.8590 N.ar   48  TRP48      -0.2442
     10  CE2       45.9180   13.9120  225.8820 C.ar   48  TRP48       0.0810
     11  CE3       46.0610   16.3150  226.1020 C.ar   48  TRP48       0.0012
     12  CZ2       47.3010   13.7910  225.7810 C.ar   48  TRP48       0.0191
     13  CZ3       47.4350   16.1910  226.0010 C.ar   48  TRP48       0.0001
     14  CH2       48.0400   14.9380  225.8420 C.ar   48  TRP48       0.0015
     15  N         43.5510   20.3570  230.3470 N.3    51  LEU51      -0.1231
     16  CA        44.8280   20.8860  229.8780 C.3    51  LEU51       0.1693
     17  C         44.6340   21.9310  228.7850 C.2    51  LEU51       0.2592
     18  O         45.1970   23.0270  228.8520 O.2    51  LEU51      -0.2718
     19  CB        45.7190   19.7520  229.3700 C.3    51  LEU51       0.0284
     20  CG        47.0010   19.4630  230.1570 C.3    51  LEU51       0.0019
     21  CD1       46.7290   19.3700  231.6490 C.3    51  LEU51       0.0001
     22  CD2       47.6580   18.1900  229.6490 C.3    51  LEU51       0.0001
     23  N         43.8280   21.5880  227.7850 N.am   52  GLY52      -0.1957
     24  CA        43.5820   22.4710  226.6600 C.3    52  GLY52       0.1869
     25  C         42.9340   23.7890  227.0400 C.2    52  GLY52       0.2309
     26  O         43.3870   24.8550  226.6260 O.2    52  GLY52      -0.2863
     27  N         42.8520   25.1750  230.0200 N.3    54  ALA54      -0.1231
     28  CA        43.8280   25.9270  230.8040 C.3    54  ALA54       0.1694
     29  C         44.7890   26.6680  229.8750 C.2    54  ALA54       0.2592
     30  O         45.0440   27.8660  230.0480 O.2    54  ALA54      -0.2718
     31  CB        44.5880   25.0040  231.7400 C.3    54  ALA54       0.0304
     32  N         45.2950   25.9500  228.8750 N.am   55  GLY55      -0.1957
     33  CA        46.2080   26.5190  227.9000 C.3    55  GLY55       0.1869
     34  C         45.5720   27.5250  226.9580 C.2    55  GLY55       0.2309
     35  O         46.2710   28.2090  226.2100 O.2    55  GLY55      -0.2863
     36  N         44.3090   30.7010  230.3650 N.3    58  LEU58      -0.1231
     37  CA        45.3700   31.2370  231.2250 C.3    58  LEU58       0.1678
     38  C         46.4170   32.1330  230.5380 C.2    58  LEU58       0.2434
     39  O         46.7740   33.1780  231.0830 O.2    58  LEU58      -0.2733
     40  CB        46.0410   30.1240  232.0430 C.3    58  LEU58       0.0284
     41  CG        45.4600   29.8530  233.4330 C.3    58  LEU58       0.0019
     42  CD1       43.9570   29.6320  233.3850 C.3    58  LEU58       0.0001
     43  CD2       46.1500   28.6580  234.0690 C.3    58  LEU58       0.0001
     44  N         46.9170   31.7360  229.3520 N.am   59  PRO59      -0.2729
     45  CA        47.8610   32.6480  228.6940 C.3    59  PRO59       0.1401
     46  C         47.2350   33.9890  228.3120 C.2    59  PRO59       0.2269
     47  O         47.9410   34.9970  228.2730 O.2    59  PRO59      -0.2865
     48  CB        48.2670   31.8780  227.4340 C.3    59  PRO59       0.0296
     49  CG        48.0750   30.4520  227.7930 C.3    59  PRO59       0.0237
     50  CD        46.8530   30.4340  228.6630 C.3    59  PRO59       0.0939
     51  N         47.0210   36.4710  231.4790 N.3    62  PHE62      -0.1241
     52  CA        48.3230   37.0610  231.7820 C.3    62  PHE62       0.1605
     53  C         48.7480   38.0980  230.7460 C.2    62  PHE62       0.2264
     54  O         49.5690   38.9690  231.0310 O.2    62  PHE62      -0.2867
     55  CB        49.3880   35.9720  231.9250 C.3    62  PHE62       0.0534
     56  CG        49.1990   35.0990  233.1320 C.ar   62  PHE62      -0.0203
     57  CD1       48.4410   35.5370  234.2060 C.ar   62  PHE62      -0.0042
     58  CD2       49.7790   33.8450  233.1960 C.ar   62  PHE62      -0.0042
     59  CE1       48.2640   34.7390  235.3200 C.ar   62  PHE62      -0.0003
     60  CE2       49.6060   33.0420  234.3070 C.ar   62  PHE62      -0.0003
     61  CZ        48.8470   33.4910  235.3700 C.ar   62  PHE62      -0.0000
     62  N         52.9720   38.9680  230.1630 N.3    68  ILE68      -0.1245
     63  CA        53.7060   38.4840  228.9980 C.3    68  ILE68       0.1561
     64  C         52.8450   38.5400  227.7390 C.2    68  ILE68       0.2260
     65  O         51.6870   38.1270  227.7460 O.2    68  ILE68      -0.2867
     66  CB        54.2440   37.0460  229.2170 C.3    68  ILE68       0.0252
     67  CG1       54.8860   36.5010  227.9350 C.3    68  ILE68       0.0019
     68  CG2       53.1370   36.1200  229.7080 C.3    68  ILE68       0.0019
     69  CD1       56.1250   37.2600  227.4860 C.3    68  ILE68       0.0001
     70  N         51.4770   37.1470  224.8750 N.3    70  VAL70      -0.1231
     71  CA        51.2520   35.8320  224.2900 C.3    70  VAL70       0.1678
     72  C         50.1040   35.8900  223.2900 C.2    70  VAL70       0.2434
     73  O         49.0060   36.3300  223.6280 O.2    70  VAL70      -0.2733
     74  CB        50.9190   34.7900  225.3790 C.3    70  VAL70       0.0265
     75  CG1       50.4040   33.5040  224.7550 C.3    70  VAL70       0.0020
     76  CG2       52.1360   34.5220  226.2520 C.3    70  VAL70       0.0020
     77  N         50.3580   35.4490  222.0480 N.am   71  PRO71      -0.2729
     78  CA        49.3080   35.4200  221.0240 C.3    71  PRO71       0.1401
     79  C         48.1940   34.4440  221.3900 C.2    71  PRO71       0.2269
     80  O         48.4540   33.4120  222.0110 O.2    71  PRO71      -0.2865
     81  CB        50.0530   34.9500  219.7700 C.3    71  PRO71       0.0296
     82  CG        51.2560   34.2410  220.2800 C.3    71  PRO71       0.0237
     83  CD        51.6470   34.9560  221.5360 C.3    71  PRO71       0.0939
     84  N         45.0580   31.6640  221.3070 N.3    73  TRP73      -0.1241
     85  CA        45.1430   30.2510  220.9440 C.3    73  TRP73       0.1605
     86  C         44.7830   29.9710  219.4880 C.2    73  TRP73       0.2264
     87  O         45.3560   29.0770  218.8650 O.2    73  TRP73      -0.2867
     88  CB        44.2780   29.3920  221.8720 C.3    73  TRP73       0.0550
     89  CG        42.8070   29.6700  221.7730 C.ar   73  TRP73       0.0003
     90  CD1       42.0840   30.5380  222.5380 C.ar   73  TRP73       0.0946
     91  CD2       41.8790   29.0740  220.8560 C.ar   73  TRP73       0.0152
     92  NE1       40.7640   30.5190  222.1550 N.ar   73  TRP73      -0.2442
     93  CE2       40.6130   29.6300  221.1240 C.ar   73  TRP73       0.0810
     94  CE3       41.9970   28.1240  219.8350 C.ar   73  TRP73       0.0012
     95  CZ2       39.4730   29.2690  220.4080 C.ar   73  TRP73       0.0191
     96  CZ3       40.8650   27.7690  219.1260 C.ar   73  TRP73       0.0001
     97  CH2       39.6190   28.3390  219.4160 C.ar   73  TRP73       0.0015
     98  N         47.8350   31.0490  217.1440 N.3    76  ALA76      -0.1231
     99  CA        49.1320   30.6900  217.7080 C.3    76  ALA76       0.1694
    100  C         49.9650   29.8070  216.7830 C.2    76  ALA76       0.2592
    101  O         51.1910   29.7610  216.8960 O.2    76  ALA76      -0.2718
    102  CB        48.9450   30.0100  219.0570 C.3    76  ALA76       0.0304
    103  N         49.3010   29.1070  215.8700 N.am   77  GLY77      -0.1957
    104  CA        49.9860   28.1740  214.9960 C.3    77  GLY77       0.1869
    105  C         50.6510   28.7970  213.7840 C.2    77  GLY77       0.2309
    106  O         51.4840   28.1650  213.1380 O.2    77  GLY77      -0.2863
    107  N         57.3910   29.2260  214.5860 N.3    81  TYR81      -0.1227
    108  CA        58.2590   28.2700  215.2730 C.3    81  TYR81       0.1736
    109  C         59.4520   27.7970  214.4480 C.2    81  TYR81       0.2595
    110  O         59.5040   27.9900  213.2320 O.2    81  TYR81      -0.2718
    111  CB        57.4430   27.0740  215.7730 C.3    81  TYR81       0.0548
    112  CG        56.2910   27.4780  216.6600 C.ar   81  TYR81      -0.0200
    113  CD1       56.4490   27.5710  218.0350 C.ar   81  TYR81      -0.0009
    114  CD2       55.0480   27.7830  216.1210 C.ar   81  TYR81      -0.0009
    115  CE1       55.4010   27.9470  218.8490 C.ar   81  TYR81       0.0417
    116  CE2       53.9960   28.1630  216.9260 C.ar   81  TYR81       0.0417
    117  CZ        54.1760   28.2410  218.2900 C.ar   81  TYR81       0.1957
    118  OH        53.1260   28.6170  219.0970 O.3    81  TYR81      -0.2866
    119  N         60.4040   27.1640  215.1270 N.am   82  PHE82      -0.1976
    120  CA        61.6750   26.7940  214.5160 C.3    82  PHE82       0.1639
    121  C         61.5860   25.5570  213.6300 C.2    82  PHE82       0.2290
    122  O         62.2210   25.4980  212.5800 O.2    82  PHE82      -0.2864
    123  CB        62.7510   26.5900  215.5910 C.3    82  PHE82       0.0560
    124  CG        62.4820   25.4340  216.5180 C.ar   82  PHE82      -0.0200
    125  CD1       61.6300   25.5770  217.6030 C.ar   82  PHE82      -0.0042
    126  CD2       63.0920   24.2070  216.3130 C.ar   82  PHE82      -0.0042
    127  CE1       61.3850   24.5120  218.4620 C.ar   82  PHE82      -0.0003
    128  CE2       62.8520   23.1400  217.1670 C.ar   82  PHE82      -0.0003
    129  CZ        61.9970   23.2940  218.2410 C.ar   82  PHE82      -0.0000
@<TRIPOS>BOND
     1   122   121    2
     2   106   105    2
     3   110   109    2
     4   121   120    1
     5   105   104    1
     6   109   119   am
     7   109   108    1
     8   120   119    1
     9   120   123    1
    10   107   108    1
    11   104   103    1
    12   108   111    1
    13   123   124    1
    14   111   112    1
    15   103   100   am
    16   114   112   ar
    17   114   116   ar
    18   126   124   ar
    19   126   128   ar
    20   124   125   ar
    21   112   113   ar
    22   100   101    2
    23   100    99    1
    24   116   117   ar
    25    98    99    1
    26   128   129   ar
    27   125   127   ar
    28    99   102    1
    29   113   115   ar
    30   129   127   ar
    31   117   115   ar
    32   117   118    1
    33    87    86    2
    34    96    97   ar
    35    96    94   ar
    36    97    95   ar
    37    86    85    1
    38    81    82    1
    39    81    78    1
    40    94    91   ar
    41    82    83    1
    42    95    93   ar
    43    91    93   ar
    44    91    89   ar
    45    85    84    1
    46    85    88    1
    47    78    79    1
    48    78    77    1
    49    93    92   ar
    50    79    80    2
    51    83    77    1
    52    89    88    1
    53    89    90   ar
    54    77    72   am
    55    92    90   ar
    56    72    73    2
    57    72    71    1
    58    71    70    1
    59    71    74    1
    60    75    74    1
    61    74    76    1
    62    12    14   ar
    63    12    10   ar
    64    14    13   ar
    65     9    10   ar
    66     9     7   ar
    67    10     8   ar
    68     7     6   ar
    69    13    11   ar
    70     8    11   ar
    71     8     6   ar
    72     6     5    1
    73    35    34    2
    74     5     2    1
    75    26    25    2
    76    24    25    1
    77    24    23    1
    78    34    33    1
    79     4     3    2
    80    48    49    1
    81    48    45    1
    82    69    67    1
    83     3     2    1
    84     2     1    1
    85    64    65    2
    86    64    63    1
    87    23    17   am
    88    49    50    1
    89    33    32    1
    90    67    66    1
    91    47    46    2
    92    46    45    1
    93    50    44    1
    94    45    44    1
    95    17    18    2
    96    17    16    1
    97    32    29   am
    98    63    66    1
    99    63    62    1
   100    66    68    1
   101    44    38   am
   102    19    16    1
   103    19    20    1
   104    22    20    1
   105    29    30    2
   106    29    28    1
   107    16    15    1
   108    27    28    1
   109    20    21    1
   110    36    37    1
   111    38    39    2
   112    38    37    1
   113    53    54    2
   114    53    52    1
   115    28    31    1
   116    37    40    1
   117    51    52    1
   118    52    55    1
   119    55    56    1
   120    40    41    1
   121    56    58   ar
   122    56    57   ar
   123    58    60   ar
   124    42    41    1
   125    41    43    1
   126    57    59   ar
   127    60    61   ar
   128    59    61   ar
