@<TRIPOS>MOLECULE
tmp/4xk8R44.pdb
 89 86 0 0 0
SMALL
GASTEIGER

@<TRIPOS>ATOM
      1  N        -45.1260   -2.6400   99.0090 N.3   427  PHE427     -0.1227
      2  CA       -44.4130   -1.4370   98.5920 C.3   427  PHE427      0.1736
      3  C        -44.9540   -0.9100   97.2640 C.2   427  PHE427      0.2595
      4  O        -45.3900    0.2510   97.1650 O.2   427  PHE427     -0.2718
      5  CB       -42.9140   -1.7300   98.4650 C.3   427  PHE427      0.0547
      6  CG       -42.1110   -0.5760   97.9250 C.ar  427  PHE427     -0.0202
      7  CD1      -41.6310    0.4080   98.7730 C.ar  427  PHE427     -0.0042
      8  CD2      -41.8290   -0.4820   96.5700 C.ar  427  PHE427     -0.0042
      9  CE1      -40.8920    1.4670   98.2800 C.ar  427  PHE427     -0.0003
     10  CE2      -41.0930    0.5740   96.0730 C.ar  427  PHE427     -0.0003
     11  CZ       -40.6240    1.5490   96.9280 C.ar  427  PHE427     -0.0000
     12  N        -44.9210   -1.7770   96.2540 N.am  428  LEU428     -0.1980
     13  CA       -45.3730   -1.4270   94.9110 C.3   428  LEU428      0.1596
     14  C        -46.7920   -0.8610   94.9100 C.2   428  LEU428      0.2287
     15  O        -47.0680    0.1360   94.2460 O.2   428  LEU428     -0.2864
     16  CB       -45.2860   -2.6470   93.9940 C.3   428  LEU428      0.0297
     17  CG       -43.8650   -3.1300   93.6910 C.3   428  LEU428      0.0022
     18  CD1      -43.8810   -4.5180   93.0800 C.3   428  LEU428      0.0001
     19  CD2      -43.1600   -2.1540   92.7650 C.3   428  LEU428      0.0001
     20  N        -47.1090    2.6740   96.9790 N.3   431  HIS431     -0.1226
     21  CA       -46.4940    3.8080   96.3050 C.3   431  HIS431      0.1752
     22  C        -47.0400    4.0810   94.9060 C.2   431  HIS431      0.2596
     23  O        -47.1030    5.2350   94.4880 O.2   431  HIS431     -0.2718
     24  CB       -44.9740    3.6840   96.3180 C.3   431  HIS431      0.0759
     25  CG       -44.3880    3.7420   97.6930 C.ar  431  HIS431      0.0818
     26  ND1      -44.4020    2.6650   98.5530 N.ar  431  HIS431     -0.2268
     27  CD2      -43.7910    4.7530   98.3660 C.ar  431  HIS431      0.1154
     28  CE1      -43.8270    3.0070   99.6930 C.ar  431  HIS431      0.1986
     29  NE2      -43.4470    4.2690   99.6050 N.ar  431  HIS431     -0.2212
     30  N        -47.4460    3.0370   94.1880 N.am  432  THR432     -0.1953
     31  CA       -48.0000    3.2420   92.8510 C.3   432  THR432      0.1897
     32  C        -49.3910    3.8630   92.9540 C.2   432  THR432      0.2313
     33  O        -49.6890    4.8720   92.2920 O.2   432  THR432     -0.2863
     34  CB       -48.0620    1.9320   92.0320 C.3   432  THR432      0.1794
     35  OG1      -46.7820    1.2890   92.0550 O.3   432  THR432     -0.2208
     36  CG2      -48.4670    2.2080   90.5880 C.3   432  THR432      0.0378
     37  N        -48.9580    7.4510   94.2520 N.3   435  LEU435     -0.1245
     38  CA       -48.5200    8.4090   93.2420 C.3   435  LEU435      0.1561
     39  C        -49.6370    8.7430   92.2560 C.2   435  LEU435      0.2260
     40  O        -49.8600    9.9160   91.9260 O.2   435  LEU435     -0.2867
     41  CB       -47.2790    7.8950   92.5060 C.3   435  LEU435      0.0270
     42  CG       -45.9300    8.4510   92.9800 C.3   435  LEU435      0.0019
     43  CD1      -45.7740    8.3330   94.4860 C.3   435  LEU435      0.0001
     44  CD2      -44.7750    7.7650   92.2710 C.3   435  LEU435      0.0001
     45  N        -46.2480   14.4680   90.5750 N.3   452  ILE452     -0.1245
     46  CA       -44.9710   13.7900   90.7370 C.3   452  ILE452      0.1561
     47  C        -44.7280   12.8420   89.5580 C.2   452  ILE452      0.2260
     48  O        -45.3200   11.7670   89.4680 O.2   452  ILE452     -0.2867
     49  CB       -44.8720   13.0670   92.0940 C.3   452  ILE452      0.0252
     50  CG1      -43.6690   12.1310   92.1140 C.3   452  ILE452      0.0019
     51  CG2      -46.1550   12.3190   92.4090 C.3   452  ILE452      0.0019
     52  CD1      -43.5450   11.3640   93.3960 C.3   452  ILE452      0.0001
     53  N        -41.9560   10.7840   87.6840 N.3   454  ILE454     -0.1245
     54  CA       -40.6190   10.2090   87.6730 C.3   454  ILE454      0.1561
     55  C        -40.2500    9.7120   86.2780 C.2   454  ILE454      0.2260
     56  O        -40.9790    8.9210   85.6810 O.2   454  ILE454     -0.2867
     57  CB       -40.5010    9.0490   88.6750 C.3   454  ILE454      0.0252
     58  CG1      -40.9350    9.5070   90.0700 C.3   454  ILE454      0.0019
     59  CG2      -39.0770    8.5040   88.6960 C.3   454  ILE454      0.0019
     60  CD1      -40.8870    8.4130   91.1210 C.3   454  ILE454      0.0001
     61  N        -43.3810    4.9090   83.2560 N.3   516  PHE516     -0.1227
     62  CA       -42.8180    4.5700   84.5620 C.3   516  PHE516      0.1736
     63  C        -43.9090    4.0460   85.5040 C.2   516  PHE516      0.2595
     64  O        -43.8020    2.9420   86.0660 O.2   516  PHE516     -0.2718
     65  CB       -42.1340    5.8000   85.1730 C.3   516  PHE516      0.0547
     66  CG       -41.6570    5.6000   86.5880 C.ar  516  PHE516     -0.0202
     67  CD1      -42.5030    5.8400   87.6650 C.ar  516  PHE516     -0.0042
     68  CD2      -40.3610    5.1970   86.8440 C.ar  516  PHE516     -0.0042
     69  CE1      -42.0690    5.6580   88.9640 C.ar  516  PHE516     -0.0003
     70  CE2      -39.9190    5.0210   88.1450 C.ar  516  PHE516     -0.0003
     71  CZ       -40.7760    5.2490   89.2050 C.ar  516  PHE516     -0.0000
     72  N        -44.9530    4.8550   85.6730 N.am  517  LEU517     -0.1980
     73  CA       -46.0660    4.5090   86.5550 C.3   517  LEU517      0.1596
     74  C        -46.7010    3.1690   86.2000 C.2   517  LEU517      0.2287
     75  O        -46.8020    2.2750   87.0480 O.2   517  LEU517     -0.2864
     76  CB       -47.1210    5.6160   86.5410 C.3   517  LEU517      0.0297
     77  CG       -46.7120    6.9000   87.2590 C.3   517  LEU517      0.0022
     78  CD1      -47.6820    8.0320   86.9550 C.3   517  LEU517      0.0001
     79  CD2      -46.6290    6.6440   88.7570 C.3   517  LEU517      0.0001
     80  N        -44.5670    0.1930   86.8890 N.3   520  HIS520     -0.1241
     81  CA       -44.5470   -0.1870   88.3010 C.3   520  HIS520      0.1621
     82  C        -45.8700   -0.8150   88.7620 C.2   520  HIS520      0.2264
     83  O        -45.8900   -1.6480   89.6750 O.2   520  HIS520     -0.2867
     84  CB       -44.0980    0.9770   89.1940 C.3   520  HIS520      0.0745
     85  CG       -42.6180    1.2160   89.1560 C.ar  520  HIS520      0.0817
     86  ND1      -41.9910    1.8420   88.0990 N.ar  520  HIS520     -0.2268
     87  CD2      -41.6370    0.8760   90.0270 C.ar  520  HIS520      0.1154
     88  CE1      -40.6900    1.8910   88.3290 C.ar  520  HIS520      0.1986
     89  NE2      -40.4480    1.3100   89.4920 N.ar  520  HIS520     -0.2212
@<TRIPOS>BOND
     1    61    62    1
     2    62    65    1
     3    62    63    1
     4    65    66    1
     5    63    72   am
     6    63    64    2
     7    72    73    1
     8    56    55    2
     9    74    73    1
    10    74    75    2
    11    55    54    1
    12    76    73    1
    13    76    77    1
    14    66    68   ar
    15    66    67   ar
    16    68    70   ar
    17    80    81    1
    18    78    77    1
    19    77    79    1
    20    67    69   ar
    21    54    53    1
    22    54    57    1
    23    86    88   ar
    24    86    85   ar
    25    70    71   ar
    26    81    82    1
    27    81    84    1
    28    88    89   ar
    29    57    59    1
    30    57    58    1
    31    82    83    2
    32    69    71   ar
    33    85    84    1
    34    85    87   ar
    35    48    47    2
    36    89    87   ar
    37    47    46    1
    38    58    60    1
    39    45    46    1
    40    36    34    1
    41    46    49    1
    42    40    39    2
    43    34    35    1
    44    34    31    1
    45    49    50    1
    46    49    51    1
    47    50    52    1
    48    39    38    1
    49    44    42    1
    50    33    32    2
    51    41    42    1
    52    41    38    1
    53    19    17    1
    54    31    32    1
    55    31    30    1
    56    42    43    1
    57    18    17    1
    58    38    37    1
    59    17    16    1
    60    16    13    1
    61    30    22   am
    62    15    14    2
    63    23    22    2
    64    22    21    1
    65    14    13    1
    66    13    12    1
    67    10     8   ar
    68    10    11   ar
    69    12     3   am
    70    21    24    1
    71    21    20    1
    72    24    25    1
    73     8     6   ar
    74    11     9   ar
    75     4     3    2
    76     3     2    1
    77    25    27   ar
    78    25    26   ar
    79     6     5    1
    80     6     7   ar
    81     9     7   ar
    82    27    29   ar
    83     5     2    1
    84    26    28   ar
    85     2     1    1
    86    29    28   ar
