@<TRIPOS>MOLECULE
tmp/4xk8P01.pdb
 172 168 0 0 0
SMALL
GASTEIGER

@<TRIPOS>ATOM
      1  N         40.5790   15.0040  230.7240 N.3    47  ARG47      -0.1231
      2  CA        41.9150   15.4820  231.0670 C.3    47  ARG47       0.1694
      3  C         42.5070   16.3630  229.9710 C.2    47  ARG47       0.2592
      4  O         43.0560   17.4380  230.2500 O.2    47  ARG47      -0.2718
      5  CB        42.8410   14.3080  231.3820 C.3    47  ARG47       0.0321
      6  CG        42.4490   13.5630  232.6470 C.3    47  ARG47       0.0489
      7  CD        43.4000   12.4240  232.9470 C.3    47  ARG47       0.2205
      8  NE        43.0630   11.7320  234.1890 N.pl3  47  ARG47      -0.0865
      9  CZ        42.8430   10.4250  234.2790 C.cat  47  ARG47       0.5346
     10  NH1       42.5420    9.8790  235.4490 N.pl3  47  ARG47       0.1354
     11  NH2       42.9320    9.6600  233.2010 N.pl3  47  ARG47       0.1354
     12  N         42.3930   15.9090  228.7250 N.am   48  TRP48      -0.1976
     13  CA        42.8650   16.7070  227.5960 C.3    48  TRP48       0.1640
     14  C         42.0960   18.0220  227.4880 C.2    48  TRP48       0.2290
     15  O         42.6460   19.0380  227.0570 O.2    48  TRP48      -0.2864
     16  CB        42.7770   15.9230  226.2840 C.3    48  TRP48       0.0576
     17  CG        43.8680   14.9050  226.1150 C.ar   48  TRP48       0.0006
     18  CD1       43.7170   13.5550  225.9980 C.ar   48  TRP48       0.0946
     19  CD2       45.2780   15.1580  226.0430 C.ar   48  TRP48       0.0152
     20  NE1       44.9430   12.9500  225.8590 N.ar   48  TRP48      -0.2442
     21  CE2       45.9180   13.9120  225.8820 C.ar   48  TRP48       0.0810
     22  CE3       46.0610   16.3150  226.1020 C.ar   48  TRP48       0.0012
     23  CZ2       47.3010   13.7910  225.7810 C.ar   48  TRP48       0.0191
     24  CZ3       47.4350   16.1910  226.0010 C.ar   48  TRP48       0.0001
     25  CH2       48.0400   14.9380  225.8420 C.ar   48  TRP48       0.0015
     26  N         40.8140   19.6350  230.1450 N.3    50  MET50      -0.1230
     27  CA        41.3070   20.4620  231.2400 C.3    50  MET50       0.1702
     28  C         42.6040   21.1510  230.8380 C.2    50  MET50       0.2592
     29  O         42.7320   22.3780  230.9520 O.2    50  MET50      -0.2718
     30  CB        41.5040   19.6280  232.5090 C.3    50  MET50       0.0401
     31  CG        40.2070   19.3060  233.2370 C.3    50  MET50       0.0596
     32  SD        40.4300   18.4350  234.7990 S.3    50  MET50      -0.1393
     33  CE        40.7540   16.7730  234.2230 C.3    50  MET50       0.0692
     34  N         43.5510   20.3570  230.3470 N.am   51  LEU51      -0.1980
     35  CA        44.8280   20.8860  229.8780 C.3    51  LEU51       0.1596
     36  C         44.6340   21.9310  228.7850 C.2    51  LEU51       0.2287
     37  O         45.1970   23.0270  228.8520 O.2    51  LEU51      -0.2864
     38  CB        45.7190   19.7520  229.3700 C.3    51  LEU51       0.0297
     39  CG        47.0010   19.4630  230.1570 C.3    51  LEU51       0.0022
     40  CD1       46.7290   19.3700  231.6490 C.3    51  LEU51       0.0001
     41  CD2       47.6580   18.1900  229.6490 C.3    51  LEU51       0.0001
     42  N         42.8520   25.1750  230.0200 N.3    54  ALA54      -0.1245
     43  CA        43.8280   25.9270  230.8040 C.3    54  ALA54       0.1562
     44  C         44.7890   26.6680  229.8750 C.2    54  ALA54       0.2260
     45  O         45.0440   27.8660  230.0480 O.2    54  ALA54      -0.2867
     46  CB        44.5880   25.0040  231.7400 C.3    54  ALA54       0.0290
     47  N         44.3090   30.7010  230.3650 N.3    58  LEU58      -0.1245
     48  CA        45.3700   31.2370  231.2250 C.3    58  LEU58       0.1561
     49  C         46.4170   32.1330  230.5380 C.2    58  LEU58       0.2260
     50  O         46.7740   33.1780  231.0830 O.2    58  LEU58      -0.2867
     51  CB        46.0410   30.1240  232.0430 C.3    58  LEU58       0.0270
     52  CG        45.4600   29.8530  233.4330 C.3    58  LEU58       0.0019
     53  CD1       43.9570   29.6320  233.3850 C.3    58  LEU58       0.0001
     54  CD2       46.1500   28.6580  234.0690 C.3    58  LEU58       0.0001
     55  N         47.5080   -1.1310  239.5190 N.3   127  GLY127     -0.1210
     56  CA        46.5000   -0.1980  239.9880 C.3   127  GLY127      0.1956
     57  C         45.2010   -0.3280  239.2190 C.2   127  GLY127      0.2611
     58  O         44.8320   -1.4200  238.7930 O.2   127  GLY127     -0.2717
     59  N         44.4880    0.7830  239.0720 N.am  128  GLU128     -0.1979
     60  CA        43.2250    0.7950  238.3420 C.3   128  GLU128      0.1602
     61  C         43.4020    1.2540  236.8980 C.2   128  GLU128      0.2287
     62  O         44.2280    2.1200  236.6090 O.2   128  GLU128     -0.2864
     63  CB        42.2080    1.6930  239.0460 C.3   128  GLU128      0.0415
     64  CG        40.7780    1.1890  238.9640 C.3   128  GLU128      0.1163
     65  CD        40.4050    0.3100  240.1370 C.2   128  GLU128      0.3649
     66  OE1       40.9680   -0.7990  240.2580 O.co2 128  GLU128     -0.2457
     67  OE2       39.5550    0.7370  240.9470 O.co2 128  GLU128     -0.2457
     68  N         43.7640    4.8910  235.8730 N.3   131  TYR131     -0.1228
     69  CA        44.4950    5.5260  236.9620 C.3   131  TYR131      0.1721
     70  C         45.8210    4.7960  237.1720 C.2   131  TYR131      0.2437
     71  O         45.9450    3.9800  238.0860 O.2   131  TYR131     -0.2733
     72  CB        43.6660    5.5000  238.2500 C.3   131  TYR131      0.0547
     73  CG        42.3190    6.1840  238.1350 C.ar  131  TYR131     -0.0200
     74  CD1       42.2130    7.5680  238.1960 C.ar  131  TYR131     -0.0009
     75  CD2       41.1530    5.4460  237.9740 C.ar  131  TYR131     -0.0009
     76  CE1       40.9870    8.1960  238.0920 C.ar  131  TYR131      0.0417
     77  CE2       39.9210    6.0660  237.8710 C.ar  131  TYR131      0.0417
     78  CZ        39.8440    7.4420  237.9310 C.ar  131  TYR131      0.1957
     79  OH        38.6220    8.0670  237.8280 O.3   131  TYR131     -0.2866
     80  N         46.8190    5.0960  236.3240 N.am  132  PRO132     -0.2718
     81  CA        48.0950    4.3700  236.2870 C.3   132  PRO132      0.1535
     82  C         48.8800    4.4620  237.5940 C.2   132  PRO132      0.2599
     83  O         49.2000    3.4290  238.1810 O.2   132  PRO132     -0.2715
     84  CB        48.8600    5.0570  235.1500 C.3   132  PRO132      0.0310
     85  CG        48.2450    6.4070  235.0330 C.3   132  PRO132      0.0237
     86  CD        46.7980    6.2220  235.3750 C.3   132  PRO132      0.0939
     87  N         49.1830    5.6770  238.0400 N.am  133  GLY133     -0.1955
     88  CA        49.9490    5.8700  239.2580 C.3   133  GLY133      0.1869
     89  C         51.4250    5.5800  239.0630 C.2   133  GLY133      0.2309
     90  O         51.9520    5.7110  237.9590 O.2   133  GLY133     -0.2863
     91  N         53.7580    8.0530  237.3540 N.3   136  PHE136     -0.1227
     92  CA        52.8310    9.1060  236.9490 C.3   136  PHE136      0.1736
     93  C         52.3410    9.8910  238.1590 C.2   136  PHE136      0.2595
     94  O         51.7450   10.9580  238.0210 O.2   136  PHE136     -0.2718
     95  CB        51.6370    8.5250  236.1870 C.3   136  PHE136      0.0547
     96  CG        51.9880    7.9670  234.8380 C.ar  136  PHE136     -0.0202
     97  CD1       52.0630    8.7940  233.7310 C.ar  136  PHE136     -0.0042
     98  CD2       52.2300    6.6150  234.6750 C.ar  136  PHE136     -0.0042
     99  CE1       52.3830    8.2850  232.4880 C.ar  136  PHE136     -0.0003
    100  CE2       52.5490    6.0980  233.4340 C.ar  136  PHE136     -0.0003
    101  CZ        52.6250    6.9340  232.3390 C.ar  136  PHE136     -0.0000
    102  N         52.5920    9.3500  239.3460 N.am  137  ASN137     -0.1974
    103  CA        52.2270   10.0180  240.5870 C.3   137  ASN137      0.1688
    104  C         53.4310   10.1400  241.5190 C.2   137  ASN137      0.2292
    105  O         53.5310    9.4130  242.5060 O.2   137  ASN137     -0.2864
    106  CB        51.0920    9.2630  241.2800 C.3   137  ASN137      0.1181
    107  CG        50.5390   10.0100  242.4760 C.2   137  ASN137      0.2629
    108  OD1       50.7200   11.2200  242.6030 O.2   137  ASN137     -0.2716
    109  ND2       49.8590    9.2910  243.3600 N.am  137  ASN137     -0.0877
    110  N         50.1300   11.2560  245.9370 N.3   141  PHE141     -0.1227
    111  CA        48.7940   11.6120  246.3970 C.3   141  PHE141      0.1736
    112  C         47.8980   10.3790  246.4060 C.2   141  PHE141      0.2595
    113  O         48.0300    9.5000  245.5540 O.2   141  PHE141     -0.2718
    114  CB        48.1820   12.6820  245.4950 C.3   141  PHE141      0.0547
    115  CG        48.6200   14.0810  245.8200 C.ar  141  PHE141     -0.0202
    116  CD1       49.7740   14.6090  245.2630 C.ar  141  PHE141     -0.0042
    117  CD2       47.8700   14.8740  246.6720 C.ar  141  PHE141     -0.0042
    118  CE1       50.1760   15.8990  245.5560 C.ar  141  PHE141     -0.0003
    119  CE2       48.2670   16.1650  246.9700 C.ar  141  PHE141     -0.0003
    120  CZ        49.4210   16.6780  246.4100 C.ar  141  PHE141     -0.0000
    121  N         46.9830   10.3190  247.3670 N.am  142  ALA142     -0.1966
    122  CA        46.0810    9.1800  247.4850 C.3   142  ALA142      0.1713
    123  C         44.9330    9.2700  246.4850 C.2   142  ALA142      0.2458
    124  O         44.1900   10.2520  246.4720 O.2   142  ALA142     -0.2730
    125  CB        45.5450    9.0730  248.9050 C.3   142  ALA142      0.0333
    126  N         44.7920    8.2430  245.6360 N.am  143  PRO143     -0.2727
    127  CA        43.7010    8.1680  244.6590 C.3   143  PRO143      0.1402
    128  C         42.3670    7.8620  245.3370 C.2   143  PRO143      0.2269
    129  O         41.7800    6.8080  245.0890 O.2   143  PRO143     -0.2865
    130  CB        44.1120    6.9950  243.7590 C.3   143  PRO143      0.0296
    131  CG        45.5650    6.7610  244.0450 C.3   143  PRO143      0.0237
    132  CD        45.7470    7.1370  245.4740 C.3   143  PRO143      0.0939
    133  N         38.8520   12.4920  245.3380 N.3   147  ALA147     -0.1231
    134  CA        39.7890   13.0680  244.3800 C.3   147  ALA147      0.1694
    135  C         39.4270   12.6690  242.9520 C.2   147  ALA147      0.2591
    136  O         39.5430   13.4710  242.0220 O.2   147  ALA147     -0.2718
    137  CB        41.2110   12.6490  244.7130 C.3   147  ALA147      0.0304
    138  N         38.9820   11.4260  242.7880 N.am  148  LYS148     -0.1980
    139  CA        38.5740   10.9220  241.4810 C.3   148  LYS148      0.1596
    140  C         37.3470   11.6580  240.9510 C.2   148  LYS148      0.2287
    141  O         37.3380   12.1170  239.8080 O.2   148  LYS148     -0.2864
    142  CB        38.3070    9.4140  241.5340 C.3   148  LYS148      0.0298
    143  CG        39.5660    8.5610  241.5840 C.3   148  LYS148      0.0038
    144  CD        39.2430    7.0800  241.4640 C.3   148  LYS148      0.0206
    145  CE        40.5120    6.2390  241.4780 C.3   148  LYS148      0.1093
    146  NZ        40.2300    4.7840  241.3390 N.3   148  LYS148     -0.1314
    147  N         36.2880   14.5000  241.8860 N.3   150  LYS150     -0.1231
    148  CA        36.7040   15.8780  241.6500 C.3   150  LYS150      0.1693
    149  C         37.3610   16.0050  240.2790 C.2   150  LYS150      0.2591
    150  O         37.1130   16.9660  239.5430 O.2   150  LYS150     -0.2718
    151  CB        37.6700   16.3530  242.7340 C.3   150  LYS150      0.0285
    152  CG        37.0040   16.8610  243.9930 C.3   150  LYS150      0.0035
    153  CD        38.0260   17.5140  244.9050 C.3   150  LYS150      0.0206
    154  CE        37.3760   18.0810  246.1550 C.3   150  LYS150      0.1093
    155  NZ        38.3800   18.7070  247.0620 N.3   150  LYS150     -0.1314
    156  N         38.2040   15.0290  239.9490 N.am  151  GLU151     -0.1979
    157  CA        38.8710   14.9760  238.6510 C.3   151  GLU151      0.1602
    158  C         37.8500   14.9400  237.5270 C.2   151  GLU151      0.2287
    159  O         37.9420   15.6980  236.5590 O.2   151  GLU151     -0.2864
    160  CB        39.7680   13.7430  238.5690 C.3   151  GLU151      0.0415
    161  CG        40.5440   13.6180  237.2720 C.3   151  GLU151      0.1163
    162  CD        41.3860   12.3590  237.2260 C.2   151  GLU151      0.3649
    163  OE1       40.8480   11.2780  237.5490 O.co2 151  GLU151     -0.2457
    164  OE2       42.5870   12.4560  236.8850 O.co2 151  GLU151     -0.2457
    165  N         35.8280   18.4610  237.3870 N.3   154  ASN154     -0.1240
    166  CA        36.6080   19.4900  236.7010 C.3   154  ASN154      0.1653
    167  C         36.8020   19.1510  235.2240 C.2   154  ASN154      0.2266
    168  O         36.8800   20.0430  234.3770 O.2   154  ASN154     -0.2867
    169  CB        37.9630   19.7060  237.3860 C.3   154  ASN154      0.1155
    170  CG        37.8560   20.5400  238.6580 C.2   154  ASN154      0.2627
    171  OD1       38.0790   21.7580  238.6470 O.2   154  ASN154     -0.2716
    172  ND2       37.5100   19.8870  239.7640 N.am  154  ASN154     -0.0877
@<TRIPOS>BOND
     1    23    25   ar
     2    23    21   ar
     3    25    24   ar
     4    20    21   ar
     5    20    18   ar
     6    21    19   ar
     7    18    17   ar
     8    24    22   ar
     9    19    22   ar
    10    19    17   ar
    11    17    16    1
    12    16    13    1
    13    15    14    2
    14    14    13    1
    15    13    12    1
    16    12     3   am
    17    36    37    2
    18    36    35    1
    19    38    35    1
    20    38    39    1
    21    41    39    1
    22    44    45    2
    23    44    43    1
    24    35    34    1
    25     3     4    2
    26     3     2    1
    27    42    43    1
    28    26    27    1
    29    39    40    1
    30    34    28   am
    31    47    48    1
    32    49    50    2
    33    49    48    1
    34     1     2    1
    35    43    46    1
    36    28    29    2
    37    28    27    1
    38     2     5    1
    39    48    51    1
    40    27    30    1
    41     5     6    1
    42    51    52    1
    43   101    99   ar
    44   101   100   ar
    45    99    97   ar
    46    30    31    1
    47     6     7    1
    48     7     8    1
    49    11     9    1
    50    31    32    1
    51    53    52    1
    52    52    54    1
    53   100    98   ar
    54    97    96   ar
    55     8     9    2
    56    33    32    1
    57     9    10    1
    58   168   167    2
    59    98    96   ar
    60    96    95    1
    61    85    84    1
    62    85    86    1
    63    84    81    1
    64   167   166    1
    65    86    80    1
    66    68    69    1
    67    95    92    1
    68    81    80    1
    69    81    82    1
    70    80    70   am
    71   159   158    2
    72    62    61    2
    73   166   169    1
    74   166   165    1
    75   164   162   ar
    76    61    60    1
    77    92    91    1
    78    92    93    1
    79    69    70    1
    80    69    72    1
    81    70    71    2
    82   162   161    1
    83   162   163   ar
    84   161   160    1
    85   169   170    1
    86   158   157    1
    87    82    87   am
    88    82    83    2
    89    79    78    1
    90    77    78   ar
    91    77    75   ar
    92    78    76   ar
    93    90    89    2
    94    75    73   ar
    95    94    93    2
    96    87    88    1
    97    76    74   ar
    98    73    74   ar
    99    73    72    1
   100    93   102   am
   101    60    63    1
   102    60    59    1
   103   160   157    1
   104   171   170    2
   105   157   156    1
   106   170   172   am
   107    58    57    2
   108    64    63    1
   109    64    65    1
   110    89    88    1
   111    59    57   am
   112    57    56    1
   113   102   103    1
   114    55    56    1
   115   150   149    2
   116   141   140    2
   117   156   149   am
   118    65    66   ar
   119    65    67   ar
   120   149   148    1
   121   103   106    1
   122   103   104    1
   123   140   139    1
   124   106   107    1
   125   146   145    1
   126   144   145    1
   127   144   143    1
   128   139   142    1
   129   139   138    1
   130   104   105    2
   131   142   143    1
   132   148   147    1
   133   148   151    1
   134   136   135    2
   135   107   108    2
   136   107   109   am
   137   151   152    1
   138   138   135   am
   139   135   134    1
   140   130   131    1
   141   130   127    1
   142   152   153    1
   143   131   132    1
   144   134   137    1
   145   134   133    1
   146   127   128    1
   147   127   126    1
   148   153   154    1
   149   129   128    2
   150   116   118   ar
   151   116   115   ar
   152   132   126    1
   153   114   115    1
   154   114   111    1
   155   113   112    2
   156   118   120   ar
   157   126   123   am
   158   115   117   ar
   159   110   111    1
   160   154   155    1
   161   111   112    1
   162   112   121   am
   163   120   119   ar
   164   124   123    2
   165   123   122    1
   166   117   119   ar
   167   121   122    1
   168   122   125    1
