@<TRIPOS>MOLECULE
tmp/4xk8Q00.pdb
 145 142 0 0 0
SMALL
GASTEIGER

@<TRIPOS>ATOM
      1  N        -96.4090    6.6360  136.3650 N.3     4  ILE4       -0.1245
      2  CA       -94.9810    6.8710  136.2020 C.3     4  ILE4        0.1561
      3  C        -94.1840    5.9670  137.1330 C.2     4  ILE4        0.2260
      4  O        -94.1560    6.1860  138.3420 O.2     4  ILE4       -0.2867
      5  CB       -94.6200    8.3270  136.5300 C.3     4  ILE4        0.0252
      6  CG1      -95.4590    9.2900  135.6910 C.3     4  ILE4        0.0019
      7  CG2      -93.1330    8.5690  136.3350 C.3     4  ILE4        0.0019
      8  CD1      -95.2790   10.7380  136.0750 C.3     4  ILE4        0.0001
      9  N        -90.4450    4.3350  138.0950 N.3     6  VAL6       -0.1245
     10  CA       -89.0240    4.6070  137.9340 C.3     6  VAL6        0.1561
     11  C        -88.2180    4.0830  139.1200 C.2     6  VAL6        0.2260
     12  O        -88.6610    4.1580  140.2670 O.2     6  VAL6       -0.2867
     13  CB       -88.7740    6.1340  137.7450 C.3     6  VAL6        0.0252
     14  CG1      -87.5710    6.6130  138.5490 C.3     6  VAL6        0.0019
     15  CG2      -88.6230    6.4850  136.2740 C.3     6  VAL6        0.0019
     16  N        -83.7850    3.1430  125.6570 N.3    63  PHE63      -0.1241
     17  CA       -84.3870    4.4610  125.8640 C.3    63  PHE63       0.1605
     18  C        -83.3100    5.5430  125.9020 C.2    63  PHE63       0.2264
     19  O        -83.3850    6.5480  125.1730 O.2    63  PHE63      -0.2867
     20  CB       -85.2190    4.4810  127.1510 C.3    63  PHE63       0.0534
     21  CG       -86.1450    5.6670  127.2690 C.ar   63  PHE63      -0.0203
     22  CD1      -86.9820    6.0240  126.2220 C.ar   63  PHE63      -0.0042
     23  CD2      -86.1960    6.4100  128.4390 C.ar   63  PHE63      -0.0042
     24  CE1      -87.8420    7.1120  126.3330 C.ar   63  PHE63      -0.0003
     25  CE2      -87.0550    7.4990  128.5580 C.ar   63  PHE63      -0.0003
     26  CZ       -87.8790    7.8490  127.5030 C.ar   63  PHE63      -0.0000
     27  N        -82.2920    8.6910  123.3740 N.3    67  PHE67      -0.1241
     28  CA       -81.9690   10.0680  123.7530 C.3    67  PHE67       0.1605
     29  C        -80.6520   10.5390  123.1300 C.2    67  PHE67       0.2264
     30  O        -80.5560   11.6700  122.6430 O.2    67  PHE67      -0.2867
     31  CB       -81.9280   10.2420  125.2710 C.3    67  PHE67       0.0534
     32  CG       -83.2680   10.5150  125.8830 C.ar   67  PHE67      -0.0203
     33  CD1      -83.9930   11.6340  125.5180 C.ar   67  PHE67      -0.0042
     34  CD2      -83.8000    9.6590  126.8290 C.ar   67  PHE67      -0.0042
     35  CE1      -85.2310   11.8880  126.0800 C.ar   67  PHE67      -0.0003
     36  CE2      -85.0300    9.9110  127.3940 C.ar   67  PHE67      -0.0003
     37  CZ       -85.7470   11.0230  127.0190 C.ar   67  PHE67      -0.0000
     38  N        -81.3190   11.3300  119.4320 N.3    70  LEU70      -0.1245
     39  CA       -82.0210   12.6030  119.2770 C.3    70  LEU70       0.1561
     40  C        -81.0940   13.7920  119.5420 C.2    70  LEU70       0.2260
     41  O        -81.1810   14.8220  118.8670 O.2    70  LEU70      -0.2867
     42  CB       -83.2470   12.6680  120.1890 C.3    70  LEU70       0.0270
     43  CG       -84.3780   11.6850  119.8890 C.3    70  LEU70       0.0019
     44  CD1      -85.5470   11.9170  120.8320 C.3    70  LEU70       0.0001
     45  CD2      -84.8210   11.8120  118.4430 C.3    70  LEU70       0.0001
     46  N        -81.3390   22.2240  122.7490 N.3   158  PHE158     -0.1241
     47  CA       -82.1040   20.9800  122.7320 C.3   158  PHE158      0.1605
     48  C        -81.2090   19.7380  122.6820 C.2   158  PHE158      0.2264
     49  O        -81.5650   18.6850  123.2140 O.2   158  PHE158     -0.2867
     50  CB       -83.1180   20.9760  121.5840 C.3   158  PHE158      0.0534
     51  CG       -84.4720   21.5040  121.9760 C.ar  158  PHE158     -0.0203
     52  CD1      -84.7650   22.8550  121.8670 C.ar  158  PHE158     -0.0042
     53  CD2      -85.4480   20.6500  122.4690 C.ar  158  PHE158     -0.0042
     54  CE1      -86.0070   23.3430  122.2370 C.ar  158  PHE158     -0.0003
     55  CE2      -86.6930   21.1330  122.8380 C.ar  158  PHE158     -0.0003
     56  CZ       -86.9720   22.4810  122.7220 C.ar  158  PHE158     -0.0000
     57  N        -80.2400   19.2440  126.1430 N.3   161  LEU161     -0.1231
     58  CA       -81.3840   18.7250  126.8890 C.3   161  LEU161      0.1693
     59  C        -81.6040   17.2350  126.6530 C.2   161  LEU161      0.2591
     60  O        -81.9220   16.4970  127.5830 O.2   161  LEU161     -0.2718
     61  CB       -82.6570   19.4940  126.5300 C.3   161  LEU161      0.0284
     62  CG       -82.6770   20.9890  126.8460 C.3   161  LEU161      0.0019
     63  CD1      -84.0370   21.5750  126.5100 C.3   161  LEU161      0.0001
     64  CD2      -82.3230   21.2360  128.3040 C.3   161  LEU161      0.0001
     65  N        -81.4370   16.8000  125.4080 N.am  162  MET162     -0.1979
     66  CA       -81.6040   15.3940  125.0580 C.3   162  MET162      0.1605
     67  C        -80.4990   14.5360  125.6660 C.2   162  MET162      0.2287
     68  O        -80.7560   13.4370  126.1740 O.2   162  MET162     -0.2864
     69  CB       -81.6360   15.2150  123.5390 C.3   162  MET162      0.0413
     70  CG       -82.8880   15.7580  122.8730 C.3   162  MET162      0.0598
     71  SD       -84.3790   14.9380  123.4570 S.3   162  MET162     -0.1393
     72  CE       -85.6420   15.8560  122.5840 C.3   162  MET162      0.0692
     73  N        -78.6380   15.2730  128.3650 N.3   164  PHE164     -0.1227
     74  CA       -78.9260   15.2510  129.7950 C.3   164  PHE164      0.1736
     75  C        -80.0640   14.3010  130.1120 C.2   164  PHE164      0.2595
     76  O        -80.0240   13.6000  131.1160 O.2   164  PHE164     -0.2718
     77  CB       -79.2770   16.6460  130.3210 C.3   164  PHE164      0.0547
     78  CG       -79.8520   16.6350  131.7150 C.ar  164  PHE164     -0.0202
     79  CD1      -79.0220   16.5960  132.8230 C.ar  164  PHE164     -0.0042
     80  CD2      -81.2260   16.6610  131.9150 C.ar  164  PHE164     -0.0042
     81  CE1      -79.5500   16.5780  134.1000 C.ar  164  PHE164     -0.0003
     82  CE2      -81.7590   16.6440  133.1900 C.ar  164  PHE164     -0.0003
     83  CZ       -80.9210   16.6040  134.2840 C.ar  164  PHE164     -0.0000
     84  N        -81.0790   14.2880  129.2560 N.am  165  ALA165     -0.1980
     85  CA       -82.2310   13.4220  129.4560 C.3   165  ALA165      0.1597
     86  C        -81.8140   11.9590  129.3940 C.2   165  ALA165      0.2287
     87  O        -82.3130   11.1320  130.1570 O.2   165  ALA165     -0.2864
     88  CB       -83.3030   13.7170  128.4240 C.3   165  ALA165      0.0319
     89  N        -79.8650   11.1080  132.5290 N.3   168  PHE168     -0.1227
     90  CA       -80.8030   11.1570  133.6390 C.3   168  PHE168      0.1736
     91  C        -81.6490    9.8920  133.6950 C.2   168  PHE168      0.2595
     92  O        -81.7750    9.2620  134.7470 O.2   168  PHE168     -0.2718
     93  CB       -81.6990   12.3880  133.4940 C.3   168  PHE168      0.0547
     94  CG       -82.7250   12.5290  134.5730 C.ar  168  PHE168     -0.0202
     95  CD1      -82.3820   13.0500  135.8090 C.ar  168  PHE168     -0.0042
     96  CD2      -84.0420   12.1630  134.3450 C.ar  168  PHE168     -0.0042
     97  CE1      -83.3320   13.1920  136.8050 C.ar  168  PHE168     -0.0003
     98  CE2      -84.9970   12.3020  135.3360 C.ar  168  PHE168     -0.0003
     99  CZ       -84.6410   12.8170  136.5680 C.ar  168  PHE168     -0.0000
    100  N        -82.2130    9.5150  132.5530 N.am  169  HIS169     -0.1975
    101  CA       -83.1020    8.3640  132.5010 C.3   169  HIS169      0.1656
    102  C        -82.3530    7.0330  132.3930 C.2   169  HIS169      0.2291
    103  O        -82.9750    5.9760  132.2620 O.2   169  HIS169     -0.2864
    104  CB       -84.1410    8.5190  131.3850 C.3   169  HIS169      0.0771
    105  CG       -85.1950    9.5430  131.6800 C.ar  169  HIS169      0.0820
    106  ND1      -85.9040    9.5630  132.8630 N.ar  169  HIS169     -0.2267
    107  CD2      -85.6720   10.5740  130.9410 C.ar  169  HIS169      0.1154
    108  CE1      -86.7650   10.5650  132.8440 C.ar  169  HIS169      0.1986
    109  NE2      -86.6460   11.1940  131.6880 N.ar  169  HIS169     -0.2212
    110  N        -83.0330    8.4240  137.2080 N.3   173  ALA173     -0.1245
    111  CA       -84.4160    7.9840  137.3140 C.3   173  ALA173      0.1562
    112  C        -84.7870    7.1280  136.1110 C.2   173  ALA173      0.2260
    113  O        -85.2850    7.6390  135.1080 O.2   173  ALA173     -0.2867
    114  CB       -85.3390    9.1830  137.4190 C.3   173  ALA173      0.0290
    115  N        -86.8910    4.4160  134.0550 N.3   175  PRO175     -0.2116
    116  CA       -88.2400    3.8540  133.9340 C.3   175  PRO175      0.1372
    117  C        -88.2930    2.3490  134.1640 C.2   175  PRO175      0.2244
    118  O        -87.3460    1.6330  133.8370 O.2   175  PRO175     -0.2868
    119  CB       -88.6170    4.1840  132.4910 C.3   175  PRO175      0.0268
    120  CG       -87.8720    5.4390  132.2020 C.3   175  PRO175      0.0207
    121  CD       -86.5600    5.2910  132.9170 C.3   175  PRO175      0.0892
    122  N        -93.5940    0.3950  132.7780 N.3   179  TRP179     -0.1241
    123  CA       -93.7680    1.7120  132.1770 C.3   179  TRP179      0.1605
    124  C        -93.6170    1.6540  130.6610 C.2   179  TRP179      0.2264
    125  O        -94.4650    2.1600  129.9280 O.2   179  TRP179     -0.2867
    126  CB       -92.7690    2.7040  132.7800 C.3   179  TRP179      0.0550
    127  CG       -92.9370    4.1190  132.3060 C.ar  179  TRP179      0.0003
    128  CD1      -93.7680    5.0660  132.8300 C.ar  179  TRP179      0.0946
    129  CD2      -92.2400    4.7530  131.2250 C.ar  179  TRP179      0.0152
    130  NE1      -93.6410    6.2460  132.1370 N.ar  179  TRP179     -0.2442
    131  CE2      -92.7070    6.0800  131.1470 C.ar  179  TRP179      0.0810
    132  CE3      -91.2720    4.3260  130.3140 C.ar  179  TRP179      0.0012
    133  CZ2      -92.2350    6.9820  130.1970 C.ar  179  TRP179      0.0191
    134  CZ3      -90.8060    5.2230  129.3720 C.ar  179  TRP179      0.0001
    135  CH2      -91.2900    6.5340  129.3190 C.ar  179  TRP179      0.0015
    136  N        -98.4970    9.5760  121.5320 N.3   190  HIS190     -0.1241
    137  CA       -97.7430    9.8040  120.3040 C.3   190  HIS190      0.1621
    138  C        -98.6490   10.1660  119.1270 C.2   190  HIS190      0.2264
    139  O        -98.2510   10.9140  118.2390 O.2   190  HIS190     -0.2867
    140  CB       -96.8220    8.6200  119.9830 C.3   190  HIS190      0.0745
    141  CG       -95.6170    8.5430  120.8710 C.ar  190  HIS190      0.0817
    142  ND1      -94.7370    7.4830  120.8490 N.ar  190  HIS190     -0.2268
    143  CD2      -95.1520    9.3970  121.8150 C.ar  190  HIS190      0.1154
    144  CE1      -93.7800    7.6890  121.7370 C.ar  190  HIS190      0.1986
    145  NE2      -94.0080    8.8430  122.3380 N.ar  190  HIS190     -0.2212
@<TRIPOS>BOND
     1   139   138    2
     2    45    43    1
     3    41    40    2
     4   138   137    1
     5    39    38    1
     6    39    40    1
     7    39    42    1
     8    43    42    1
     9    43    44    1
    10   140   137    1
    11   140   141    1
    12   137   136    1
    13   142   141   ar
    14   142   144   ar
    15   141   143   ar
    16    50    51    1
    17    50    47    1
    18   144   145   ar
    19   143   145   ar
    20    52    51   ar
    21    52    54   ar
    22    51    53   ar
    23    54    56   ar
    24    53    55   ar
    25    72    71    1
    26    30    29    2
    27    48    47    1
    28    48    49    2
    29    56    55   ar
    30    47    46    1
    31    70    71    1
    32    70    69    1
    33    29    28    1
    34    27    28    1
    35    69    66    1
    36    28    31    1
    37    66    65    1
    38    66    67    1
    39    19    18    2
    40    31    32    1
    41    65    59   am
    42    33    32   ar
    43    33    35   ar
    44    16    17    1
    45    67    68    2
    46    17    18    1
    47    17    20    1
    48    32    34   ar
    49    35    37   ar
    50    57    58    1
    51    22    24   ar
    52    22    21   ar
    53    24    26   ar
    54    63    62    1
    55    61    62    1
    56    61    58    1
    57    59    58    1
    58    59    60    2
    59    34    36   ar
    60    62    64    1
    61    37    36   ar
    62    20    21    1
    63    21    23   ar
    64    26    25   ar
    65    73    74    1
    66    88    85    1
    67    23    25   ar
    68    84    85    1
    69    84    75   am
    70   135   134   ar
    71   135   133   ar
    72   134   132   ar
    73    86    85    1
    74    86    87    2
    75    74    75    1
    76    74    77    1
    77   125   124    2
    78    75    76    2
    79   133   131   ar
    80   132   129   ar
    81    77    78    1
    82   124   123    1
    83   107   105   ar
    84   107   109   ar
    85   131   129   ar
    86   131   130   ar
    87   129   127   ar
    88   104   105    1
    89   104   101    1
    90   105   106   ar
    91   109   108   ar
    92    78    80   ar
    93    78    79   ar
    94    80    82   ar
    95   130   128   ar
    96   123   122    1
    97   123   126    1
    98   120   119    1
    99   120   121    1
   100   103   102    2
   101   127   126    1
   102   127   128   ar
   103   102   101    1
   104   119   116    1
   105   101   100    1
   106    89    90    1
   107   100    91   am
   108    79    81   ar
   109   108   106   ar
   110   121   115    1
   111    82    83   ar
   112    93    90    1
   113    93    94    1
   114    90    91    1
   115    91    92    2
   116   118   117    2
   117   116   115    1
   118   116   117    1
   119    81    83   ar
   120    96    94   ar
   121    96    98   ar
   122    94    95   ar
   123   113   112    2
   124    98    99   ar
   125     6     8    1
   126     6     5    1
   127    95    97   ar
   128   112   111    1
   129     2     1    1
   130     2     5    1
   131     2     3    1
   132    15    13    1
   133     7     5    1
   134    99    97   ar
   135     3     4    2
   136   110   111    1
   137   111   114    1
   138    13    10    1
   139    13    14    1
   140    10     9    1
   141    10    11    1
   142    11    12    2
