@<TRIPOS>MOLECULE
tmp/4xk8N13.pdb
 124 121 0 0 0
SMALL
GASTEIGER

@<TRIPOS>ATOM
      1  N         -2.1640   31.7290  237.0700 N.3    51  TRP51      -0.1241
      2  CA        -1.5910   32.6150  236.0630 C.3    51  TRP51       0.1605
      3  C         -2.6370   33.5830  235.5280 C.2    51  TRP51       0.2264
      4  O         -2.3380   34.7490  235.2760 O.2    51  TRP51      -0.2867
      5  CB        -0.9830   31.8190  234.9070 C.3    51  TRP51       0.0550
      6  CG         0.3970   31.3080  235.1880 C.ar   51  TRP51       0.0003
      7  CD1        0.7960   30.0030  235.2270 C.ar   51  TRP51       0.0946
      8  CD2        1.5630   32.0920  235.4670 C.ar   51  TRP51       0.0152
      9  NE1        2.1360   29.9260  235.5130 N.ar   51  TRP51      -0.2442
     10  CE2        2.6320   31.1950  235.6650 C.ar   51  TRP51       0.0810
     11  CE3        1.8080   33.4650  235.5690 C.ar   51  TRP51       0.0012
     12  CZ2        3.9240   31.6250  235.9620 C.ar   51  TRP51       0.0191
     13  CZ3        3.0910   33.8900  235.8630 C.ar   51  TRP51       0.0001
     14  CH2        4.1330   32.9740  236.0560 C.ar   51  TRP51       0.0015
     15  N         -3.4140   36.2470  238.2860 N.3    54  LEU54      -0.1231
     16  CA        -2.3160   37.2060  238.2620 C.3    54  LEU54       0.1693
     17  C         -2.4310   38.1170  237.0460 C.2    54  LEU54       0.2592
     18  O         -2.1800   39.3200  237.1300 O.2    54  LEU54      -0.2718
     19  CB        -0.9750   36.4800  238.2420 C.3    54  LEU54       0.0284
     20  CG        -0.5420   35.8160  239.5480 C.3    54  LEU54       0.0019
     21  CD1        0.8040   35.1320  239.3740 C.3    54  LEU54       0.0001
     22  CD2       -0.4890   36.8380  240.6700 C.3    54  LEU54       0.0001
     23  N         -2.8110   37.5290  235.9160 N.am   55  GLY55      -0.1957
     24  CA        -2.9660   38.2660  234.6760 C.3    55  GLY55       0.1869
     25  C         -4.1410   39.2240  234.6990 C.2    55  GLY55       0.2309
     26  O         -4.0080   40.3880  234.3280 O.2    55  GLY55      -0.2863
     27  N         -5.7000   40.4880  237.2890 N.3    57  ALA57      -0.1231
     28  CA        -5.3360   41.5830  238.1770 C.3    57  ALA57       0.1694
     29  C         -4.3660   42.5190  237.4580 C.2    57  ALA57       0.2592
     30  O         -4.5030   43.7430  237.5180 O.2    57  ALA57      -0.2718
     31  CB        -4.7150   41.0490  239.4570 C.3    57  ALA57       0.0304
     32  N         -3.4080   41.9240  236.7530 N.am   58  GLY58      -0.1957
     33  CA        -2.3660   42.6640  236.0650 C.3    58  GLY58       0.1869
     34  C         -2.8040   43.5310  234.8990 C.2    58  GLY58       0.2309
     35  O         -2.0600   44.4170  234.4800 O.2    58  GLY58      -0.2863
     36  N         -6.4510   45.9120  237.1540 N.3    61  ILE61      -0.1231
     37  CA        -6.0740   46.8520  238.2090 C.3    61  ILE61       0.1678
     38  C         -5.3000   48.0760  237.6840 C.2    61  ILE61       0.2434
     39  O         -5.6590   49.2070  238.0080 O.2    61  ILE61      -0.2733
     40  CB        -5.3270   46.1710  239.3830 C.3    61  ILE61       0.0265
     41  CG1       -6.1760   45.0420  239.9680 C.3    61  ILE61       0.0019
     42  CG2       -4.9750   47.1890  240.4550 C.3    61  ILE61       0.0020
     43  CD1       -7.5300   45.4920  240.4650 C.3    61  ILE61       0.0001
     44  N         -4.2470   47.8630  236.8650 N.am   62  PRO62      -0.2729
     45  CA        -3.5360   49.0470  236.3680 C.3    62  PRO62       0.1401
     46  C         -4.3720   49.8870  235.4070 C.2    62  PRO62       0.2269
     47  O         -4.2880   51.1130  235.4540 O.2    62  PRO62      -0.2865
     48  CB        -2.3330   48.4500  235.6290 C.3    62  PRO62       0.0296
     49  CG        -2.1610   47.0940  236.2140 C.3    62  PRO62       0.0237
     50  CD        -3.5510   46.6220  236.4810 C.3    62  PRO62       0.0939
     51  N         -2.1840   56.4190  237.9640 N.3    71  LEU71      -0.1245
     52  CA        -1.1180   55.8760  237.1270 C.3    71  LEU71       0.1561
     53  C         -1.2230   56.3610  235.6830 C.2    71  LEU71       0.2260
     54  O         -2.2120   56.9870  235.3000 O.2    71  LEU71      -0.2867
     55  CB        -1.1300   54.3470  237.1670 C.3    71  LEU71       0.0270
     56  CG        -0.8410   53.7060  238.5250 C.3    71  LEU71       0.0019
     57  CD1       -0.8940   52.1920  238.4200 C.3    71  LEU71       0.0001
     58  CD2        0.5070   54.1640  239.0550 C.3    71  LEU71       0.0001
     59  N          0.3420   54.1140  233.0900 N.3    73  THR73      -0.1204
     60  CA         0.8380   52.9520  232.3570 C.3    73  THR73       0.1979
     61  C          0.0620   52.7470  231.0570 C.2    73  THR73       0.2459
     62  O         -1.1570   52.9170  231.0250 O.2    73  THR73      -0.2732
     63  CB         0.7440   51.6680  233.2060 C.3    73  THR73       0.1783
     64  OG1       -0.6330   51.3390  233.4320 O.3    73  THR73      -0.2211
     65  CG2        1.4400   51.8600  234.5440 C.3    73  THR73       0.0376
     66  N          0.7700   52.3790  229.9760 N.am   74  PRO74      -0.2728
     67  CA         0.1260   52.1750  228.6740 C.3    74  PRO74       0.1401
     68  C         -0.7940   50.9580  228.6590 C.2    74  PRO74       0.2269
     69  O         -0.9000   50.2430  229.6580 O.2    74  PRO74      -0.2865
     70  CB         1.3120   51.9470  227.7320 C.3    74  PRO74       0.0296
     71  CG         2.3870   51.4120  228.6070 C.3    74  PRO74       0.0237
     72  CD         2.2180   52.1150  229.9210 C.3    74  PRO74       0.0939
     73  N          1.7040   46.7000  225.7240 N.3    79  ALA79      -0.1231
     74  CA         2.7920   46.8480  226.6860 C.3    79  ALA79       0.1694
     75  C          3.9880   45.9710  226.3300 C.2    79  ALA79       0.2592
     76  O          5.0940   46.1800  226.8290 O.2    79  ALA79      -0.2718
     77  CB         2.3030   46.5380  228.0930 C.3    79  ALA79       0.0304
     78  N          3.7600   44.9850  225.4690 N.am   80  GLY80      -0.1957
     79  CA         4.8080   44.0630  225.0760 C.3    80  GLY80       0.1869
     80  C          5.6220   44.5560  223.8970 C.2    80  GLY80       0.2309
     81  O          6.8370   44.3660  223.8490 O.2    80  GLY80      -0.2863
     82  N          6.6830   47.3000  223.1060 N.3    82  GLN82      -0.1245
     83  CA         7.5500   48.4440  223.3610 C.3    82  GLN82       0.1566
     84  C          8.9480   48.0060  223.7860 C.2    82  GLN82       0.2260
     85  O          9.2080   46.8170  223.9740 O.2    82  GLN82      -0.2867
     86  CB         6.9410   49.3600  224.4220 C.3    82  GLN82       0.0367
     87  CG         6.8220   48.7240  225.7930 C.3    82  GLN82       0.0905
     88  CD         6.1350   49.6310  226.7920 C.2    82  GLN82       0.2608
     89  OE1        5.2780   50.4370  226.4280 O.2    82  GLN82      -0.2717
     90  NE2        6.5130   49.5100  228.0600 N.am   82  GLN82      -0.0878
     91  N         12.5060   48.2460  226.2920 N.3    84  TYR84      -0.1227
     92  CA        12.9060   48.3880  227.6870 C.3    84  TYR84       0.1736
     93  C         14.4130   48.5970  227.7830 C.2    84  TYR84       0.2595
     94  O         15.0690   48.8720  226.7760 O.2    84  TYR84      -0.2718
     95  CB        12.4770   47.1620  228.4950 C.3    84  TYR84       0.0548
     96  CG        10.9770   47.0220  228.6440 C.ar   84  TYR84      -0.0200
     97  CD1       10.2050   46.4810  227.6230 C.ar   84  TYR84      -0.0009
     98  CD2       10.3350   47.4250  229.8070 C.ar   84  TYR84      -0.0009
     99  CE1        8.8360   46.3520  227.7540 C.ar   84  TYR84       0.0417
    100  CE2        8.9660   47.2980  229.9480 C.ar   84  TYR84       0.0417
    101  CZ         8.2220   46.7610  228.9190 C.ar   84  TYR84       0.1957
    102  OH         6.8580   46.6330  229.0540 O.3    84  TYR84      -0.2866
    103  N         14.9600   48.4650  228.9890 N.am   85  PHE85      -0.1976
    104  CA        16.3890   48.6880  229.2060 C.3    85  PHE85       0.1639
    105  C         17.2490   47.7030  228.4150 C.2    85  PHE85       0.2290
    106  O         18.3630   48.0270  228.0050 O.2    85  PHE85      -0.2864
    107  CB        16.7400   48.6620  230.6990 C.3    85  PHE85       0.0560
    108  CG        16.5230   47.3290  231.3610 C.ar   85  PHE85      -0.0200
    109  CD1       15.2800   46.9850  231.8670 C.ar   85  PHE85      -0.0042
    110  CD2       17.5680   46.4290  231.5000 C.ar   85  PHE85      -0.0042
    111  CE1       15.0790   45.7630  232.4850 C.ar   85  PHE85      -0.0003
    112  CE2       17.3740   45.2060  232.1160 C.ar   85  PHE85      -0.0003
    113  CZ        16.1280   44.8730  232.6090 C.ar   85  PHE85      -0.0000
    114  N          6.0930   29.5420  249.9650 N.3   140  PHE140     -0.1241
    115  CA         4.7920   29.5990  249.3040 C.3   140  PHE140      0.1605
    116  C          3.6120   29.6620  250.2760 C.2   140  PHE140      0.2264
    117  O          2.4720   29.8790  249.8630 O.2   140  PHE140     -0.2867
    118  CB         4.6260   28.4180  248.3430 C.3   140  PHE140      0.0534
    119  CG         5.7800   28.2400  247.3980 C.ar  140  PHE140     -0.0203
    120  CD1        5.8990   29.0390  246.2730 C.ar  140  PHE140     -0.0042
    121  CD2        6.7440   27.2760  247.6330 C.ar  140  PHE140     -0.0042
    122  CE1        6.9590   28.8790  245.4000 C.ar  140  PHE140     -0.0003
    123  CE2        7.8050   27.1120  246.7640 C.ar  140  PHE140     -0.0003
    124  CZ         7.9120   27.9150  245.6460 C.ar  140  PHE140     -0.0000
@<TRIPOS>BOND
     1    82    83    1
     2    83    84    1
     3    83    86    1
     4    84    85    2
     5    81    80    2
     6    80    79    1
     7    86    87    1
     8    79    78    1
     9    78    75   am
    10    73    74    1
    11    87    88    1
    12    91    92    1
    13    75    74    1
    14    75    76    2
    15    89    88    2
    16    74    77    1
    17    94    93    2
    18    88    90   am
    19    97    99   ar
    20    97    96   ar
    21    92    93    1
    22    92    95    1
    23    70    71    1
    24    70    67    1
    25    99   101   ar
    26    93   103   am
    27   106   105    2
    28   105   104    1
    29    95    96    1
    30    71    72    1
    31    96    98   ar
    32    68    67    1
    33    68    69    2
    34    67    66    1
    35   101   102    1
    36   101   100   ar
    37   103   104    1
    38   104   107    1
    39    98   100   ar
    40    72    66    1
    41    66    61   am
    42   107   108    1
    43    62    61    2
    44    61    60    1
    45   108   110   ar
    46   108   109   ar
    47   110   112   ar
    48   109   111   ar
    49   112   113   ar
    50    60    59    1
    51    60    63    1
    52   111   113   ar
    53    63    64    1
    54    63    65    1
    55    26    25    2
    56    35    34    2
    57    24    25    1
    58    24    23    1
    59    34    33    1
    60     5     6    1
    61     5     2    1
    62     6     7   ar
    63     6     8   ar
    64     7     9   ar
    65     4     3    2
    66    54    53    2
    67    46    47    2
    68    46    45    1
    69     8    11   ar
    70     8    10   ar
    71     9    10   ar
    72     3     2    1
    73    11    13   ar
    74    48    49    1
    75    48    45    1
    76    10    12   ar
    77    53    52    1
    78    13    14   ar
    79    23    17   am
    80    12    14   ar
    81     2     1    1
    82    33    32    1
    83    49    50    1
    84    45    44    1
    85    50    44    1
    86    32    29   am
    87    44    38   am
    88    17    18    2
    89    17    16    1
    90    52    55    1
    91    52    51    1
    92    36    37    1
    93    55    56    1
    94    27    28    1
    95    29    30    2
    96    29    28    1
    97    38    39    2
    98    38    37    1
    99    28    31    1
   100    37    40    1
   101    19    16    1
   102    19    20    1
   103    16    15    1
   104    57    56    1
   105    56    58    1
   106    21    20    1
   107    40    41    1
   108    40    42    1
   109    20    22    1
   110    41    43    1
   111   122   124   ar
   112   122   120   ar
   113   124   123   ar
   114   120   119   ar
   115   123   121   ar
   116   119   121   ar
   117   119   118    1
   118   118   115    1
   119   115   114    1
   120   115   116    1
   121   117   116    2
