@<TRIPOS>MOLECULE
tmp/4xk8R28.pdb
 115 116 0 0 0
SMALL
GASTEIGER

@<TRIPOS>ATOM
      1  N        -42.1430   -9.3310   71.1650 N.3   350  HIS350     -0.1241
      2  CA       -41.2710   -9.2470   69.9910 C.3   350  HIS350      0.1621
      3  C        -42.0010   -9.0910   68.6610 C.2   350  HIS350      0.2264
      4  O        -41.4550   -8.5220   67.7180 O.2   350  HIS350     -0.2867
      5  CB       -40.3280  -10.4490   69.9200 C.3   350  HIS350      0.0745
      6  CG       -39.2620  -10.4400   70.9680 C.ar  350  HIS350      0.0817
      7  ND1      -38.2310  -11.3540   70.9900 N.ar  350  HIS350     -0.2268
      8  CD2      -39.0630   -9.6220   72.0270 C.ar  350  HIS350      0.1154
      9  CE1      -37.4430  -11.1000   72.0190 C.ar  350  HIS350      0.1986
     10  NE2      -37.9270  -10.0560   72.6650 N.ar  350  HIS350     -0.2212
     11  N        -32.0560    4.7080   79.3520 N.3   461  TRP461     -0.1227
     12  CA       -30.6290    4.4640   79.2360 C.3   461  TRP461      0.1737
     13  C        -30.3960    3.1990   78.4310 C.2   461  TRP461      0.2595
     14  O        -29.5040    3.1530   77.5870 O.2   461  TRP461     -0.2718
     15  CB       -29.9890    4.3360   80.6190 C.3   461  TRP461      0.0564
     16  CG       -28.4920    4.2850   80.5900 C.ar  461  TRP461      0.0003
     17  CD1      -27.6390    5.3440   80.4710 C.ar  461  TRP461      0.0946
     18  CD2      -27.6690    3.1160   80.6790 C.ar  461  TRP461      0.0152
     19  NE1      -26.3370    4.9070   80.4870 N.ar  461  TRP461     -0.2442
     20  CE2      -26.3280    3.5430   80.6120 C.ar  461  TRP461      0.0810
     21  CE3      -27.9360    1.7500   80.8110 C.ar  461  TRP461      0.0012
     22  CZ2      -25.2580    2.6530   80.6710 C.ar  461  TRP461      0.0191
     23  CZ3      -26.8720    0.8700   80.8690 C.ar  461  TRP461      0.0001
     24  CH2      -25.5510    1.3240   80.7990 C.ar  461  TRP461      0.0015
     25  N        -31.2080    2.1760   78.6900 N.am  462  ILE462     -0.1980
     26  CA       -31.1280    0.9400   77.9190 C.3   462  ILE462      0.1595
     27  C        -31.4240    1.2000   76.4420 C.2   462  ILE462      0.2287
     28  O        -30.7110    0.7130   75.5640 O.2   462  ILE462     -0.2864
     29  CB       -32.0730   -0.1470   78.4650 C.3   462  ILE462      0.0276
     30  CG1      -31.6330   -0.5790   79.8650 C.3   462  ILE462      0.0022
     31  CG2      -32.0980   -1.3550   77.5390 C.3   462  ILE462      0.0022
     32  CD1      -32.4190   -1.7470   80.4160 C.3   462  ILE462      0.0001
     33  N        -28.4710    2.9130   74.8960 N.3   465  ALA465     -0.1231
     34  CA       -27.4100    1.9290   74.7380 C.3   465  ALA465      0.1694
     35  C        -27.6890    1.0250   73.5420 C.2   465  ALA465      0.2592
     36  O        -26.7760    0.4200   72.9840 O.2   465  ALA465     -0.2718
     37  CB       -27.2670    1.1050   76.0040 C.3   465  ALA465      0.0304
     38  N        -28.9580    0.9310   73.1620 N.am  466  HIS466     -0.1976
     39  CA       -29.3650    0.1500   72.0020 C.3   466  HIS466      0.1656
     40  C        -29.3100    0.9750   70.7160 C.2   466  HIS466      0.2291
     41  O        -29.4830    0.4440   69.6180 O.2   466  HIS466     -0.2864
     42  CB       -30.7670   -0.4250   72.2140 C.3   466  HIS466      0.0771
     43  CG       -30.8190   -1.5110   73.2420 C.ar  466  HIS466      0.0820
     44  ND1      -31.9900   -2.1380   73.6060 N.ar  466  HIS466     -0.2267
     45  CD2      -29.8410   -2.0840   73.9840 C.ar  466  HIS466      0.1154
     46  CE1      -31.7320   -3.0500   74.5260 C.ar  466  HIS466      0.1986
     47  NE2      -30.4340   -3.0370   74.7740 N.ar  466  HIS466     -0.2212
     48  N        -22.7250    3.4570   74.5210 N.3   476  LEU476     -0.1231
     49  CA       -22.5120    2.2470   73.7280 C.3   476  LEU476      0.1693
     50  C        -22.8200    2.4260   72.2380 C.2   476  LEU476      0.2591
     51  O        -22.0310    3.0170   71.5020 O.2   476  LEU476     -0.2718
     52  CB       -23.3020    1.0760   74.3200 C.3   476  LEU476      0.0284
     53  CG       -22.8770    0.6480   75.7290 C.3   476  LEU476      0.0019
     54  CD1      -23.9300   -0.2280   76.3740 C.3   476  LEU476      0.0001
     55  CD2      -21.5410   -0.0740   75.7010 C.3   476  LEU476      0.0001
     56  N        -23.9710    1.9240   71.8020 N.am  477  LEU477     -0.1980
     57  CA       -24.3600    2.0110   70.3960 C.3   477  LEU477      0.1596
     58  C        -24.7810    3.4160   69.9830 C.2   477  LEU477      0.2287
     59  O        -25.0150    3.6740   68.8030 O.2   477  LEU477     -0.2864
     60  CB       -25.4770    1.0160   70.0730 C.3   477  LEU477      0.0297
     61  CG       -25.1360   -0.4720   70.1750 C.3   477  LEU477      0.0022
     62  CD1      -26.3160   -1.3220   69.7310 C.3   477  LEU477      0.0001
     63  CD2      -23.9020   -0.7990   69.3530 C.3   477  LEU477      0.0001
     64  N        -18.2260   -0.8920   70.9770 N.3   484  ALA484     -0.1245
     65  CA       -19.3860   -1.7340   70.7040 C.3   484  ALA484      0.1562
     66  C        -20.0700   -1.3220   69.4040 C.2   484  ALA484      0.2260
     67  O        -20.6030   -2.1630   68.6800 O.2   484  ALA484     -0.2867
     68  CB       -20.3670   -1.6760   71.8640 C.3   484  ALA484      0.0290
     69  N        -25.0820   -5.3920   60.8880 N.3   492  TRP492     -0.1227
     70  CA       -26.5120   -5.2450   61.1470 C.3   492  TRP492      0.1737
     71  C        -26.8770   -3.8540   61.6560 C.2   492  TRP492      0.2595
     72  O        -28.0280   -3.4340   61.5570 O.2   492  TRP492     -0.2718
     73  CB       -26.9910   -6.3050   62.1410 C.3   492  TRP492      0.0564
     74  CG       -26.2340   -6.3040   63.4320 C.ar  492  TRP492      0.0003
     75  CD1      -26.3540   -5.4080   64.4530 C.ar  492  TRP492      0.0946
     76  CD2      -25.2470   -7.2550   63.8470 C.ar  492  TRP492      0.0152
     77  NE1      -25.4980   -5.7370   65.4760 N.ar  492  TRP492     -0.2442
     78  CE2      -24.8080   -6.8680   65.1290 C.ar  492  TRP492      0.0810
     79  CE3      -24.6900   -8.3940   63.2590 C.ar  492  TRP492      0.0012
     80  CZ2      -23.8370   -7.5790   65.8310 C.ar  492  TRP492      0.0191
     81  CZ3      -23.7270   -9.0970   63.9560 C.ar  492  TRP492      0.0001
     82  CH2      -23.3110   -8.6890   65.2290 C.ar  492  TRP492      0.0015
     83  N        -25.8920   -3.1480   62.2000 N.am  493  LEU493     -0.1980
     84  CA       -26.1150   -1.8260   62.7850 C.3   493  LEU493      0.1596
     85  C        -26.7370   -0.7440   61.8830 C.2   493  LEU493      0.2287
     86  O        -27.4960    0.0820   62.3760 O.2   493  LEU493     -0.2864
     87  CB       -24.8390   -1.3010   63.4510 C.3   493  LEU493      0.0297
     88  CG       -24.4790   -1.9880   64.7690 C.3   493  LEU493      0.0022
     89  CD1      -23.2440   -1.3590   65.3940 C.3   493  LEU493      0.0001
     90  CD2      -25.6610   -1.9320   65.7300 C.3   493  LEU493      0.0001
     91  N        -30.5730   -1.5930   61.7580 N.3   496  TRP496     -0.1241
     92  CA       -31.0570   -1.5300   63.1310 C.3   496  TRP496      0.1605
     93  C        -31.1640   -0.1000   63.6400 C.2   496  TRP496      0.2264
     94  O        -32.1920    0.2920   64.1850 O.2   496  TRP496     -0.2867
     95  CB       -30.1510   -2.3290   64.0600 C.3   496  TRP496      0.0550
     96  CG       -30.5020   -2.1470   65.5010 C.ar  496  TRP496      0.0003
     97  CD1      -29.8750   -1.3390   66.4040 C.ar  496  TRP496      0.0946
     98  CD2      -31.5770   -2.7790   66.2040 C.ar  496  TRP496      0.0152
     99  NE1      -30.4870   -1.4380   67.6290 N.ar  496  TRP496     -0.2442
    100  CE2      -31.5350   -2.3160   67.5330 C.ar  496  TRP496      0.0810
    101  CE3      -32.5700   -3.6940   65.8390 C.ar  496  TRP496      0.0012
    102  CZ2      -32.4480   -2.7370   68.4980 C.ar  496  TRP496      0.0191
    103  CZ3      -33.4740   -4.1110   66.7970 C.ar  496  TRP496      0.0001
    104  CH2      -33.4080   -3.6330   68.1110 C.ar  496  TRP496      0.0015
    105  N        -38.8070   -0.0930   70.0440 N.3   508  PHE508     -0.1241
    106  CA       -38.3450    0.7390   71.1520 C.3   508  PHE508      0.1605
    107  C        -38.9860    2.1250   71.1310 C.2   508  PHE508      0.2264
    108  O        -38.3090    3.1290   70.9170 O.2   508  PHE508     -0.2867
    109  CB       -36.8180    0.8400   71.1700 C.3   508  PHE508      0.0534
    110  CG       -36.1310   -0.4270   71.5970 C.ar  508  PHE508     -0.0203
    111  CD1      -35.9580   -0.7170   72.9400 C.ar  508  PHE508     -0.0042
    112  CD2      -35.6580   -1.3270   70.6570 C.ar  508  PHE508     -0.0042
    113  CE1      -35.3270   -1.8800   73.3340 C.ar  508  PHE508     -0.0003
    114  CE2      -35.0290   -2.4910   71.0470 C.ar  508  PHE508     -0.0003
    115  CZ       -34.8640   -2.7670   72.3860 C.ar  508  PHE508     -0.0000
@<TRIPOS>BOND
     1    69    70    1
     2    70    71    1
     3    70    73    1
     4    72    71    2
     5    71    83   am
     6    91    92    1
     7    85    86    2
     8    85    84    1
     9    73    74    1
    10    83    84    1
    11    84    87    1
    12    92    93    1
    13    92    95    1
    14    79    76   ar
    15    79    81   ar
    16    74    76   ar
    17    74    75   ar
    18    87    88    1
    19    93    94    2
    20    76    78   ar
    21    81    82   ar
    22    95    96    1
    23    75    77   ar
    24    88    89    1
    25    88    90    1
    26    78    77   ar
    27    78    80   ar
    28    82    80   ar
    29    96    98   ar
    30    96    97   ar
    31   101    98   ar
    32   101   103   ar
    33    98   100   ar
    34    97    99   ar
    35   103   104   ar
    36   100    99   ar
    37   100   102   ar
    38     4     3    2
    39   104   102   ar
    40     3     2    1
    41    67    66    2
    42    59    58    2
    43    63    61    1
    44    66    65    1
    45    41    40    2
    46    62    61    1
    47     5     2    1
    48     5     6    1
    49    58    57    1
    50     2     1    1
    51   105   106    1
    52    60    61    1
    53    60    57    1
    54    57    56    1
    55   112   114   ar
    56   112   110   ar
    57    65    64    1
    58    65    68    1
    59    40    39    1
    60   108   107    2
    61     6     7   ar
    62     6     8   ar
    63     7     9   ar
    64   114   115   ar
    65   107   106    1
    66   106   109    1
    67   109   110    1
    68    51    50    2
    69   110   111   ar
    70    56    50   am
    71    39    42    1
    72    39    38    1
    73     9    10   ar
    74     8    10   ar
    75    42    43    1
    76    50    49    1
    77   115   113   ar
    78   111   113   ar
    79    36    35    2
    80    38    35   am
    81    43    44   ar
    82    43    45   ar
    83    35    34    1
    84    44    46   ar
    85    49    52    1
    86    49    48    1
    87    45    47   ar
    88    52    53    1
    89    46    47   ar
    90    34    33    1
    91    34    37    1
    92    28    27    2
    93    55    53    1
    94    53    54    1
    95    27    26    1
    96    31    29    1
    97    14    13    2
    98    26    29    1
    99    26    25    1
   100    13    25   am
   101    13    12    1
   102    29    30    1
   103    12    11    1
   104    12    15    1
   105    30    32    1
   106    17    19   ar
   107    17    16   ar
   108    19    20   ar
   109    16    15    1
   110    16    18   ar
   111    20    22   ar
   112    20    18   ar
   113    22    24   ar
   114    18    21   ar
   115    24    23   ar
   116    21    23   ar
