@<TRIPOS>MOLECULE
tmp/4xk8O14.pdb
 122 117 0 0 0
SMALL
GASTEIGER

@<TRIPOS>ATOM
      1  N        -48.4420   29.2380  223.4260 N.3    54  PHE54      -0.1241
      2  CA       -47.6840   30.3290  222.8200 C.3    54  PHE54       0.1605
      3  C        -48.4750   31.0210  221.7130 C.2    54  PHE54       0.2264
      4  O        -48.4350   32.2460  221.5920 O.2    54  PHE54      -0.2867
      5  CB       -46.3300   29.8420  222.2910 C.3    54  PHE54       0.0534
      6  CG       -45.2270   29.8940  223.3120 C.ar   54  PHE54      -0.0203
      7  CD1      -44.8970   31.0910  223.9310 C.ar   54  PHE54      -0.0042
      8  CD2      -44.5090   28.7550  223.6430 C.ar   54  PHE54      -0.0042
      9  CE1      -43.8830   31.1490  224.8680 C.ar   54  PHE54      -0.0003
     10  CE2      -43.4930   28.8070  224.5790 C.ar   54  PHE54      -0.0003
     11  CZ       -43.1790   30.0060  225.1920 C.ar   54  PHE54      -0.0000
     12  N        -50.9780   33.3200  223.2490 N.3    57  LEU57      -0.1231
     13  CA       -50.3640   34.5880  223.6270 C.3    57  LEU57       0.1693
     14  C        -50.1200   35.4830  222.4040 C.2    57  LEU57       0.2592
     15  O        -50.3800   36.6940  222.4310 O.2    57  LEU57      -0.2718
     16  CB       -49.0510   34.3310  224.3640 C.3    57  LEU57       0.0284
     17  CG       -49.1450   33.7450  225.7740 C.3    57  LEU57       0.0019
     18  CD1      -47.7650   33.3690  226.2880 C.3    57  LEU57       0.0001
     19  CD2      -49.8190   34.7190  226.7290 C.3    57  LEU57       0.0001
     20  N        -49.6450   34.8700  221.3240 N.am   58  GLY58      -0.1957
     21  CA       -49.2580   35.6040  220.1330 C.3    58  GLY58       0.1869
     22  C        -50.4140   36.1080  219.2890 C.2    58  GLY58       0.2309
     23  O        -50.3110   37.1580  218.6570 O.2    58  GLY58      -0.2863
     24  N        -53.1470   37.2350  220.3550 N.3    60  VAL60      -0.1231
     25  CA       -53.5730   38.4750  220.9840 C.3    60  VAL60       0.1692
     26  C        -52.5020   39.5380  220.7940 C.2    60  VAL60       0.2592
     27  O        -52.7960   40.6590  220.3790 O.2    60  VAL60      -0.2718
     28  CB       -53.8530   38.2920  222.4890 C.3    60  VAL60       0.0266
     29  CG1      -54.2120   39.6220  223.1260 C.3    60  VAL60       0.0020
     30  CG2      -54.9650   37.2740  222.7070 C.3    60  VAL60       0.0020
     31  N        -51.2550   39.1770  221.0820 N.am   61  GLY61      -0.1957
     32  CA       -50.1590   40.1260  220.9910 C.3    61  GLY61       0.1869
     33  C        -49.9350   40.7400  219.6180 C.2    61  GLY61       0.2309
     34  O        -49.3710   41.8280  219.5050 O.2    61  GLY61      -0.2863
     35  N        -53.3170   43.3000  219.2850 N.3    64  ALA64      -0.1231
     36  CA       -53.5950   44.2960  220.3220 C.3    64  ALA64       0.1679
     37  C        -53.0840   45.7150  220.0190 C.2    64  ALA64       0.2434
     38  O        -53.8450   46.6730  220.1540 O.2    64  ALA64      -0.2733
     39  CB       -53.1140   43.8120  221.6990 C.3    64  ALA64       0.0304
     40  N        -51.8050   45.8650  219.6160 N.am   65  PRO65      -0.2729
     41  CA       -51.3410   47.2270  219.3180 C.3    65  PRO65       0.1401
     42  C        -52.0710   47.8520  218.1300 C.2    65  PRO65       0.2269
     43  O        -52.2910   49.0620  218.1130 O.2    65  PRO65      -0.2865
     44  CB       -49.8620   47.0240  218.9730 C.3    65  PRO65       0.0296
     45  CG       -49.4860   45.7500  219.6430 C.3    65  PRO65       0.0237
     46  CD       -50.7020   44.8900  219.5240 C.3    65  PRO65       0.0939
     47  N        -55.6950   48.7250  219.7080 N.3    68  LEU68      -0.1245
     48  CA       -55.6060   49.8090  220.6820 C.3    68  LEU68       0.1561
     49  C        -55.1160   51.1090  220.0470 C.2    68  LEU68       0.2260
     50  O        -55.3830   52.2000  220.5550 O.2    68  LEU68      -0.2867
     51  CB       -54.6910   49.4080  221.8420 C.3    68  LEU68       0.0270
     52  CG       -55.1470   48.2120  222.6830 C.3    68  LEU68       0.0019
     53  CD1      -54.1090   47.8620  223.7350 C.3    68  LEU68       0.0001
     54  CD2      -56.4950   48.4890  223.3300 C.3    68  LEU68       0.0001
     55  N        -53.5130   53.9250  223.0680 N.3    74  ILE74      -0.1245
     56  CA       -52.0540   53.9560  223.0090 C.3    74  ILE74       0.1561
     57  C        -51.5810   54.9000  221.9010 C.2    74  ILE74       0.2260
     58  O        -52.2930   55.1070  220.9160 O.2    74  ILE74      -0.2867
     59  CB       -51.4640   52.5440  222.7720 C.3    74  ILE74       0.0252
     60  CG1      -52.0090   51.9390  221.4770 C.3    74  ILE74       0.0019
     61  CG2      -51.7450   51.6360  223.9620 C.3    74  ILE74       0.0019
     62  CD1      -51.3440   50.6360  221.0890 C.3    74  ILE74       0.0001
     63  N        -46.4770   53.4670  218.7980 N.3    78  THR78      -0.1218
     64  CA       -46.4970   52.0690  219.2130 C.3    78  THR78       0.1862
     65  C        -47.7200   51.3510  218.6490 C.2    78  THR78       0.2287
     66  O        -48.0200   50.2220  219.0330 O.2    78  THR78      -0.2866
     67  CB       -46.4960   51.9280  220.7480 C.3    78  THR78       0.1770
     68  OG1      -47.7220   52.4430  221.2820 O.3    78  THR78      -0.2211
     69  CG2      -45.3230   52.6830  221.3550 C.3    78  THR78       0.0375
     70  N        -48.1240   50.0130  215.8470 N.3    80  LEU80      -0.1245
     71  CA       -47.5870   49.3690  214.6560 C.3    80  LEU80       0.1561
     72  C        -48.2140   48.0000  214.4160 C.2    80  LEU80       0.2260
     73  O        -48.7250   47.3700  215.3420 O.2    80  LEU80      -0.2867
     74  CB       -46.0680   49.2240  214.7790 C.3    80  LEU80       0.0270
     75  CG       -45.2700   50.5100  214.9980 C.3    80  LEU80       0.0019
     76  CD1      -43.8110   50.1930  215.2900 C.3    80  LEU80       0.0001
     77  CD2      -45.3910   51.4300  213.7930 C.3    80  LEU80       0.0001
     78  N        -42.9740   45.8510  213.9270 N.3    85  THR85      -0.1218
     79  CA       -42.3890   46.0950  215.2410 C.3    85  THR85       0.1862
     80  C        -40.8710   45.9480  215.2500 C.2    85  THR85       0.2287
     81  O        -40.2090   46.3450  216.2090 O.2    85  THR85      -0.2866
     82  CB       -42.9760   45.1430  216.2930 C.3    85  THR85       0.1770
     83  OG1      -42.5920   43.7970  215.9850 O.3    85  THR85      -0.2211
     84  CG2      -44.4930   45.2430  216.3070 C.3    85  THR85       0.0375
     85  N        -38.5410   49.6040  214.7400 N.3    94  TYR94      -0.1241
     86  CA       -38.8690   50.5500  215.7970 C.3    94  TYR94       0.1605
     87  C        -37.7130   50.6380  216.7830 C.2    94  TYR94       0.2264
     88  O        -37.1290   49.6210  217.1580 O.2    94  TYR94      -0.2867
     89  CB       -40.1530   50.1440  216.5240 C.3    94  TYR94       0.0534
     90  CG       -40.5920   51.1370  217.5790 C.ar   94  TYR94      -0.0201
     91  CD1      -41.4460   52.1860  217.2620 C.ar   94  TYR94      -0.0009
     92  CD2      -40.1460   51.0300  218.8900 C.ar   94  TYR94      -0.0009
     93  CE1      -41.8460   53.0980  218.2240 C.ar   94  TYR94       0.0417
     94  CE2      -40.5380   51.9360  219.8570 C.ar   94  TYR94       0.0417
     95  CZ       -41.3880   52.9670  219.5190 C.ar   94  TYR94       0.1957
     96  OH       -41.7790   53.8690  220.4820 O.3    94  TYR94      -0.2866
     97  N        -36.3650   50.7500  220.1290 N.3    96  TYR96      -0.1227
     98  CA       -36.6350   50.4890  221.5370 C.3    96  TYR96       0.1736
     99  C        -35.4600   50.9240  222.4060 C.2    96  TYR96       0.2595
    100  O        -34.5310   51.5780  221.9310 O.2    96  TYR96      -0.2718
    101  CB       -36.9280   49.0050  221.7680 C.3    96  TYR96       0.0548
    102  CG       -38.0710   48.4620  220.9420 C.ar   96  TYR96      -0.0200
    103  CD1      -39.3890   48.6400  221.3410 C.ar   96  TYR96      -0.0009
    104  CD2      -37.8320   47.7570  219.7700 C.ar   96  TYR96      -0.0009
    105  CE1      -40.4360   48.1380  220.5940 C.ar   96  TYR96       0.0417
    106  CE2      -38.8730   47.2530  219.0150 C.ar   96  TYR96       0.0417
    107  CZ       -40.1720   47.4480  219.4310 C.ar   96  TYR96       0.1957
    108  OH       -41.2110   46.9470  218.6810 O.3    96  TYR96      -0.2866
    109  N        -35.5100   50.5550  223.6820 N.am   97  TRP97      -0.1976
    110  CA       -34.4660   50.9180  224.6340 C.3    97  TRP97       0.1640
    111  C        -33.1420   50.2360  224.3090 C.2    97  TRP97       0.2290
    112  O        -32.0760   50.7060  224.7080 O.2    97  TRP97      -0.2864
    113  CB       -34.8990   50.5700  226.0610 C.3    97  TRP97       0.0576
    114  CG       -34.9840   49.0950  226.3330 C.ar   97  TRP97       0.0006
    115  CD1      -36.0690   48.2880  226.1480 C.ar   97  TRP97       0.0946
    116  CD2      -33.9460   48.2560  226.8560 C.ar   97  TRP97       0.0152
    117  NE1      -35.7690   46.9990  226.5150 N.ar   97  TRP97      -0.2442
    118  CE2      -34.4720   46.9520  226.9540 C.ar   97  TRP97       0.0810
    119  CE3      -32.6220   48.4800  227.2480 C.ar   97  TRP97       0.0012
    120  CZ2      -33.7210   45.8780  227.4280 C.ar   97  TRP97       0.0191
    121  CZ3      -31.8780   47.4110  227.7180 C.ar   97  TRP97       0.0001
    122  CH2      -32.4300   46.1270  227.8040 C.ar   97  TRP97       0.0015
@<TRIPOS>BOND
     1    77    75    1
     2    78    79    1
     3    72    71    1
     4    72    73    2
     5    71    74    1
     6    71    70    1
     7    85    86    1
     8    74    75    1
     9    75    76    1
    10    79    80    1
    11    79    82    1
    12    80    81    2
    13    86    89    1
    14    86    87    1
    15    83    82    1
    16    82    84    1
    17    89    90    1
    18    87    88    2
    19    91    90   ar
    20    91    93   ar
    21    90    92   ar
    22    43    42    2
    23    42    41    1
    24    93    95   ar
    25    65    66    2
    26    65    64    1
    27    23    22    2
    28   108   107    1
    29    63    64    1
    30    92    94   ar
    31    44    41    1
    32    44    45    1
    33   106   107   ar
    34   106   104   ar
    35    64    67    1
    36    35    36    1
    37    22    21    1
    38    41    40    1
    39   107   105   ar
    40    34    33    2
    41    95    94   ar
    42    95    96    1
    43    46    40    1
    44    46    45    1
    45    40    37   am
    46    33    32    1
    47    47    48    1
    48   104   102   ar
    49    37    38    2
    50    37    36    1
    51    49    50    2
    52    49    48    1
    53    97    98    1
    54    21    20    1
    55    36    39    1
    56    24    25    1
    57    27    26    2
    58   105   103   ar
    59    48    51    1
    60    67    68    1
    61    67    69    1
    62    26    25    1
    63    26    31   am
    64    58    57    2
    65   102   103   ar
    66   102   101    1
    67    25    28    1
    68    32    31    1
    69    62    60    1
    70    20    14   am
    71    60    59    1
    72    98   101    1
    73    98    99    1
    74     4     3    2
    75     3     2    1
    76    51    52    1
    77    57    56    1
    78   100    99    2
    79     5     2    1
    80     5     6    1
    81    14    15    2
    82    14    13    1
    83    99   109   am
    84    28    30    1
    85    28    29    1
    86    52    54    1
    87    52    53    1
    88    59    56    1
    89    59    61    1
    90     2     1    1
    91    56    55    1
    92    12    13    1
    93     6     8   ar
    94     6     7   ar
    95    13    16    1
    96     8    10   ar
    97   109   110    1
    98     7     9   ar
    99   111   110    1
   100   111   112    2
   101    16    17    1
   102    10    11   ar
   103   110   113    1
   104     9    11   ar
   105    17    18    1
   106    17    19    1
   107   113   114    1
   108   115   114   ar
   109   115   117   ar
   110   114   116   ar
   111   117   118   ar
   112   116   118   ar
   113   116   119   ar
   114   118   120   ar
   115   119   121   ar
   116   120   122   ar
   117   121   122   ar
