@<TRIPOS>MOLECULE
tmp/4xk8P10.pdb
 109 105 0 0 0
SMALL
GASTEIGER

@<TRIPOS>ATOM
      1  N         21.0610   13.9430  238.8840 N.3     3  TRP3       -0.1241
      2  CA        21.1550   15.0030  237.8880 C.3     3  TRP3        0.1605
      3  C         19.7760   15.5970  237.6160 C.2     3  TRP3        0.2264
      4  O         19.6530   16.7560  237.2210 O.2     3  TRP3       -0.2867
      5  CB        21.7640   14.4760  236.5870 C.3     3  TRP3        0.0550
      6  CG        20.8150   13.6520  235.7750 C.ar    3  TRP3        0.0003
      7  CD1       20.5710   12.3150  235.9010 C.ar    3  TRP3        0.0946
      8  CD2       19.9810   14.1150  234.7060 C.ar    3  TRP3        0.0152
      9  NE1       19.6340   11.9160  234.9770 N.ar    3  TRP3       -0.2442
     10  CE2       19.2560   13.0020  234.2320 C.ar    3  TRP3        0.0810
     11  CE3       19.7750   15.3610  234.1060 C.ar    3  TRP3        0.0012
     12  CZ2       18.3410   13.0990  233.1840 C.ar    3  TRP3        0.0191
     13  CZ3       18.8660   15.4560  233.0660 C.ar    3  TRP3        0.0001
     14  CH2       18.1610   14.3310  232.6160 C.ar    3  TRP3        0.0015
     15  N         31.5080    9.7960  240.0160 N.3    19  GLY19      -0.1210
     16  CA        30.7860   10.6690  239.1090 C.3    19  GLY19       0.1956
     17  C         29.4100   10.1530  238.7330 C.2    19  GLY19       0.2612
     18  O         28.7510   10.7090  237.8550 O.2    19  GLY19      -0.2717
     19  N         28.9710    9.0940  239.4040 N.am   20  ASP20      -0.1959
     20  CA        27.6640    8.5080  239.1320 C.3    20  ASP20       0.1840
     21  C         26.5540    9.4120  239.6560 C.2    20  ASP20       0.2622
     22  O         26.2680    9.4310  240.8540 O.2    20  ASP20      -0.2715
     23  CB        27.5600    7.1170  239.7660 C.3    20  ASP20       0.1450
     24  CG        26.3790    6.3120  239.2410 C.2    20  ASP20       0.3671
     25  OD1       25.2850    6.8830  239.0530 O.co2  20  ASP20      -0.2456
     26  OD2       26.5470    5.0950  239.0170 O.co2  20  ASP20      -0.2456
     27  N         25.9350   10.1620  238.7510 N.am   21  ASN21      -0.1972
     28  CA        24.7730   10.9740  239.0930 C.3    21  ASN21       0.1688
     29  C         23.5390   10.4950  238.3400 C.2    21  ASN21       0.2292
     30  O         22.5400   11.2080  238.2380 O.2    21  ASN21      -0.2864
     31  CB        25.0360   12.4550  238.8220 C.3    21  ASN21       0.1181
     32  CG        26.1100   13.0280  239.7250 C.2    21  ASN21       0.2629
     33  OD1       25.8360   13.4240  240.8580 O.2    21  ASN21      -0.2716
     34  ND2       27.3400   13.0790  239.2270 N.am   21  ASN21      -0.0877
     35  N         23.1380    9.9240  235.1560 N.3    23  PHE23      -0.1241
     36  CA        22.8750   10.6220  233.9020 C.3    23  PHE23       0.1605
     37  C         23.3040    9.8230  232.6780 C.2    23  PHE23       0.2264
     38  O         24.4640    9.8590  232.2700 O.2    23  PHE23      -0.2867
     39  CB        23.5300   12.0040  233.8880 C.3    23  PHE23       0.0534
     40  CG        23.3370   12.7510  232.5980 C.ar   23  PHE23      -0.0203
     41  CD1       22.0800   13.1940  232.2220 C.ar   23  PHE23      -0.0042
     42  CD2       24.4120   13.0190  231.7670 C.ar   23  PHE23      -0.0042
     43  CE1       21.8970   13.8830  231.0360 C.ar   23  PHE23      -0.0003
     44  CE2       24.2360   13.7100  230.5800 C.ar   23  PHE23      -0.0003
     45  CZ        22.9770   14.1410  230.2150 C.ar   23  PHE23      -0.0000
     46  N         20.4760    9.2410  229.8180 N.3    25  PRO25      -0.2102
     47  CA        19.0900    9.1420  229.3500 C.3    25  PRO25       0.1504
     48  C         18.9450    8.3860  228.0330 C.2    25  PRO25       0.2575
     49  O         17.8630    7.8750  227.7450 O.2    25  PRO25      -0.2718
     50  CB        18.6860   10.6050  229.1580 C.3    25  PRO25       0.0282
     51  CG        19.9680   11.3090  228.8850 C.3    25  PRO25       0.0208
     52  CD        20.9840   10.6220  229.7400 C.3    25  PRO25       0.0893
     53  N         20.0160    8.3090  227.2510 N.am   26  LEU26      -0.1980
     54  CA        19.9540    7.6460  225.9530 C.3    26  LEU26       0.1596
     55  C         20.3890    6.1840  226.0360 C.2    26  LEU26       0.2287
     56  O         20.2930    5.4420  225.0560 O.2    26  LEU26      -0.2864
     57  CB        20.8010    8.3990  224.9230 C.3    26  LEU26       0.0297
     58  CG        20.4210    9.8580  224.6570 C.3    26  LEU26       0.0022
     59  CD1       21.2720   10.4370  223.5380 C.3    26  LEU26       0.0001
     60  CD2       18.9400    9.9900  224.3340 C.3    26  LEU26       0.0001
     61  N         36.3140   11.7710  241.7810 N.3   149  GLU149     -0.1245
     62  CA        35.0910   12.4460  241.3570 C.3   149  GLU149      0.1567
     63  C         35.3010   13.9530  241.1830 C.2   149  GLU149      0.2260
     64  O         34.5890   14.6040  240.4110 O.2   149  GLU149     -0.2867
     65  CB        33.9200   12.1360  242.2980 C.3   149  GLU149      0.0388
     66  CG        34.1620   12.4610  243.7550 C.3   149  GLU149      0.1160
     67  CD        33.0620   11.9310  244.6560 C.2   149  GLU149      0.3649
     68  OE1       32.9970   12.3490  245.8300 O.co2 149  GLU149     -0.2457
     69  OE2       32.2650   11.0880  244.1900 O.co2 149  GLU149     -0.2457
     70  N         36.8770   14.0480  237.6720 N.3   152  ILE152     -0.1231
     71  CA        35.8240   13.8840  236.6800 C.3   152  ILE152      0.1692
     72  C         34.9540   15.1390  236.5860 C.2   152  ILE152      0.2591
     73  O         34.5460   15.5400  235.4940 O.2   152  ILE152     -0.2718
     74  CB        34.9630   12.6410  236.9910 C.3   152  ILE152      0.0266
     75  CG1       35.8530   11.3980  237.0810 C.3   152  ILE152      0.0019
     76  CG2       33.8850   12.4500  235.9400 C.3   152  ILE152      0.0020
     77  CD1       35.0990   10.1170  237.3370 C.3   152  ILE152      0.0001
     78  N         34.6900   15.7680  237.7300 N.am  153  ALA153     -0.1980
     79  CA        33.9100   17.0040  237.7560 C.3   153  ALA153      0.1597
     80  C         34.5970   18.1390  236.9890 C.2   153  ALA153      0.2287
     81  O         34.0220   18.7050  236.0470 O.2   153  ALA153     -0.2864
     82  CB        33.6250   17.4220  239.1890 C.3   153  ALA153      0.0319
     83  N         34.5720   17.4080  233.2590 N.3   156  ARG156     -0.1231
     84  CA        33.3160   17.6970  232.5680 C.3   156  ARG156      0.1694
     85  C         33.1200   19.2030  232.3740 C.2   156  ARG156      0.2591
     86  O         32.7520   19.6700  231.2800 O.2   156  ARG156     -0.2718
     87  CB        32.1390   17.1020  233.3420 C.3   156  ARG156      0.0321
     88  CG        32.1400   15.5840  233.3950 C.3   156  ARG156      0.0489
     89  CD        31.2040   15.0660  234.4760 C.3   156  ARG156      0.2205
     90  NE        31.1320   13.6080  234.4840 N.pl3 156  ARG156     -0.0865
     91  CZ        30.4710   12.8940  235.3890 C.cat 156  ARG156      0.5346
     92  NH1       29.8180   13.5020  236.3700 N.pl3 156  ARG156      0.1354
     93  NH2       30.4630   11.5710  235.3150 N.pl3 156  ARG156      0.1354
     94  N         33.3790   19.9530  233.4430 N.am  157  LEU157     -0.1980
     95  CA        33.3130   21.4090  233.3930 C.3   157  LEU157      0.1596
     96  C         34.2390   21.9590  232.3080 C.2   157  LEU157      0.2287
     97  O         33.8610   22.8580  231.5530 O.2   157  LEU157     -0.2864
     98  CB        33.6950   22.0010  234.7510 C.3   157  LEU157      0.0297
     99  CG        32.8370   23.1530  235.2810 C.3   157  LEU157      0.0022
    100  CD1       33.4860   23.7760  236.5090 C.3   157  LEU157      0.0001
    101  CD2       32.5770   24.2060  234.2150 C.3   157  LEU157      0.0001
    102  N         32.8610   21.1200  228.6690 N.3   160  LEU160     -0.1245
    103  CA        31.8190   22.0870  228.3300 C.3   160  LEU160      0.1561
    104  C         32.4310   23.4550  228.0580 C.2   160  LEU160      0.2260
    105  O         31.9890   24.1810  227.1670 O.2   160  LEU160     -0.2867
    106  CB        30.7870   22.1940  229.4490 C.3   160  LEU160      0.0270
    107  CG        29.8520   21.0040  229.6430 C.3   160  LEU160      0.0019
    108  CD1       28.8080   21.3380  230.6940 C.3   160  LEU160      0.0001
    109  CD2       29.1960   20.6160  228.3260 C.3   160  LEU160      0.0001
@<TRIPOS>BOND
     1    59    58    1
     2    60    58    1
     3    58    57    1
     4    57    54    1
     5    56    55    2
     6    54    55    1
     7    54    53    1
     8   105   104    2
     9    53    48   am
    10    49    48    2
    11    48    47    1
    12   104   103    1
    13   109   107    1
    14   103   102    1
    15   103   106    1
    16    51    50    1
    17    51    52    1
    18    50    47    1
    19    47    46    1
    20   106   107    1
    21   107   108    1
    22    52    46    1
    23    45    44   ar
    24    45    43   ar
    25    44    42   ar
    26    43    41   ar
    27    86    85    2
    28    97    96    2
    29    42    40   ar
    30    41    40   ar
    31    38    37    2
    32    96    95    1
    33    85    84    1
    34    85    94   am
    35    84    83    1
    36    84    87    1
    37    40    39    1
    38    14    13   ar
    39    14    12   ar
    40    37    36    1
    41    13    11   ar
    42    12    10   ar
    43    87    88    1
    44    95    94    1
    45    95    98    1
    46    88    89    1
    47    39    36    1
    48    36    35    1
    49    11     8   ar
    50   101    99    1
    51    10     8   ar
    52    10     9   ar
    53    89    90    1
    54    90    91    2
    55     8     6   ar
    56    98    99    1
    57     9     7   ar
    58    99   100    1
    59    93    91    1
    60    91    92    1
    61    73    72    2
    62     6     7   ar
    63     6     5    1
    64    76    74    1
    65    81    80    2
    66    72    71    1
    67    72    78   am
    68     5     2    1
    69    71    74    1
    70    71    70    1
    71    80    79    1
    72    74    75    1
    73    75    77    1
    74     4     3    2
    75     3     2    1
    76    78    79    1
    77    79    82    1
    78    18    17    2
    79     2     1    1
    80    30    29    2
    81    29    28    1
    82    17    16    1
    83    17    19   am
    84    27    28    1
    85    27    21   am
    86    31    28    1
    87    31    32    1
    88    26    24   ar
    89    25    24   ar
    90    16    15    1
    91    20    19    1
    92    20    21    1
    93    20    23    1
    94    34    32   am
    95    24    23    1
    96    21    22    2
    97    32    33    2
    98    64    63    2
    99    63    62    1
   100    62    61    1
   101    62    65    1
   102    65    66    1
   103    66    67    1
   104    69    67   ar
   105    67    68   ar
