@<TRIPOS>MOLECULE
tmp/4xkcA00.pdb
 146 148 0 0 0
SMALL
GASTEIGER

@<TRIPOS>ATOM
      1  N          3.5240  -10.9410   21.5270 N.3   105  ARG105     -0.1245
      2  CA         3.8430  -11.9670   22.5150 C.3   105  ARG105      0.1563
      3  C          4.5170  -11.3490   23.7390 C.2   105  ARG105      0.2260
      4  O          4.1800  -11.6670   24.8800 O.2   105  ARG105     -0.2867
      5  CB         4.7510  -13.0280   21.8890 C.3   105  ARG105      0.0307
      6  CG         4.9330  -14.2870   22.7210 C.3   105  ARG105      0.0489
      7  CD         5.5370  -15.4130   21.8870 C.3   105  ARG105      0.2205
      8  NE         4.6870  -15.7690   20.7530 N.pl3 105  ARG105     -0.0865
      9  CZ         4.9060  -15.3840   19.4980 C.cat 105  ARG105      0.5346
     10  NH1        5.9590  -14.6330   19.2030 N.pl3 105  ARG105      0.1354
     11  NH2        4.0710  -15.7520   18.5370 N.pl3 105  ARG105      0.1354
     12  N          8.4920  -15.5790   30.7900 N.3   120  GLN120     -0.1231
     13  CA         8.2800  -15.3960   29.3510 C.3   120  GLN120      0.1698
     14  C          7.2120  -16.3040   28.7420 C.2   120  GLN120      0.2592
     15  O          7.2610  -16.6240   27.5550 O.2   120  GLN120     -0.2718
     16  CB         9.5960  -15.4840   28.5700 C.3   120  GLN120      0.0381
     17  CG        10.4310  -14.2150   28.6360 C.3   120  GLN120      0.0905
     18  CD         9.7670  -13.0400   27.9360 C.2   120  GLN120      0.2608
     19  OE1        9.4620  -13.1040   26.7440 O.2   120  GLN120     -0.2717
     20  NE2        9.5360  -11.9610   28.6770 N.am  120  GLN120     -0.0878
     21  N          6.2520  -16.7150   29.5630 N.am  121  TRP121     -0.1976
     22  CA         5.0240  -17.3280   29.0620 C.3   121  TRP121      0.1640
     23  C          3.8810  -17.1080   30.0450 C.2   121  TRP121      0.2290
     24  O          4.1060  -16.6990   31.1870 O.2   121  TRP121     -0.2864
     25  CB         5.2090  -18.8130   28.7260 C.3   121  TRP121      0.0576
     26  CG         5.9450  -19.6080   29.7560 C.ar  121  TRP121      0.0006
     27  CD1        7.2980  -19.7430   29.8730 C.ar  121  TRP121      0.0946
     28  CD2        5.3710  -20.4050   30.7980 C.ar  121  TRP121      0.0152
     29  NE1        7.6040  -20.5610   30.9350 N.ar  121  TRP121     -0.2442
     30  CE2        6.4380  -20.9820   31.5180 C.ar  121  TRP121      0.0810
     31  CE3        4.0590  -20.6820   31.1960 C.ar  121  TRP121      0.0012
     32  CZ2        6.2340  -21.8210   32.6120 C.ar  121  TRP121      0.0191
     33  CZ3        3.8590  -21.5150   32.2810 C.ar  121  TRP121      0.0001
     34  CH2        4.9400  -22.0730   32.9780 C.ar  121  TRP121      0.0015
     35  N         -2.3040  -23.5880   11.4590 N.3   175  TRP175     -0.1241
     36  CA        -1.3670  -23.9670   12.5170 C.3   175  TRP175      0.1605
     37  C         -1.1080  -25.4730   12.5130 C.2   175  TRP175      0.2264
     38  O         -0.2010  -25.9650   13.1870 O.2   175  TRP175     -0.2867
     39  CB        -1.8580  -23.4960   13.8860 C.3   175  TRP175      0.0550
     40  CG        -1.9140  -22.0020   14.0130 C.ar  175  TRP175      0.0003
     41  CD1       -1.6200  -21.0860   13.0460 C.ar  175  TRP175      0.0946
     42  CD2       -2.2860  -21.2540   15.1750 C.ar  175  TRP175      0.0152
     43  NE1       -1.7920  -19.8130   13.5320 N.ar  175  TRP175     -0.2442
     44  CE2       -2.1990  -19.8880   14.8370 C.ar  175  TRP175      0.0810
     45  CE3       -2.6880  -21.6050   16.4670 C.ar  175  TRP175      0.0012
     46  CZ2       -2.4970  -18.8750   15.7460 C.ar  175  TRP175      0.0191
     47  CZ3       -2.9840  -20.5970   17.3660 C.ar  175  TRP175      0.0001
     48  CH2       -2.8860  -19.2490   17.0010 C.ar  175  TRP175      0.0015
     49  N          2.0330  -30.3390   13.0390 N.3   181  TRP181     -0.1227
     50  CA         1.9640  -28.9480   13.4670 C.3   181  TRP181      0.1737
     51  C          2.8640  -28.0820   12.6000 C.2   181  TRP181      0.2596
     52  O          3.9530  -28.5000   12.2070 O.2   181  TRP181     -0.2718
     53  CB         2.3810  -28.8140   14.9320 C.3   181  TRP181      0.0564
     54  CG         1.3710  -29.3370   15.9000 C.ar  181  TRP181      0.0003
     55  CD1        1.2930  -30.6020   16.4010 C.ar  181  TRP181      0.0946
     56  CD2        0.2930  -28.6030   16.4930 C.ar  181  TRP181      0.0152
     57  NE1        0.2330  -30.7040   17.2700 N.ar  181  TRP181     -0.2442
     58  CE2       -0.3980  -29.4890   17.3430 C.ar  181  TRP181      0.0810
     59  CE3       -0.1540  -27.2810   16.3890 C.ar  181  TRP181      0.0012
     60  CZ2       -1.5130  -29.1000   18.0820 C.ar  181  TRP181      0.0191
     61  CZ3       -1.2630  -26.8970   17.1210 C.ar  181  TRP181      0.0001
     62  CH2       -1.9290  -27.8030   17.9570 C.ar  181  TRP181      0.0015
     63  N          2.4020  -26.8740   12.2990 N.am  182  THR182     -0.1953
     64  CA         3.2140  -25.9150   11.5700 C.3   182  THR182      0.1897
     65  C          4.4200  -25.5480   12.4300 C.2   182  THR182      0.2313
     66  O          4.2750  -25.2300   13.6100 O.2   182  THR182     -0.2863
     67  CB         2.4050  -24.6540   11.2230 C.3   182  THR182      0.1794
     68  OG1        1.2590  -25.0250   10.4480 O.3   182  THR182     -0.2208
     69  CG2        3.2490  -23.6760   10.4290 C.3   182  THR182      0.0378
     70  N          7.4320  -23.4750   13.9280 N.3   184  TRP184     -0.1241
     71  CA         7.8590  -22.1040   14.1640 C.3   184  TRP184      0.1605
     72  C          9.3770  -22.0070   14.0340 C.2   184  TRP184      0.2264
     73  O         10.0970  -22.8740   14.5300 O.2   184  TRP184     -0.2867
     74  CB         7.4150  -21.6440   15.5530 C.3   184  TRP184      0.0550
     75  CG         7.7800  -20.2250   15.8520 C.ar  184  TRP184      0.0003
     76  CD1        7.0600  -19.1100   15.5380 C.ar  184  TRP184      0.0946
     77  CD2        8.9630  -19.7650   16.5170 C.ar  184  TRP184      0.0152
     78  NE1        7.7190  -17.9850   15.9680 N.ar  184  TRP184     -0.2442
     79  CE2        8.8890  -18.3590   16.5720 C.ar  184  TRP184      0.0810
     80  CE3       10.0750  -20.4070   17.0710 C.ar  184  TRP184      0.0012
     81  CZ2        9.8860  -17.5820   17.1600 C.ar  184  TRP184      0.0191
     82  CZ3       11.0650  -19.6330   17.6560 C.ar  184  TRP184      0.0001
     83  CH2       10.9630  -18.2360   17.6960 C.ar  184  TRP184      0.0015
     84  N          5.4610  -20.8350    9.1940 N.3   188  PHE188     -0.1241
     85  CA         4.3460  -19.8940    9.1750 C.3   188  PHE188      0.1605
     86  C          4.4570  -18.8830    8.0400 C.2   188  PHE188      0.2264
     87  O          5.5420  -18.6440    7.5090 O.2   188  PHE188     -0.2867
     88  CB         4.2090  -19.1880   10.5260 C.3   188  PHE188      0.0534
     89  CG         3.7990  -20.1050   11.6410 C.ar  188  PHE188     -0.0203
     90  CD1        2.4650  -20.4140   11.8430 C.ar  188  PHE188     -0.0042
     91  CD2        4.7470  -20.6730   12.4730 C.ar  188  PHE188     -0.0042
     92  CE1        2.0820  -21.2660   12.8630 C.ar  188  PHE188     -0.0003
     93  CE2        4.3720  -21.5240   13.4940 C.ar  188  PHE188     -0.0003
     94  CZ         3.0380  -21.8220   13.6880 C.ar  188  PHE188     -0.0000
     95  N          0.2450  -15.5280   16.5840 N.3   201  LEU201     -0.1231
     96  CA         0.4420  -16.9150   16.9870 C.3   201  LEU201      0.1693
     97  C          0.2490  -17.1240   18.4850 C.2   201  LEU201      0.2592
     98  O          0.5860  -16.2590   19.2950 O.2   201  LEU201     -0.2718
     99  CB         1.8340  -17.3980   16.5770 C.3   201  LEU201      0.0284
    100  CG         2.1530  -17.3650   15.0830 C.3   201  LEU201      0.0019
    101  CD1        3.5110  -18.0040   14.8180 C.3   201  LEU201      0.0001
    102  CD2        1.0650  -18.0660   14.2920 C.3   201  LEU201      0.0001
    103  N         -0.2990  -18.2830   18.8380 N.am  202  LEU202     -0.1966
    104  CA        -0.4250  -18.7020   20.2270 C.3   202  LEU202      0.1728
    105  C          0.2090  -20.0770   20.3650 C.2   202  LEU202      0.2616
    106  O         -0.3930  -21.0800   19.9770 O.2   202  LEU202     -0.2715
    107  CB        -1.8970  -18.7650   20.6400 C.3   202  LEU202      0.0311
    108  CG        -2.6620  -17.4420   20.6880 C.3   202  LEU202      0.0022
    109  CD1       -4.1560  -17.6900   20.8610 C.3   202  LEU202      0.0001
    110  CD2       -2.1290  -16.5570   21.8070 C.3   202  LEU202      0.0001
    111  N          1.4260  -20.1180   20.9040 N.am  203  ASN203     -0.1958
    112  CA         2.1760  -21.3670   21.0480 C.3   203  ASN203      0.1819
    113  C          1.3770  -22.4300   21.7940 C.2   203  ASN203      0.2621
    114  O          0.8090  -22.1650   22.8560 O.2   203  ASN203     -0.2715
    115  CB         3.5110  -21.1070   21.7530 C.3   203  ASN203      0.1195
    116  CG         4.4720  -22.2930   21.6740 C.2   203  ASN203      0.2630
    117  OD1        4.2970  -23.2210   20.8730 O.2   203  ASN203     -0.2716
    118  ND2        5.5150  -22.2460   22.4950 N.am  203  ASN203     -0.0877
    119  N          1.3240  -23.6290   21.2270 N.am  204  GLN204     -0.1963
    120  CA         0.5490  -24.7100   21.8210 C.3   204  GLN204      0.1733
    121  C          1.4230  -25.6890   22.5970 C.2   204  GLN204      0.2616
    122  O          0.9710  -26.7690   22.9750 O.2   204  GLN204     -0.2715
    123  CB        -0.2640  -25.4330   20.7480 C.3   204  GLN204      0.0408
    124  CG        -1.3540  -24.5660   20.1530 C.3   204  GLN204      0.0908
    125  CD        -2.3170  -24.0710   21.2090 C.2   204  GLN204      0.2608
    126  OE1       -2.9260  -24.8660   21.9210 O.2   204  GLN204     -0.2717
    127  NE2       -2.4470  -22.7530   21.3300 N.am  204  GLN204     -0.0878
    128  N          2.6700  -25.2960   22.8420 N.am  205  LEU205     -0.1963
    129  CA         3.6030  -26.1070   23.6170 C.3   205  LEU205      0.1728
    130  C          3.0380  -26.4640   24.9910 C.2   205  LEU205      0.2616
    131  O          3.2890  -27.5500   25.5120 O.2   205  LEU205     -0.2715
    132  CB         4.9370  -25.3730   23.7750 C.3   205  LEU205      0.0311
    133  CG         5.9790  -26.0200   24.6910 C.3   205  LEU205      0.0022
    134  CD1        6.3350  -27.4110   24.1920 C.3   205  LEU205      0.0001
    135  CD2        7.2210  -25.1490   24.7940 C.3   205  LEU205      0.0001
    136  N          2.2620  -25.5520   25.5690 N.am  206  ARG206     -0.1977
    137  CA         1.6920  -25.7690   26.8950 C.3   206  ARG206      0.1597
    138  C          0.1710  -25.9410   26.8690 C.2   206  ARG206      0.2287
    139  O         -0.5120  -25.6330   27.8460 O.2   206  ARG206     -0.2864
    140  CB         2.0930  -24.6280   27.8370 C.3   206  ARG206      0.0334
    141  CG         3.6010  -24.4770   27.9900 C.3   206  ARG206      0.0492
    142  CD         3.9930  -23.0900   28.4840 C.3   206  ARG206      0.2205
    143  NE         5.2770  -22.6750   27.9250 N.pl3 206  ARG206     -0.0865
    144  CZ         5.4140  -21.8530   26.8890 C.cat 206  ARG206      0.5346
    145  NH1        4.3440  -21.3330   26.3020 N.pl3 206  ARG206      0.1354
    146  NH2        6.6240  -21.5410   26.4450 N.pl3 206  ARG206      0.1354
@<TRIPOS>BOND
     1    87    86    2
     2    86    85    1
     3    85    84    1
     4    85    88    1
     5    69    67    1
     6    68    67    1
     7    88    89    1
     8    67    64    1
     9    35    36    1
    10    64    63    1
    11    64    65    1
    12    89    90   ar
    13    89    91   ar
    14    90    92   ar
    15    52    51    2
    16    63    51   am
    17    65    66    2
    18    91    93   ar
    19    37    36    1
    20    37    38    2
    21    36    39    1
    22    51    50    1
    23    92    94   ar
    24    49    50    1
    25    41    43   ar
    26    41    40   ar
    27    50    53    1
    28    93    94   ar
    29    43    44   ar
    30    39    40    1
    31    70    71    1
    32    40    42   ar
    33    72    71    1
    34    72    73    2
    35    71    74    1
    36   102   100    1
    37   101   100    1
    38    44    42   ar
    39    44    46   ar
    40    53    54    1
    41   100    99    1
    42    42    45   ar
    43    76    75   ar
    44    76    78   ar
    45    74    75    1
    46    46    48   ar
    47    75    77   ar
    48    54    55   ar
    49    54    56   ar
    50    78    79   ar
    51    59    56   ar
    52    59    61   ar
    53    55    57   ar
    54    45    47   ar
    55    56    58   ar
    56    77    79   ar
    57    77    80   ar
    58    79    81   ar
    59    99    96    1
    60    95    96    1
    61    96    97    1
    62    48    47   ar
    63    80    82   ar
    64    61    62   ar
    65    81    83   ar
    66    57    58   ar
    67    58    60   ar
    68    82    83   ar
    69    62    60   ar
    70    97   103   am
    71    97    98    2
    72    11     9    1
    73   103   104    1
    74    10     9    1
    75     9     8    2
    76   106   105    2
    77   124   123    1
    78   124   125    1
    79   104   105    1
    80   104   107    1
    81   105   111   am
    82   107   108    1
    83   108   109    1
    84   108   110    1
    85   123   120    1
    86     8     7    1
    87   117   116    2
    88   111   112    1
    89   112   115    1
    90   112   113    1
    91   125   127   am
    92   125   126    2
    93   119   113   am
    94   119   120    1
    95     1     2    1
    96   116   115    1
    97   116   118   am
    98   113   114    2
    99   120   121    1
   100     7     6    1
   101     5     2    1
   102     5     6    1
   103     2     3    1
   104   121   128   am
   105   121   122    2
   106   128   129    1
   107   129   132    1
   108   129   130    1
   109     3     4    2
   110   132   133    1
   111   134   133    1
   112   133   135    1
   113   130   131    2
   114   130   136   am
   115   136   137    1
   116   145   144    1
   117   146   144    1
   118    19    18    2
   119   138   137    1
   120   138   139    2
   121   144   143    2
   122   137   140    1
   123    15    14    2
   124   140   141    1
   125   143   142    1
   126    18    17    1
   127    18    20   am
   128   141   142    1
   129    16    17    1
   130    16    13    1
   131    25    22    1
   132    25    26    1
   133    14    13    1
   134    14    21   am
   135    22    21    1
   136    22    23    1
   137    13    12    1
   138    26    27   ar
   139    26    28   ar
   140    27    29   ar
   141    23    24    2
   142    28    31   ar
   143    28    30   ar
   144    29    30   ar
   145    31    33   ar
   146    30    32   ar
   147    33    34   ar
   148    32    34   ar
