@<TRIPOS>MOLECULE
tmp/4xkiA00.pdb
 110 104 0 0 0
SMALL
GASTEIGER

@<TRIPOS>ATOM
      1  N        -18.8880   -9.9230  -21.6590 N.3    20  LEU20      -0.1245
      2  CA       -19.3890  -10.8770  -20.6860 C.3    20  LEU20       0.1561
      3  C        -18.2000  -11.7010  -20.1940 C.2    20  LEU20       0.2260
      4  O        -17.3130  -12.0230  -20.9840 O.2    20  LEU20      -0.2867
      5  CB       -20.4430  -11.7930  -21.2960 C.3    20  LEU20       0.0270
      6  CG       -21.5970  -11.1200  -22.0320 C.3    20  LEU20       0.0019
      7  CD1      -22.5920  -12.1840  -22.4760 C.3    20  LEU20       0.0001
      8  CD2      -22.2680  -10.0800  -21.1160 C.3    20  LEU20       0.0001
      9  N        -17.6480  -15.2920  -18.9030 N.3    22  TYR22      -0.1241
     10  CA       -18.3660  -16.5580  -18.8280 C.3    22  TYR22       0.1605
     11  C        -17.5340  -17.6580  -18.1830 C.2    22  TYR22       0.2264
     12  O        -16.4160  -17.9150  -18.6160 O.2    22  TYR22      -0.2867
     13  CB       -18.7870  -16.9950  -20.2440 C.3    22  TYR22       0.0534
     14  CG       -19.3400  -18.3940  -20.3100 C.ar   22  TYR22      -0.0201
     15  CD1      -20.6480  -18.6560  -19.9350 C.ar   22  TYR22      -0.0009
     16  CD2      -18.5480  -19.4580  -20.7410 C.ar   22  TYR22      -0.0009
     17  CE1      -21.1610  -19.9310  -19.9850 C.ar   22  TYR22       0.0417
     18  CE2      -19.0500  -20.7370  -20.8010 C.ar   22  TYR22       0.0417
     19  CZ       -20.3600  -20.9680  -20.4200 C.ar   22  TYR22       0.1957
     20  OH       -20.8750  -22.2350  -20.4700 O.3    22  TYR22      -0.2866
     21  N        -17.3580  -21.6260  -17.4160 N.3    24  SER24      -0.1217
     22  CA       -17.9140  -22.8980  -17.8680 C.3    24  SER24       0.1889
     23  C        -18.1170  -23.8730  -16.7290 C.2    24  SER24       0.2288
     24  O        -18.7410  -24.9150  -16.9130 O.2    24  SER24      -0.2866
     25  CB       -16.9970  -23.5420  -18.9010 C.3    24  SER24       0.2089
     26  OG       -15.8680  -24.0830  -18.2490 O.3    24  SER24      -0.2183
     27  N        -20.0390  -23.8510  -14.1480 N.3    26  GLY26      -0.1210
     28  CA       -21.4550  -24.1110  -13.9890 C.3    26  GLY26       0.1956
     29  C        -22.2180  -23.5010  -15.1390 C.2    26  GLY26       0.2612
     30  O        -23.4280  -23.6820  -15.2490 O.2    26  GLY26      -0.2717
     31  N        -21.5060  -22.7680  -15.9930 N.am   27  GLY27      -0.1956
     32  CA       -22.1110  -22.1460  -17.1550 C.3    27  GLY27       0.1869
     33  C        -22.7030  -20.7790  -16.8560 C.2    27  GLY27       0.2309
     34  O        -23.7720  -20.4300  -17.3610 O.2    27  GLY27      -0.2863
     35  N        -22.5250  -16.4110  -16.3310 N.3    29  PHE29      -0.1241
     36  CA       -21.9310  -15.1060  -16.5760 C.3    29  PHE29       0.1605
     37  C        -21.7990  -14.3980  -15.2320 C.2    29  PHE29       0.2264
     38  O        -22.7360  -14.4340  -14.4340 O.2    29  PHE29      -0.2867
     39  CB       -22.7810  -14.2770  -17.5340 C.3    29  PHE29       0.0534
     40  CG       -23.1250  -14.9990  -18.8060 C.ar   29  PHE29      -0.0203
     41  CD1      -22.2320  -15.0180  -19.8640 C.ar   29  PHE29      -0.0042
     42  CD2      -24.3350  -15.6690  -18.9370 C.ar   29  PHE29      -0.0042
     43  CE1      -22.5430  -15.7060  -21.0430 C.ar   29  PHE29      -0.0003
     44  CE2      -24.6490  -16.3560  -20.1110 C.ar   29  PHE29      -0.0003
     45  CZ       -23.7510  -16.3740  -21.1590 C.ar   29  PHE29      -0.0000
     46  N        -27.0870  -17.8840  -15.5380 N.3    42  ARG42      -0.1245
     47  CA       -27.0630  -18.5430  -16.8470 C.3    42  ARG42       0.1563
     48  C        -27.8630  -17.7600  -17.8620 C.2    42  ARG42       0.2260
     49  O        -27.8650  -18.0910  -19.0460 O.2    42  ARG42      -0.2867
     50  CB       -27.6000  -19.9650  -16.7560 C.3    42  ARG42       0.0307
     51  CG       -26.7090  -20.8800  -15.9570 C.3    42  ARG42       0.0489
     52  CD       -27.2830  -22.2660  -15.8240 C.3    42  ARG42       0.2205
     53  NE       -26.3110  -23.1630  -15.2150 N.pl3  42  ARG42      -0.0865
     54  CZ       -26.6090  -24.1020  -14.3230 C.cat  42  ARG42       0.5346
     55  NH1      -27.8660  -24.2680  -13.9340 N.pl3  42  ARG42       0.1354
     56  NH2      -25.6480  -24.8760  -13.8230 N.pl3  42  ARG42       0.1354
     57  N        -28.3320  -15.2270  -20.3440 N.3    44  ARG44      -0.1231
     58  CA       -27.4700  -14.4450  -21.2350 C.3    44  ARG44       0.1694
     59  C        -28.0680  -13.0790  -21.5780 C.2    44  ARG44       0.2592
     60  O        -27.3780  -12.2050  -22.0940 O.2    44  ARG44      -0.2718
     61  CB       -27.1810  -15.2440  -22.5180 C.3    44  ARG44       0.0321
     62  CG       -26.0300  -14.7140  -23.3830 C.3    44  ARG44       0.0489
     63  CD       -25.5500  -15.7610  -24.4070 C.3    44  ARG44       0.2205
     64  NE       -26.6190  -16.2310  -25.2910 N.pl3  44  ARG44      -0.0865
     65  CZ       -26.6550  -16.0520  -26.6130 C.cat  44  ARG44       0.5346
     66  NH1      -25.6700  -15.4140  -27.2390 N.pl3  44  ARG44       0.1354
     67  NH2      -27.6770  -16.5270  -27.3170 N.pl3  44  ARG44       0.1354
     68  N        -29.3440  -12.8750  -21.2740 N.am   45  SER45      -0.1952
     69  CA       -29.9650  -11.5720  -21.5200 C.3    45  SER45       0.1924
     70  C        -30.1270  -10.7240  -20.2460 C.2    45  SER45       0.2314
     71  O        -30.7360   -9.6520  -20.2780 O.2    45  SER45      -0.2863
     72  CB       -31.3230  -11.7630  -22.2000 C.3    45  SER45       0.2116
     73  OG       -32.1040  -12.7190  -21.5020 O.3    45  SER45      -0.2180
     74  N        -23.1260   -7.2430  -18.2310 N.3    50  GLN50      -0.1245
     75  CA       -22.2720   -6.4930  -19.1560 C.3    50  GLN50       0.1566
     76  C        -21.2150   -5.6820  -18.4060 C.2    50  GLN50       0.2260
     77  O        -21.5350   -4.7730  -17.6450 O.2    50  GLN50      -0.2867
     78  CB       -23.0930   -5.5560  -20.0530 C.3    50  GLN50       0.0367
     79  CG       -24.0300   -6.2550  -21.0300 C.3    50  GLN50       0.0905
     80  CD       -25.2900   -6.7730  -20.3710 C.2    50  GLN50       0.2608
     81  OE1      -25.7050   -6.2780  -19.3230 O.2    50  GLN50      -0.2717
     82  NE2      -25.9060   -7.7790  -20.9810 N.am   50  GLN50      -0.0878
     83  N        -16.3790  -12.6110  -23.5000 N.3   142  LEU142     -0.1231
     84  CA       -17.2110  -12.7200  -24.6990 C.3   142  LEU142      0.1678
     85  C        -17.7520  -11.3480  -25.0680 C.2   142  LEU142      0.2434
     86  O        -18.0110  -10.5200  -24.1890 O.2   142  LEU142     -0.2733
     87  CB       -18.3680  -13.7110  -24.4780 C.3   142  LEU142      0.0284
     88  CG       -18.0150  -15.1500  -24.0740 C.3   142  LEU142      0.0019
     89  CD1      -19.2560  -15.9590  -23.7250 C.3   142  LEU142      0.0001
     90  CD2      -17.2560  -15.8530  -25.1820 C.3   142  LEU142      0.0001
     91  N        -17.9040  -11.0820  -26.3700 N.am  143  PRO143     -0.2718
     92  CA       -18.5550   -9.8250  -26.7620 C.3   143  PRO143      0.1535
     93  C        -19.9790   -9.7490  -26.2170 C.2   143  PRO143      0.2598
     94  O        -20.6250  -10.7810  -26.0220 O.2   143  PRO143     -0.2715
     95  CB       -18.5360   -9.8750  -28.2970 C.3   143  PRO143      0.0310
     96  CG       -18.3200  -11.3170  -28.6420 C.3   143  PRO143      0.0237
     97  CD       -17.5020  -11.8970  -27.5290 C.3   143  PRO143      0.0939
     98  N        -20.4370   -8.5440  -25.9030 N.am  144  VAL144     -0.1964
     99  CA       -21.8230   -8.3630  -25.4880 C.3   144  VAL144      0.1727
    100  C        -22.7100   -8.2810  -26.7320 C.2   144  VAL144      0.2616
    101  O        -22.2010   -8.2290  -27.8510 O.2   144  VAL144     -0.2715
    102  CB       -22.0100   -7.1010  -24.6460 C.3   144  VAL144      0.0290
    103  CG1      -21.0720   -7.1130  -23.4460 C.3   144  VAL144      0.0023
    104  CG2      -21.7800   -5.8590  -25.4930 C.3   144  VAL144      0.0023
    105  N        -24.0260   -8.2580  -26.5310 N.am  145  SER145     -0.1950
    106  CA       -25.0030   -8.2280  -27.6350 C.3   145  SER145      0.1924
    107  C        -24.6640   -7.2440  -28.7610 C.2   145  SER145      0.2314
    108  O        -24.1620   -6.1480  -28.5160 O.2   145  SER145     -0.2863
    109  CB       -26.3950   -7.8930  -27.0930 C.3   145  SER145      0.2116
    110  OG       -26.7450   -8.7340  -26.0080 O.3   145  SER145     -0.2180
@<TRIPOS>BOND
     1   107   108    2
     2   107   106    1
     3    96    95    1
     4    96    97    1
     5    95    92    1
     6   101   100    2
     7   106   109    1
     8   106   105    1
     9    97    91    1
    10    67    65    1
    11    66    65    1
    12   109   110    1
    13    92    91    1
    14    92    93    1
    15   100   105   am
    16   100    99    1
    17    65    64    2
    18    91    85   am
    19    93    94    2
    20    93    98   am
    21    98    99    1
    22   104   102    1
    23    99   102    1
    24    64    63    1
    25    90    88    1
    26    85    84    1
    27    85    86    2
    28    84    87    1
    29    84    83    1
    30   102   103    1
    31    87    88    1
    32    63    62    1
    33    88    89    1
    34    62    61    1
    35    61    58    1
    36     7     6    1
    37    72    69    1
    38    72    73    1
    39    60    59    2
    40     6     5    1
    41     6     8    1
    42     1     2    1
    43    59    68   am
    44    59    58    1
    45    69    68    1
    46    69    70    1
    47     5     2    1
    48    58    57    1
    49    45    43   ar
    50    45    44   ar
    51    43    41   ar
    52    79    80    1
    53    79    78    1
    54     4     3    2
    55    82    80   am
    56    18    16   ar
    57    18    19   ar
    58    16    14   ar
    59     2     3    1
    60    20    19    1
    61    19    17   ar
    62    80    81    2
    63    14    13    1
    64    14    15   ar
    65    71    70    2
    66    13    10    1
    67    44    42   ar
    68    78    75    1
    69    17    15   ar
    70    41    40   ar
    71    75    76    1
    72    75    74    1
    73    49    48    2
    74    42    40   ar
    75     9    10    1
    76    25    26    1
    77    25    22    1
    78    10    11    1
    79    40    39    1
    80    12    11    2
    81    76    77    2
    82    22    21    1
    83    22    23    1
    84    48    47    1
    85    39    36    1
    86    34    33    2
    87    32    33    1
    88    32    31    1
    89    24    23    2
    90    47    50    1
    91    47    46    1
    92    50    51    1
    93    36    35    1
    94    36    37    1
    95    31    29   am
    96    51    52    1
    97    52    53    1
    98    30    29    2
    99    37    38    2
   100    53    54    2
   101    29    28    1
   102    54    55    1
   103    54    56    1
   104    27    28    1
