@<TRIPOS>MOLECULE
tmp/4xkoA00.pdb
 86 77 0 0 0
SMALL
GASTEIGER

@<TRIPOS>ATOM
      1  N         59.1080  -10.3640   -0.3200 N.3    33  LEU33      -0.1245
      2  CA        59.3810  -11.4870   -1.2100 C.3    33  LEU33       0.1561
      3  C         58.9850  -11.1380   -2.6490 C.2    33  LEU33       0.2260
      4  O         59.7020  -11.4730   -3.5900 O.2    33  LEU33      -0.2867
      5  CB        58.6910  -12.7700   -0.7310 C.3    33  LEU33       0.0270
      6  CG        59.0280  -13.3080    0.6810 C.3    33  LEU33       0.0019
      7  CD1       58.2860  -14.6300    0.9550 C.3    33  LEU33       0.0001
      8  CD2       60.5370  -13.4730    0.9260 C.3    33  LEU33       0.0001
      9  N         61.7750   -8.9150   -3.9350 N.3    36  ASN36      -0.1240
     10  CA        62.9320   -9.6980   -4.3430 C.3    36  ASN36       0.1653
     11  C         62.7220  -10.3650   -5.6970 C.2    36  ASN36       0.2266
     12  O         63.6320  -10.4410   -6.5260 O.2    36  ASN36      -0.2867
     13  CB        63.2340  -10.7620   -3.3030 C.3    36  ASN36       0.1155
     14  CG        64.0090  -10.2080   -2.1300 C.2    36  ASN36       0.2627
     15  OD1       64.2900   -9.0030   -2.0710 O.2    36  ASN36      -0.2716
     16  ND2       64.3650  -11.0810   -1.1870 N.am   36  ASN36      -0.0877
     17  N         66.9410   -8.1080  -13.1170 N.3    43  LYS43      -0.1245
     18  CA        68.3200   -8.4900  -13.3570 C.3    43  LYS43       0.1561
     19  C         68.4480   -9.2620  -14.6580 C.2    43  LYS43       0.2260
     20  O         69.3170   -8.9510  -15.4690 O.2    43  LYS43      -0.2867
     21  CB        68.8680   -9.3230  -12.1870 C.3    43  LYS43       0.0271
     22  CG        70.0910   -8.7160  -11.5010 C.3    43  LYS43       0.0035
     23  CD        70.3820   -9.3990  -10.1530 C.3    43  LYS43       0.0206
     24  CE        69.6510   -8.7140   -8.9930 C.3    43  LYS43       0.1093
     25  NZ        69.5530   -9.5800   -7.7650 N.3    43  LYS43      -0.1314
     26  N         69.5800  -18.0880   -8.7180 N.3    83  MET83      -0.1245
     27  CA        70.8500  -18.0480   -7.9950 C.3    83  MET83       0.1570
     28  C         71.7020  -19.2780   -8.2900 C.2    83  MET83       0.2261
     29  O         71.1950  -20.4010   -8.2870 O.2    83  MET83      -0.2867
     30  CB        70.5970  -18.0000   -6.4800 C.3    83  MET83       0.0387
     31  CG        70.1270  -16.6580   -5.9180 C.3    83  MET83       0.0595
     32  SD        69.5770  -16.8440   -4.1900 S.3    83  MET83      -0.1393
     33  CE        67.9610  -17.5930   -4.4400 C.3    83  MET83       0.0692
     34  N         73.8540  -14.9990   -0.6670 N.3    91  ASN91      -0.1225
     35  CA        72.6320  -14.2080   -0.5040 C.3    91  ASN91       0.1785
     36  C         71.7160  -14.6860    0.6200 C.2    91  ASN91       0.2597
     37  O         70.8790  -13.9160    1.1070 O.2    91  ASN91      -0.2718
     38  CB        71.8310  -14.1370   -1.8200 C.3    91  ASN91       0.1169
     39  CG        72.6120  -13.4890   -2.9620 C.2    91  ASN91       0.2627
     40  OD1       73.5830  -12.7690   -2.7370 O.2    91  ASN91      -0.2716
     41  ND2       72.1760  -13.7400   -4.1970 N.am   91  ASN91      -0.0877
     42  N         71.8520  -15.9510    1.0160 N.am   92  LEU92      -0.1980
     43  CA        70.9660  -16.5180    2.0340 C.3    92  LEU92       0.1596
     44  C         71.7160  -16.9020    3.3040 C.2    92  LEU92       0.2287
     45  O         71.1020  -17.3380    4.2780 O.2    92  LEU92      -0.2864
     46  CB        70.1990  -17.7320    1.5060 C.3    92  LEU92       0.0297
     47  CG        69.3370  -17.5290    0.2580 C.3    92  LEU92       0.0022
     48  CD1       68.5960  -18.8070   -0.1150 C.3    92  LEU92       0.0001
     49  CD2       68.3590  -16.3820    0.4530 C.3    92  LEU92       0.0001
     50  N         68.8500   -5.4010    1.8820 N.3   121  GLY121     -0.1225
     51  CA        68.9800   -6.6670    1.1820 C.3   121  GLY121      0.1811
     52  C         68.7330   -7.8970    2.0430 C.2   121  GLY121      0.2280
     53  O         69.1830   -8.9940    1.6930 O.2   121  GLY121     -0.2866
     54  N         64.3290  -10.9510    2.7640 N.3   124  PHE124     -0.1241
     55  CA        64.0280  -12.3570    2.6510 C.3   124  PHE124      0.1605
     56  C         63.6710  -12.9650    4.0130 C.2   124  PHE124      0.2264
     57  O         62.6720  -13.6900    4.1400 O.2   124  PHE124     -0.2867
     58  CB        65.2290  -13.0780    2.0270 C.3   124  PHE124      0.0534
     59  CG        65.2120  -14.5570    2.2210 C.ar  124  PHE124     -0.0203
     60  CD1       64.4390  -15.3710    1.3900 C.ar  124  PHE124     -0.0042
     61  CD2       65.9660  -15.1440    3.2310 C.ar  124  PHE124     -0.0042
     62  CE1       64.4240  -16.7530    1.5730 C.ar  124  PHE124     -0.0003
     63  CE2       65.9500  -16.5180    3.4270 C.ar  124  PHE124     -0.0003
     64  CZ        65.1830  -17.3260    2.6020 C.ar  124  PHE124     -0.0000
     65  N         64.1290  -22.7550   -0.4600 N.3   136  VAL136     -0.1245
     66  CA        64.3440  -21.9850   -1.6810 C.3   136  VAL136      0.1561
     67  C         64.9260  -22.8670   -2.7870 C.2   136  VAL136      0.2260
     68  O         66.0390  -23.3850   -2.6510 O.2   136  VAL136     -0.2867
     69  CB        65.3080  -20.8020   -1.4490 C.3   136  VAL136      0.0252
     70  CG1       65.4490  -19.9630   -2.7210 C.3   136  VAL136      0.0019
     71  CG2       64.8350  -19.9430   -0.2910 C.3   136  VAL136      0.0019
     72  N         63.5000  -18.6490   -9.3160 N.3   170  THR170     -0.1218
     73  CA        63.5300  -18.9480   -7.9050 C.3   170  THR170      0.1862
     74  C         62.1460  -19.3260   -7.4140 C.2   170  THR170      0.2287
     75  O         61.1540  -18.6480   -7.7210 O.2   170  THR170     -0.2866
     76  CB        64.0620  -17.7410   -7.1000 C.3   170  THR170      0.1770
     77  OG1       65.4560  -17.5610   -7.3890 O.3   170  THR170     -0.2211
     78  CG2       63.8690  -17.9550   -5.5760 C.3   170  THR170      0.0375
     79  N         60.2970  -20.0300   -3.7870 N.3   172  ILE172     -0.1245
     80  CA        60.3530  -19.9810   -2.3360 C.3   172  ILE172      0.1561
     81  C         59.1130  -20.6540   -1.7810 C.2   172  ILE172      0.2260
     82  O         57.9870  -20.3120   -2.1720 O.2   172  ILE172     -0.2867
     83  CB        60.4040  -18.5220   -1.8300 C.3   172  ILE172      0.0252
     84  CG1       61.6390  -17.8260   -2.4010 C.3   172  ILE172      0.0019
     85  CG2       60.4430  -18.4680   -0.2990 C.3   172  ILE172      0.0019
     86  CD1       61.6670  -16.3510   -2.1220 C.3   172  ILE172      0.0001
@<TRIPOS>BOND
     1    20    19    2
     2    19    18    1
     3    18    17    1
     4    18    21    1
     5    21    22    1
     6    22    23    1
     7    23    24    1
     8    72    73    1
     9    24    25    1
    10    26    27    1
    11    28    29    2
    12    28    27    1
    13    27    30    1
    14    73    74    1
    15    73    76    1
    16    75    74    2
    17    77    76    1
    18    76    78    1
    19    12    11    2
    20    30    31    1
    21    31    32    1
    22    11    10    1
    23    33    32    1
    24    10     9    1
    25    10    13    1
    26    41    39   am
    27    79    80    1
    28     4     3    2
    29    13    14    1
    30    39    40    2
    31    39    38    1
    32    67    68    2
    33    67    66    1
    34    70    69    1
    35     3     2    1
    36    84    86    1
    37    84    83    1
    38    80    83    1
    39    80    81    1
    40    82    81    2
    41    14    15    2
    42    14    16   am
    43    83    85    1
    44    38    35    1
    45    66    69    1
    46    66    65    1
    47    69    71    1
    48     2     5    1
    49     2     1    1
    50     5     6    1
    51    34    35    1
    52    35    36    1
    53    48    47    1
    54    47    49    1
    55    47    46    1
    56    36    42   am
    57    36    37    2
    58     6     8    1
    59     6     7    1
    60    42    43    1
    61    51    50    1
    62    51    52    1
    63    60    62   ar
    64    60    59   ar
    65    46    43    1
    66    62    64   ar
    67    53    52    2
    68    58    59    1
    69    58    55    1
    70    43    44    1
    71    59    61   ar
    72    64    63   ar
    73    55    54    1
    74    55    56    1
    75    61    63   ar
    76    44    45    2
    77    56    57    2
