@<TRIPOS>MOLECULE
tmp/4xkpA01.pdb
 133 126 0 0 0
SMALL
GASTEIGER

@<TRIPOS>ATOM
      1  N         39.2880   62.8410   23.9760 N.3    10  LEU10      -0.1245
      2  CA        38.3430   62.1350   23.1150 C.3    10  LEU10       0.1561
      3  C         37.8710   60.8380   23.7510 C.2    10  LEU10       0.2260
      4  O         38.1170   59.7460   23.2300 O.2    10  LEU10      -0.2867
      5  CB        38.9550   61.8830   21.7340 C.3    10  LEU10       0.0270
      6  CG        39.4210   63.1630   21.0280 C.3    10  LEU10       0.0019
      7  CD1       39.8680   62.8670   19.6080 C.3    10  LEU10       0.0001
      8  CD2       38.3410   64.2470   21.0370 C.3    10  LEU10       0.0001
      9  N         40.4010   53.7060   17.8180 N.3    21  ASP21      -0.1239
     10  CA        41.7850   53.2890   17.6280 C.3    21  ASP21       0.1674
     11  C         42.5420   53.2570   18.9590 C.2    21  ASP21       0.2266
     12  O         43.7260   52.9250   19.0040 O.2    21  ASP21      -0.2867
     13  CB        42.4880   54.1910   16.6040 C.3    21  ASP21       0.1410
     14  CG        42.8020   55.5920   17.1360 C.2    21  ASP21       0.3668
     15  OD1       42.4020   55.9420   18.2660 O.co2  21  ASP21      -0.2456
     16  OD2       43.4520   56.3640   16.3950 O.co2  21  ASP21      -0.2456
     17  N         32.6560   51.8090    9.2600 N.3    91  LEU91      -0.1245
     18  CA        33.9960   52.2290    8.8790 C.3    91  LEU91       0.1561
     19  C         34.7740   51.0280    8.3380 C.2    91  LEU91       0.2260
     20  O         35.3080   51.0670    7.2280 O.2    91  LEU91      -0.2867
     21  CB        34.7190   52.8670   10.0700 C.3    91  LEU91       0.0270
     22  CG        36.0480   53.5940    9.8210 C.3    91  LEU91       0.0019
     23  CD1       36.3500   54.5440   10.9620 C.3    91  LEU91       0.0001
     24  CD2       37.2240   52.6270    9.6400 C.3    91  LEU91       0.0001
     25  N         41.2930   50.2560   13.2800 N.3   127  PHE127     -0.1241
     26  CA        39.9220   49.8020   13.4740 C.3   127  PHE127      0.1605
     27  C         39.7900   48.3430   13.0450 C.2   127  PHE127      0.2264
     28  O         38.8110   47.6770   13.3780 O.2   127  PHE127     -0.2867
     29  CB        38.9370   50.6860   12.7030 C.3   127  PHE127      0.0534
     30  CG        38.6760   52.0120   13.3660 C.ar  127  PHE127     -0.0203
     31  CD1       39.5990   53.0420   13.2740 C.ar  127  PHE127     -0.0042
     32  CD2       37.5170   52.2210   14.0910 C.ar  127  PHE127     -0.0042
     33  CE1       39.3670   54.2610   13.8970 C.ar  127  PHE127     -0.0003
     34  CE2       37.2790   53.4400   14.7100 C.ar  127  PHE127     -0.0003
     35  CZ        38.2050   54.4550   14.6150 C.ar  127  PHE127     -0.0000
     36  N         47.4320   65.1230   10.3110 N.3   227  ARG227     -0.1245
     37  CA        46.1450   65.4960   10.8730 C.3   227  ARG227      0.1563
     38  C         45.7720   66.8990   10.4070 C.2   227  ARG227      0.2260
     39  O         46.6050   67.8070   10.3910 O.2   227  ARG227     -0.2867
     40  CB        46.1670   65.4200   12.4010 C.3   227  ARG227      0.0307
     41  CG        44.8700   65.8660   13.0630 C.3   227  ARG227      0.0489
     42  CD        44.7320   65.2690   14.4530 C.3   227  ARG227      0.2205
     43  NE        44.5120   63.8300   14.3780 N.pl3 227  ARG227     -0.0865
     44  CZ        43.3170   63.2720   14.2240 C.cat 227  ARG227      0.5346
     45  NH1       42.2320   64.0300   14.1370 N.pl3 227  ARG227      0.1354
     46  NH2       43.2060   61.9550   14.1630 N.pl3 227  ARG227      0.1354
     47  N         40.8180   68.5070   20.7300 N.3   318  ARG318     -0.1245
     48  CA        41.8830   69.1630   19.9810 C.3   318  ARG318      0.1563
     49  C         41.8690   70.6220   20.4240 C.2   318  ARG318      0.2260
     50  O         40.9550   71.3620   20.0680 O.2   318  ARG318     -0.2867
     51  CB        41.6670   69.0270   18.4650 C.3   318  ARG318      0.0307
     52  CG        41.2600   67.6250   18.0130 C.3   318  ARG318      0.0489
     53  CD        42.4270   66.6320   18.0020 C.3   318  ARG318      0.2205
     54  NE        41.9960   65.2990   17.5580 N.pl3 318  ARG318     -0.0865
     55  CZ        42.7220   64.1900   17.6810 C.cat 318  ARG318      0.5346
     56  NH1       43.9230   64.2410   18.2320 N.pl3 318  ARG318      0.1354
     57  NH2       42.2480   63.0260   17.2500 N.pl3 318  ARG318      0.1354
     58  N         31.3380   62.9230   18.5250 N.3   348  GLU348     -0.1245
     59  CA        30.8710   61.9290   17.5580 C.3   348  GLU348      0.1567
     60  C         29.3950   61.6370   17.7710 C.2   348  GLU348      0.2260
     61  O         28.6280   61.5320   16.8160 O.2   348  GLU348     -0.2867
     62  CB        31.6840   60.6340   17.6600 C.3   348  GLU348      0.0388
     63  CG        33.1520   60.7740   17.2640 C.3   348  GLU348      0.1160
     64  CD        33.3310   61.1180   15.7930 C.2   348  GLU348      0.3649
     65  OE1       33.4270   60.1830   14.9640 O.co2 348  GLU348     -0.2457
     66  OE2       33.3800   62.3220   15.4630 O.co2 348  GLU348     -0.2457
     67  N         36.2200   70.4210   13.3760 N.3   362  TYR362     -0.1227
     68  CA        36.5610   69.0040   13.2980 C.3   362  TYR362      0.1736
     69  C         38.0350   68.8090   13.0060 C.2   362  TYR362      0.2596
     70  O         38.7460   69.7450   12.6400 O.2   362  TYR362     -0.2718
     71  CB        35.7210   68.2990   12.2240 C.3   362  TYR362      0.0548
     72  CG        35.4270   66.8340   12.5250 C.ar  362  TYR362     -0.0200
     73  CD1       34.5660   66.4710   13.5580 C.ar  362  TYR362     -0.0009
     74  CD2       35.9960   65.8190   11.7680 C.ar  362  TYR362     -0.0009
     75  CE1       34.2810   65.1170   13.8310 C.ar  362  TYR362      0.0417
     76  CE2       35.7220   64.4800   12.0360 C.ar  362  TYR362      0.0417
     77  CZ        34.8640   64.1340   13.0590 C.ar  362  TYR362      0.1957
     78  OH        34.6130   62.7960   13.3090 O.3   362  TYR362     -0.2866
     79  N         38.4880   67.5740   13.1660 N.am  363  SER363     -0.1938
     80  CA        39.8840   67.2400   12.9560 C.3   363  SER363      0.2055
     81  C         39.9480   65.8010   12.4720 C.2   363  SER363      0.2643
     82  O         39.2900   64.9250   13.0360 O.2   363  SER363     -0.2714
     83  CB        40.6890   67.4120   14.2400 C.3   363  SER363      0.2130
     84  OG        42.0130   66.9240   14.0800 O.3   363  SER363     -0.2179
     85  N         40.7250   65.5310   11.4400 N.am  364  PHE364     -0.1959
     86  CA        40.8300   64.1460   11.0170 C.3   364  PHE364      0.1771
     87  C         42.2040   63.8080   10.4820 C.2   364  PHE364      0.2620
     88  O         42.9180   64.6560    9.9460 O.2   364  PHE364     -0.2715
     89  CB        39.7710   63.8120    9.9690 C.3   364  PHE364      0.0574
     90  CG        39.7010   62.3500    9.6410 C.ar  364  PHE364     -0.0200
     91  CD1       39.2520   61.4380   10.5840 C.ar  364  PHE364     -0.0042
     92  CD2       40.0990   61.8850    8.4010 C.ar  364  PHE364     -0.0042
     93  CE1       39.1910   60.0890   10.2890 C.ar  364  PHE364     -0.0003
     94  CE2       40.0490   60.5310    8.1030 C.ar  364  PHE364     -0.0003
     95  CZ        39.5910   59.6370    9.0450 C.ar  364  PHE364     -0.0000
     96  N         42.5520   62.5420   10.6510 N.am  365  GLY365     -0.1954
     97  CA        43.8210   62.0060   10.1950 C.3   365  GLY365      0.1869
     98  C         43.5700   61.6290    8.7450 C.2   365  GLY365      0.2309
     99  O         43.0440   60.5550    8.4690 O.2   365  GLY365     -0.2863
    100  N         41.3770   56.2130    1.3680 N.3   374  TYR374     -0.1241
    101  CA        40.7020   56.0590    2.6430 C.3   374  TYR374      0.1605
    102  C         39.8540   57.2850    2.9930 C.2   374  TYR374      0.2264
    103  O         38.6700   57.1690    3.3150 O.2   374  TYR374     -0.2867
    104  CB        41.7260   55.8050    3.7410 C.3   374  TYR374      0.0534
    105  CG        41.1260   55.7270    5.1210 C.ar  374  TYR374     -0.0201
    106  CD1       40.3160   54.6620    5.4750 C.ar  374  TYR374     -0.0009
    107  CD2       41.3880   56.7040    6.0800 C.ar  374  TYR374     -0.0009
    108  CE1       39.7650   54.5720    6.7310 C.ar  374  TYR374      0.0417
    109  CE2       40.8380   56.6170    7.3550 C.ar  374  TYR374      0.0417
    110  CZ        40.0270   55.5450    7.6670 C.ar  374  TYR374      0.1957
    111  OH        39.4690   55.4230    8.9180 O.3   374  TYR374     -0.2866
    112  N         32.1320   56.8890    7.1800 N.3   385  ALA385     -0.1231
    113  CA        32.0660   57.0130    8.6460 C.3   385  ALA385      0.1694
    114  C         32.4100   58.3910    9.2080 C.2   385  ALA385      0.2591
    115  O         32.0220   58.7150   10.3290 O.2   385  ALA385     -0.2718
    116  CB        32.9630   55.9710    9.2940 C.3   385  ALA385      0.0304
    117  N         33.1350   59.2100    8.4630 N.am  386  ILE386     -0.1980
    118  CA        33.4150   60.5600    8.9540 C.3   386  ILE386      0.1595
    119  C         32.7010   61.6310    8.1420 C.2   386  ILE386      0.2287
    120  O         32.9570   62.8210    8.3020 O.2   386  ILE386     -0.2864
    121  CB        34.9110   60.8520    8.9470 C.3   386  ILE386      0.0276
    122  CG1       35.5360   60.2100    7.7170 C.3   386  ILE386      0.0022
    123  CG2       35.5630   60.3150   10.2290 C.3   386  ILE386      0.0022
    124  CD1       36.8630   60.7590    7.3310 C.3   386  ILE386      0.0001
    125  N         30.1070   63.3320    8.3880 N.3   388  LYS388     -0.1245
    126  CA        29.0660   63.7450    9.3320 C.3   388  LYS388      0.1561
    127  C         28.0300   64.6570    8.6870 C.2   388  LYS388      0.2260
    128  O         26.8500   64.6100    9.0460 O.2   388  LYS388     -0.2867
    129  CB        29.6710   64.4660   10.5480 C.3   388  LYS388      0.0271
    130  CG        30.8670   63.7890   11.1830 C.3   388  LYS388      0.0035
    131  CD        30.5780   62.3500   11.5850 C.3   388  LYS388      0.0206
    132  CE        31.7300   61.7880   12.4010 C.3   388  LYS388      0.1093
    133  NZ        31.5320   60.3660   12.7960 N.3   388  LYS388     -0.1314
@<TRIPOS>BOND
     1   100   101    1
     2   101   102    1
     3   101   104    1
     4   102   103    2
     5   104   105    1
     6   105   106   ar
     7   105   107   ar
     8   106   108   ar
     9   107   109   ar
    10   108   110   ar
    11   112   113    1
    12    20    19    2
    13   124   122    1
    14   109   110   ar
    15   110   111    1
    16   122   121    1
    17    94    92   ar
    18    94    95   ar
    19   119   120    2
    20   119   118    1
    21    19    18    1
    22   125   126    1
    23    92    90   ar
    24   117   118    1
    25   117   114   am
    26    99    98    2
    27   113   114    1
    28   113   116    1
    29   127   128    2
    30   127   126    1
    31    98    97    1
    32    18    17    1
    33    18    21    1
    34   121   118    1
    35   121   123    1
    36    95    93   ar
    37   114   115    2
    38   126   129    1
    39    24    22    1
    40    90    89    1
    41    90    91   ar
    42    22    21    1
    43    22    23    1
    44    88    87    2
    45    89    86    1
    46    97    96    1
    47    93    91   ar
    48    36    37    1
    49    39    38    2
    50    38    37    1
    51    87    96   am
    52    87    86    1
    53   129   130    1
    54    37    40    1
    55    86    85    1
    56   130   131    1
    57    85    81   am
    58   131   132    1
    59    74    76   ar
    60    74    72   ar
    61    76    77   ar
    62    71    72    1
    63    71    68    1
    64    40    41    1
    65   132   133    1
    66    81    80    1
    67    81    82    2
    68    72    73   ar
    69    70    69    2
    70    29    30    1
    71    29    26    1
    72    80    79    1
    73    80    83    1
    74    69    79   am
    75    69    68    1
    76    27    28    2
    77    27    26    1
    78    77    78    1
    79    77    75   ar
    80    41    42    1
    81    31    30   ar
    82    31    33   ar
    83    25    26    1
    84    68    67    1
    85    30    32   ar
    86    73    75   ar
    87    33    35   ar
    88    84    83    1
    89    32    34   ar
    90    45    44    1
    91    46    44    1
    92    44    43    2
    93    43    42    1
    94    35    34   ar
    95    65    64   ar
    96    66    64   ar
    97    64    63    1
    98    16    14   ar
    99    13    14    1
   100    13    10    1
   101    61    60    2
   102    14    15   ar
   103    57    55    1
   104    63    62    1
   105    54    55    2
   106    54    53    1
   107    59    62    1
   108    59    60    1
   109    59    58    1
   110    10     9    1
   111    10    11    1
   112    55    56    1
   113    53    52    1
   114    52    51    1
   115    51    48    1
   116    11    12    2
   117     7     6    1
   118    48    49    1
   119    48    47    1
   120    50    49    2
   121     6     8    1
   122     6     5    1
   123     5     2    1
   124     2     3    1
   125     2     1    1
   126     4     3    2
