@<TRIPOS>MOLECULE
tmp/4xkrA01.pdb
 128 121 0 0 0
SMALL
GASTEIGER

@<TRIPOS>ATOM
      1  N         38.8290   62.9480   23.9660 N.3     9  LEU9       -0.1245
      2  CA        37.8550   62.2530   23.1070 C.3     9  LEU9        0.1561
      3  C         37.3720   60.9320   23.7120 C.2     9  LEU9        0.2260
      4  O         37.6450   59.8390   23.1860 O.2     9  LEU9       -0.2867
      5  CB        38.4250   62.0300   21.6910 C.3     9  LEU9        0.0270
      6  CG        38.9410   63.3180   21.0290 C.3     9  LEU9        0.0019
      7  CD1       39.3990   63.0590   19.5600 C.3     9  LEU9        0.0001
      8  CD2       37.9080   64.4540   21.1080 C.3     9  LEU9        0.0001
      9  N         39.8350   53.6000   17.6900 N.3    20  ASP20      -0.1239
     10  CA        41.2380   53.1980   17.5800 C.3    20  ASP20       0.1674
     11  C         41.9530   53.1590   18.9290 C.2    20  ASP20       0.2266
     12  O         43.1300   52.8460   19.0010 O.2    20  ASP20      -0.2867
     13  CB        41.9640   54.1170   16.5960 C.3    20  ASP20       0.1410
     14  CG        42.2960   55.4980   17.1700 C.2    20  ASP20       0.3668
     15  OD1       41.8420   55.8550   18.2710 O.co2  20  ASP20      -0.2456
     16  OD2       43.0190   56.2370   16.4710 O.co2  20  ASP20      -0.2456
     17  N         32.0300   51.5850    9.0590 N.3    90  LEU90      -0.1245
     18  CA        33.3690   52.0140    8.6690 C.3    90  LEU90       0.1561
     19  C         34.1430   50.8230    8.1360 C.2    90  LEU90       0.2260
     20  O         34.7030   50.8710    7.0290 O.2    90  LEU90      -0.2867
     21  CB        34.1200   52.6570    9.8440 C.3    90  LEU90       0.0270
     22  CG        35.4370   53.4080    9.5530 C.3    90  LEU90       0.0019
     23  CD1       35.7310   54.4120   10.6730 C.3    90  LEU90       0.0001
     24  CD2       36.6540   52.4570    9.3810 C.3    90  LEU90       0.0001
     25  N         40.6590   50.1260   13.1820 N.3   126  PHE126     -0.1241
     26  CA        39.2840   49.6480   13.3690 C.3   126  PHE126      0.1605
     27  C         39.1570   48.1710   12.9600 C.2   126  PHE126      0.2264
     28  O         38.1590   47.5130   13.2700 O.2   126  PHE126     -0.2867
     29  CB        38.2860   50.4980   12.5560 C.3   126  PHE126      0.0534
     30  CG        37.9230   51.8130   13.2060 C.ar  126  PHE126     -0.0203
     31  CD1       38.8170   52.8720   13.2230 C.ar  126  PHE126     -0.0042
     32  CD2       36.6750   51.9840   13.8000 C.ar  126  PHE126     -0.0042
     33  CE1       38.4780   54.0780   13.8310 C.ar  126  PHE126     -0.0003
     34  CE2       36.3270   53.1900   14.4030 C.ar  126  PHE126     -0.0003
     35  CZ        37.2310   54.2350   14.4160 C.ar  126  PHE126     -0.0000
     36  N         46.9640   65.0290   10.2110 N.3   226  ARG226     -0.1245
     37  CA        45.6850   65.4610   10.7770 C.3   226  ARG226      0.1563
     38  C         45.3900   66.9010   10.3520 C.2   226  ARG226      0.2260
     39  O         46.2780   67.7650   10.3490 O.2   226  ARG226     -0.2867
     40  CB        45.6990   65.3600   12.3020 C.3   226  ARG226      0.0307
     41  CG        44.3540   65.7400   12.9580 C.3   226  ARG226      0.0489
     42  CD        44.1570   65.0310   14.2830 C.3   226  ARG226      0.2205
     43  NE        43.7830   63.6170   14.1440 N.pl3 226  ARG226     -0.0865
     44  CZ        42.5440   63.1750   13.9320 C.cat 226  ARG226      0.5346
     45  NH1       41.5230   64.0340   13.8140 N.pl3 226  ARG226      0.1354
     46  NH2       42.3170   61.8630   13.8390 N.pl3 226  ARG226      0.1354
     47  N         40.5040   68.5990   20.7690 N.3   317  ARG317     -0.1245
     48  CA        41.5790   69.2270   20.0170 C.3   317  ARG317      0.1563
     49  C         41.5850   70.6870   20.4840 C.2   317  ARG317      0.2260
     50  O         40.6550   71.4370   20.1780 O.2   317  ARG317     -0.2867
     51  CB        41.3520   69.1390   18.4990 C.3   317  ARG317      0.0307
     52  CG        40.9400   67.7860   17.9500 C.3   317  ARG317      0.0489
     53  CD        42.0670   66.7420   18.0450 C.3   317  ARG317      0.2205
     54  NE        41.6160   65.4570   17.4950 N.pl3 317  ARG317     -0.0865
     55  CZ        42.3260   64.3300   17.5260 C.cat 317  ARG317      0.5346
     56  NH1       43.5370   64.3230   18.0740 N.pl3 317  ARG317      0.1354
     57  NH2       41.8280   63.2130   16.9890 N.pl3 317  ARG317      0.1354
     58  N         30.8010   63.2630   18.8110 N.3   347  GLU347     -0.1245
     59  CA        30.1310   62.3710   17.8640 C.3   347  GLU347      0.1567
     60  C         28.7110   62.0590   18.2960 C.2   347  GLU347      0.2260
     61  O         27.8150   61.9510   17.4570 O.2   347  GLU347     -0.2867
     62  CB        30.9070   61.0710   17.6690 C.3   347  GLU347      0.0388
     63  CG        32.2750   61.2600   17.0470 C.3   347  GLU347      0.1160
     64  CD        32.2530   62.0520   15.7390 C.2   347  GLU347      0.3649
     65  OE1       31.1670   62.3340   15.1670 O.co2 347  GLU347     -0.2457
     66  OE2       33.3370   62.3820   15.2550 O.co2 347  GLU347     -0.2457
     67  N         35.9360   70.6390   13.4680 N.3   361  TYR361     -0.1227
     68  CA        36.1890   69.2160   13.3800 C.3   361  TYR361      0.1736
     69  C         37.6520   68.9650   13.0770 C.2   361  TYR361      0.2596
     70  O         38.4050   69.8870   12.8080 O.2   361  TYR361     -0.2718
     71  CB        35.2740   68.5960   12.3300 C.3   361  TYR361      0.0548
     72  CG        34.9530   67.1400   12.5840 C.ar  361  TYR361     -0.0200
     73  CD1       34.1350   66.7470   13.6550 C.ar  361  TYR361     -0.0009
     74  CD2       35.4790   66.1550   11.7640 C.ar  361  TYR361     -0.0009
     75  CE1       33.8530   65.3800   13.8720 C.ar  361  TYR361      0.0417
     76  CE2       35.1940   64.7980   11.9810 C.ar  361  TYR361      0.0417
     77  CZ        34.3910   64.4230   13.0190 C.ar  361  TYR361      0.1957
     78  OH        34.1570   63.0550   13.1860 O.3   361  TYR361     -0.2866
     79  N         38.0470   67.7000   13.1360 N.am  362  SER362     -0.1938
     80  CA        39.4210   67.3190   12.8720 C.3   362  SER362      0.2055
     81  C         39.4070   65.9270   12.2730 C.2   362  SER362      0.2643
     82  O         38.7720   65.0280   12.8230 O.2   362  SER362     -0.2714
     83  CB        40.2560   67.3430   14.1520 C.3   362  SER362      0.2130
     84  OG        41.6130   67.0430   13.8660 O.3   362  SER362     -0.2179
     85  N         40.0860   65.7630   11.1420 N.am  363  PHE363     -0.1959
     86  CA        40.1230   64.4900   10.4150 C.3   363  PHE363      0.1771
     87  C         41.5460   63.9510   10.3570 C.2   363  PHE363      0.2620
     88  O         42.4730   64.7140   10.0720 O.2   363  PHE363     -0.2715
     89  CB        39.6470   64.6560    8.9470 C.3   363  PHE363      0.0574
     90  CG        38.1540   64.5390    8.7080 C.ar  363  PHE363     -0.0200
     91  CD1       37.4190   63.4840    9.2090 C.ar  363  PHE363     -0.0042
     92  CD2       37.5100   65.4500    7.8760 C.ar  363  PHE363     -0.0042
     93  CE1       36.0610   63.3590    8.9290 C.ar  363  PHE363     -0.0003
     94  CE2       36.1560   65.3380    7.5970 C.ar  363  PHE363     -0.0003
     95  CZ        35.4350   64.2820    8.1150 C.ar  363  PHE363     -0.0000
     96  N         41.7290   62.6450   10.5570 N.am  364  GLY364     -0.1954
     97  CA        42.9730   62.0210   10.1240 C.3   364  GLY364      0.1869
     98  C         42.7850   61.6700    8.6650 C.2   364  GLY364      0.2309
     99  O         42.1430   60.6690    8.3590 O.2   364  GLY364     -0.2863
    100  N         40.8130   56.1160    1.3150 N.3   373  TYR373     -0.1241
    101  CA        40.1250   55.9270    2.5910 C.3   373  TYR373      0.1605
    102  C         39.2910   57.1650    2.9300 C.2   373  TYR373      0.2264
    103  O         38.1000   57.0680    3.2140 O.2   373  TYR373     -0.2867
    104  CB        41.1360   55.6460    3.7070 C.3   373  TYR373      0.0534
    105  CG        40.6340   55.9920    5.1060 C.ar  373  TYR373     -0.0201
    106  CD1       39.7820   55.1350    5.8000 C.ar  373  TYR373     -0.0009
    107  CD2       41.0330   57.1680    5.7280 C.ar  373  TYR373     -0.0009
    108  CE1       39.3240   55.4540    7.0680 C.ar  373  TYR373      0.0417
    109  CE2       40.5940   57.4990    7.0020 C.ar  373  TYR373      0.0417
    110  CZ        39.7340   56.6370    7.6700 C.ar  373  TYR373      0.1957
    111  OH        39.2960   56.9740    8.9390 O.3   373  TYR373     -0.2866
    112  N         32.5850   58.5090    8.2600 N.3   385  ILE385     -0.1245
    113  CA        33.0230   59.7270    8.9110 C.3   385  ILE385      0.1561
    114  C         32.4520   60.9840    8.2300 C.2   385  ILE385      0.2260
    115  O         32.8500   62.0950    8.5540 O.2   385  ILE385     -0.2867
    116  CB        34.5790   59.7690    8.9850 C.3   385  ILE385      0.0252
    117  CG1       35.2190   60.0150    7.6060 C.3   385  ILE385      0.0019
    118  CG2       35.1040   58.4460    9.6130 C.3   385  ILE385      0.0019
    119  CD1       36.7760   59.9640    7.6220 C.3   385  ILE385      0.0001
    120  N         30.0200   63.1310    8.5600 N.3   387  LYS387     -0.1245
    121  CA        29.0380   63.5330    9.5640 C.3   387  LYS387      0.1561
    122  C         28.0210   64.5410    9.0130 C.2   387  LYS387      0.2260
    123  O         26.8740   64.5450    9.4560 O.2   387  LYS387     -0.2867
    124  CB        29.7230   64.1080   10.8200 C.3   387  LYS387      0.0271
    125  CG        30.8670   63.2480   11.4060 C.3   387  LYS387      0.0035
    126  CD        30.4900   61.7820   11.5220 C.3   387  LYS387      0.0206
    127  CE        31.5520   60.9760   12.2880 C.3   387  LYS387      0.1093
    128  NZ        31.1250   59.5550   12.4560 N.3   387  LYS387     -0.1314
@<TRIPOS>BOND
     1   100   101    1
     2   101   102    1
     3   101   104    1
     4   102   103    2
     5   104   105    1
     6   105   107   ar
     7   105   106   ar
     8   107   109   ar
     9   106   108   ar
    10   109   110   ar
    11    20    19    2
    12   108   110   ar
    13    94    92   ar
    14    94    95   ar
    15   117   119    1
    16   117   116    1
    17   110   111    1
    18    92    90   ar
    19    95    93   ar
    20    19    18    1
    21   114   115    2
    22   114   113    1
    23   112   113    1
    24    99    98    2
    25   120   121    1
    26    98    97    1
    27    18    17    1
    28    18    21    1
    29    90    89    1
    30    90    91   ar
    31   113   116    1
    32    93    91   ar
    33    89    86    1
    34   116   118    1
    35   122   123    2
    36   122   121    1
    37    24    22    1
    38    22    21    1
    39    22    23    1
    40   121   124    1
    41    88    87    2
    42    97    96    1
    43    36    37    1
    44    39    38    2
    45    38    37    1
    46    87    86    1
    47    87    96   am
    48    86    85    1
    49    37    40    1
    50   124   125    1
    51    85    81   am
    52   125   126    1
    53   126   127    1
    54    74    76   ar
    55    74    72   ar
    56    76    77   ar
    57    81    82    2
    58    81    80    1
    59   127   128    1
    60    40    41    1
    61    71    72    1
    62    71    68    1
    63    29    30    1
    64    29    26    1
    65    72    73   ar
    66    70    69    2
    67    80    79    1
    68    80    83    1
    69    41    42    1
    70    27    28    2
    71    27    26    1
    72    77    78    1
    73    77    75   ar
    74    69    79   am
    75    69    68    1
    76    25    26    1
    77    30    31   ar
    78    30    32   ar
    79    31    33   ar
    80    68    67    1
    81    73    75   ar
    82    32    34   ar
    83    45    44    1
    84    33    35   ar
    85    46    44    1
    86    84    83    1
    87    44    43    2
    88    43    42    1
    89    34    35   ar
    90    65    64   ar
    91    66    64   ar
    92    64    63    1
    93    16    14   ar
    94    13    14    1
    95    13    10    1
    96    57    55    1
    97    63    62    1
    98    14    15   ar
    99    61    60    2
   100    54    55    2
   101    54    53    1
   102    55    56    1
   103    10     9    1
   104    10    11    1
   105    62    59    1
   106    59    60    1
   107    59    58    1
   108    52    53    1
   109    52    51    1
   110    51    48    1
   111    11    12    2
   112     7     6    1
   113    48    49    1
   114    48    47    1
   115    50    49    2
   116     6     8    1
   117     6     5    1
   118     5     2    1
   119     2     3    1
   120     2     1    1
   121     4     3    2
