@<TRIPOS>MOLECULE
tmp/4xkxA00.pdb
 211 204 0 0 0
SMALL
GASTEIGER

@<TRIPOS>ATOM
      1  N         76.8480   42.7840   -0.1750 N.3    13  GLY13      -0.1210
      2  CA        76.4440   42.5940    1.2140 C.3    13  GLY13       0.1956
      3  C         76.5070   43.8380    2.0950 C.2    13  GLY13       0.2612
      4  O         76.1810   43.7580    3.2770 O.2    13  GLY13      -0.2717
      5  N         76.9310   44.9750    1.5380 N.am   14  GLN14      -0.1965
      6  CA        77.0740   46.2260    2.3080 C.3    14  GLN14       0.1733
      7  C         76.1220   47.3330    1.8330 C.2    14  GLN14       0.2616
      8  O         76.2380   48.4860    2.2600 O.2    14  GLN14      -0.2715
      9  CB        78.5220   46.7230    2.2600 C.3    14  GLN14       0.0408
     10  CG        79.5220   45.7880    2.9150 C.3    14  GLN14       0.0908
     11  CD        80.9600   46.2360    2.7320 C.2    14  GLN14       0.2608
     12  OE1       81.2370   47.2990    2.1640 O.2    14  GLN14      -0.2717
     13  NE2       81.8900   45.4210    3.2140 N.am   14  GLN14      -0.0878
     14  N         75.1750   46.9750    0.9640 N.am   15  GLY15      -0.1955
     15  CA        74.1200   47.8960    0.5370 C.3    15  GLY15       0.1869
     16  C         74.4820   48.7580   -0.6620 C.2    15  GLY15       0.2309
     17  O         75.6080   48.7460   -1.1550 O.2    15  GLY15      -0.2863
     18  N         73.7110   55.4720    2.0590 N.3    32  LEU32      -0.1245
     19  CA        73.0260   54.1920    1.8710 C.3    32  LEU32       0.1561
     20  C         71.5540   54.4250    1.5740 C.2    32  LEU32       0.2260
     21  O         70.8730   55.1500    2.2930 O.2    32  LEU32      -0.2867
     22  CB        73.1460   53.3400    3.1430 C.3    32  LEU32       0.0270
     23  CG        72.3990   52.0110    3.2720 C.3    32  LEU32       0.0019
     24  CD1       73.0370   50.9530    2.3840 C.3    32  LEU32       0.0001
     25  CD2       72.4390   51.5540    4.7350 C.3    32  LEU32       0.0001
     26  N         67.8500   53.3350    1.5330 N.3    34  ASP34      -0.1239
     27  CA        67.1170   52.4170    2.4020 C.3    34  ASP34       0.1674
     28  C         65.6240   52.6310    2.3620 C.2    34  ASP34       0.2266
     29  O         65.1120   53.5220    3.0500 O.2    34  ASP34      -0.2867
     30  CB        67.5750   52.5860    3.8660 C.3    34  ASP34       0.1410
     31  CG        67.0340   51.5090    4.7850 C.2    34  ASP34       0.3668
     32  OD1       66.5390   50.4570    4.3120 O.co2  34  ASP34      -0.2456
     33  OD2       67.1340   51.6870    6.0170 O.co2  34  ASP34      -0.2456
     34  N         63.5770   50.7540    3.8210 N.3    36  GLY36      -0.1210
     35  CA        63.0670   50.2250    5.0710 C.3    36  GLY36       0.1956
     36  C         63.2790   51.0760    6.2990 C.2    36  GLY36       0.2612
     37  O         63.1060   50.5940    7.4120 O.2    36  GLY36      -0.2717
     38  N         63.6460   52.3390    6.1190 N.am   37  SER37      -0.1952
     39  CA        63.6440   53.2880    7.2260 C.3    37  SER37       0.1924
     40  C         63.3000   54.6720    6.6970 C.2    37  SER37       0.2314
     41  O         63.1190   54.8500    5.4890 O.2    37  SER37      -0.2863
     42  CB        65.0020   53.2820    7.9300 C.3    37  SER37       0.2116
     43  OG        66.0230   53.8370    7.1250 O.3    37  SER37      -0.2180
     44  N         64.6290   58.0090    8.2820 N.3    39  ASN39      -0.1240
     45  CA        65.4900   59.1230    8.6570 C.3    39  ASN39       0.1653
     46  C         66.6570   59.3130    7.7010 C.2    39  ASN39       0.2266
     47  O         67.2390   58.3470    7.2290 O.2    39  ASN39      -0.2867
     48  CB        66.0640   58.9160   10.0710 C.3    39  ASN39       0.1155
     49  CG        65.0530   59.2040   11.1660 C.2    39  ASN39       0.2627
     50  OD1       64.2050   58.3700   11.4830 O.2    39  ASN39      -0.2716
     51  ND2       65.1520   60.3860   11.7630 N.am   39  ASN39      -0.0877
     52  N         68.2350   56.0230   18.2130 N.3    71  VAL71      -0.1231
     53  CA        67.6720   55.0500   17.2560 C.3    71  VAL71       0.1678
     54  C         68.3180   53.6740   17.3480 C.2    71  VAL71       0.2434
     55  O         69.2280   53.3500   16.5830 O.2    71  VAL71      -0.2733
     56  CB        67.7650   55.5500   15.7860 C.3    71  VAL71       0.0265
     57  CG1       66.9340   54.6530   14.8600 C.3    71  VAL71       0.0020
     58  CG2       67.2990   56.9880   15.6900 C.3    71  VAL71       0.0020
     59  N         67.8460   52.8510   18.2920 N.am   72  PRO72      -0.2718
     60  CA        68.2020   51.4440   18.2180 C.3    72  PRO72       0.1535
     61  C         67.3240   50.7920   17.1620 C.2    72  PRO72       0.2599
     62  O         66.1870   51.2230   16.9510 O.2    72  PRO72      -0.2715
     63  CB        67.9160   50.9210   19.6280 C.3    72  PRO72       0.0310
     64  CG        66.9230   51.8640   20.2150 C.3    72  PRO72       0.0237
     65  CD        67.0220   53.1700   19.4720 C.3    72  PRO72       0.0939
     66  N         67.8900   49.8330   16.4500 N.am   73  TYR73      -0.1960
     67  CA        67.1560   49.0330   15.4850 C.3    73  TYR73       0.1771
     68  C         67.6700   47.6080   15.6560 C.2    73  TYR73       0.2620
     69  O         68.5160   47.3580   16.5280 O.2    73  TYR73      -0.2715
     70  CB        67.3270   49.5770   14.0550 C.3    73  TYR73       0.0574
     71  CG        68.7440   49.5650   13.5230 C.ar   73  TYR73      -0.0198
     72  CD1       69.6560   50.5490   13.9020 C.ar   73  TYR73      -0.0009
     73  CD2       69.1620   48.5830   12.6290 C.ar   73  TYR73      -0.0009
     74  CE1       70.9580   50.5440   13.4250 C.ar   73  TYR73       0.0417
     75  CE2       70.4570   48.5650   12.1390 C.ar   73  TYR73       0.0417
     76  CZ        71.3550   49.5520   12.5410 C.ar   73  TYR73       0.1957
     77  OH        72.6380   49.5380   12.0600 O.3    73  TYR73      -0.2866
     78  N         67.1680   46.6620   14.8650 N.am   74  THR74      -0.1937
     79  CA        67.3120   45.2620   15.2740 C.3    74  THR74       0.2028
     80  C         68.7750   44.8150   15.3380 C.2    74  THR74       0.2642
     81  O         69.1350   44.0670   16.2320 O.2    74  THR74      -0.2714
     82  CB        66.4610   44.2790   14.4300 C.3    74  THR74       0.1808
     83  OG1       66.8590   44.3320   13.0600 O.3    74  THR74      -0.2208
     84  CG2       64.9760   44.6180   14.5490 C.3    74  THR74       0.0379
     85  N         69.6200   45.3070   14.4320 N.am   75  GLN75      -0.1976
     86  CA        71.0170   44.8530   14.3860 C.3    75  GLN75       0.1601
     87  C         72.0710   45.9190   14.7470 C.2    75  GLN75       0.2287
     88  O         73.2490   45.7240   14.4790 O.2    75  GLN75      -0.2864
     89  CB        71.3180   44.2560   13.0030 C.3    75  GLN75       0.0394
     90  CG        70.3820   43.1180   12.6020 C.3    75  GLN75       0.0908
     91  CD        71.1070   41.9620   11.9360 C.2    75  GLN75       0.2608
     92  OE1       71.8520   41.2160   12.5900 O.2    75  GLN75      -0.2717
     93  NE2       70.8810   41.7910   10.6330 N.am   75  GLN75      -0.0878
     94  N         72.2000   53.9790   16.3400 N.3    78  TRP78      -0.1241
     95  CA        72.8420   55.2740   16.2050 C.3    78  TRP78       0.1605
     96  C         72.0830   56.2900   17.0180 C.2    78  TRP78       0.2264
     97  O         70.9010   56.0960   17.3360 O.2    78  TRP78      -0.2867
     98  CB        72.9870   55.6910   14.7320 C.3    78  TRP78       0.0550
     99  CG        71.6920   55.9360   14.0040 C.ar   78  TRP78       0.0003
    100  CD1       70.9580   55.0370   13.2140 C.ar   78  TRP78       0.0946
    101  CD2       70.9400   57.1830   13.9590 C.ar   78  TRP78       0.0152
    102  NE1       69.8270   55.6450   12.7130 N.ar   78  TRP78      -0.2442
    103  CE2       69.7680   56.9340   13.1100 C.ar   78  TRP78       0.0810
    104  CE3       71.1200   58.4500   14.5040 C.ar   78  TRP78       0.0012
    105  CZ2       68.8250   57.9140   12.8630 C.ar   78  TRP78       0.0191
    106  CZ3       70.1590   59.4320   14.2400 C.ar   78  TRP78       0.0001
    107  CH2       69.0370   59.1660   13.4380 C.ar   78  TRP78       0.0015
    108  N         76.5830   50.1010   13.2550 N.3   110  PHE110     -0.1241
    109  CA        75.8350   50.8090   12.2240 C.3   110  PHE110      0.1605
    110  C         76.7410   50.9710   11.0200 C.2   110  PHE110      0.2264
    111  O         76.4390   50.4500    9.9380 O.2   110  PHE110     -0.2867
    112  CB        75.3440   52.1500   12.7400 C.3   110  PHE110      0.0534
    113  CG        74.7210   53.0330   11.6870 C.ar  110  PHE110     -0.0203
    114  CD1       73.4820   52.7340   11.1440 C.ar  110  PHE110     -0.0042
    115  CD2       75.3770   54.1760   11.2560 C.ar  110  PHE110     -0.0042
    116  CE1       72.9090   53.5570   10.1770 C.ar  110  PHE110     -0.0003
    117  CE2       74.8110   55.0080   10.2930 C.ar  110  PHE110     -0.0003
    118  CZ        73.5680   54.6960    9.7580 C.ar  110  PHE110     -0.0000
    119  N         79.9370   50.1800    8.6920 N.3   112  ILE112     -0.1245
    120  CA        80.5550   48.9160    8.3090 C.3   112  ILE112      0.1561
    121  C         82.0410   49.1380    8.0490 C.2   112  ILE112      0.2260
    122  O         82.4230   50.0280    7.2820 O.2   112  ILE112     -0.2867
    123  CB        79.8880   48.3230    7.0430 C.3   112  ILE112      0.0252
    124  CG1       78.4230   47.9770    7.3340 C.3   112  ILE112      0.0019
    125  CG2       80.6500   47.0820    6.5550 C.3   112  ILE112      0.0019
    126  CD1       77.6320   47.5610    6.0960 C.3   112  ILE112      0.0001
    127  N         80.2560   54.1290    2.4530 N.3   117  TRP117     -0.1241
    128  CA        79.1800   55.0770    2.7410 C.3   117  TRP117      0.1605
    129  C         79.2670   55.5870    4.1600 C.2   117  TRP117      0.2264
    130  O         79.8650   54.9460    5.0220 O.2   117  TRP117     -0.2867
    131  CB        77.7960   54.4890    2.4150 C.3   117  TRP117      0.0550
    132  CG        77.4420   53.1910    3.1020 C.ar  117  TRP117      0.0003
    133  CD1       77.5060   51.9100    2.5760 C.ar  117  TRP117      0.0946
    134  CD2       76.9060   53.0070    4.4590 C.ar  117  TRP117      0.0152
    135  NE1       77.0980   50.9880    3.4880 N.ar  117  TRP117     -0.2442
    136  CE2       76.7140   51.5750    4.6280 C.ar  117  TRP117      0.0810
    137  CE3       76.5920   53.8570    5.5090 C.ar  117  TRP117      0.0012
    138  CZ2       76.2280   51.0370    5.7970 C.ar  117  TRP117      0.0191
    139  CZ3       76.0970   53.3050    6.6840 C.ar  117  TRP117      0.0001
    140  CH2       75.9210   51.9290    6.8250 C.ar  117  TRP117      0.0015
    141  N         72.8130   57.2990    5.9690 N.3   120  ILE120     -0.1245
    142  CA        71.6400   56.5140    5.5390 C.3   120  ILE120      0.1561
    143  C         70.5210   57.4400    5.0860 C.2   120  ILE120      0.2260
    144  O         70.2650   58.4590    5.7280 O.2   120  ILE120     -0.2867
    145  CB        71.1530   55.5720    6.6690 C.3   120  ILE120      0.0252
    146  CG1       70.0920   54.5840    6.1620 C.3   120  ILE120      0.0019
    147  CG2       70.6860   56.3610    7.9020 C.3   120  ILE120      0.0019
    148  CD1       69.8240   53.4510    7.1310 C.3   120  ILE120      0.0001
    149  N         57.2270   55.8480   10.5900 N.3   128  ILE128     -0.1245
    150  CA        58.3180   55.1260   11.2490 C.3   128  ILE128      0.1561
    151  C         59.5930   55.9600   11.4420 C.2   128  ILE128      0.2260
    152  O         60.6420   55.4260   11.8140 O.2   128  ILE128     -0.2867
    153  CB        58.6110   53.7640   10.5640 C.3   128  ILE128      0.0252
    154  CG1       59.0600   53.9310    9.1120 C.3   128  ILE128      0.0019
    155  CG2       57.3870   52.8680   10.6300 C.3   128  ILE128      0.0019
    156  CD1       59.4650   52.6160    8.4680 C.3   128  ILE128      0.0001
    157  N         62.0830   58.6350   13.3400 N.3   130  ARG130     -0.1245
    158  CA        62.3930   58.8850   14.7440 C.3   130  ARG130      0.1563
    159  C         62.8060   60.3440   14.8890 C.2   130  ARG130      0.2260
    160  O         63.4490   60.8980   14.0010 O.2   130  ARG130     -0.2867
    161  CB        63.5060   57.9570   15.2530 C.3   130  ARG130      0.0307
    162  CG        63.2970   56.4790   14.9560 C.3   130  ARG130      0.0489
    163  CD        62.2670   55.8110   15.8580 C.3   130  ARG130      0.2205
    164  NE        61.8980   54.4890   15.3320 N.pl3 130  ARG130     -0.0865
    165  CZ        60.7470   54.1860   14.7130 C.cat 130  ARG130      0.5346
    166  NH1       59.7850   55.0930   14.5550 N.pl3 130  ARG130      0.1354
    167  NH2       60.5410   52.9500   14.2590 N.pl3 130  ARG130      0.1354
    168  N         56.2600   51.4730    6.4860 N.3   189  TYR189     -0.1241
    169  CA        57.1260   50.7660    5.5530 C.3   189  TYR189      0.1605
    170  C         56.4370   50.7650    4.1910 C.2   189  TYR189      0.2264
    171  O         55.2900   51.1840    4.0770 O.2   189  TYR189     -0.2867
    172  CB        57.3120   49.3130    5.9790 C.3   189  TYR189      0.0534
    173  CG        58.0070   49.1870    7.3010 C.ar  189  TYR189     -0.0201
    174  CD1       59.3960   49.2010    7.3690 C.ar  189  TYR189     -0.0009
    175  CD2       57.2850   49.1300    8.4900 C.ar  189  TYR189     -0.0009
    176  CE1       60.0490   49.1110    8.5850 C.ar  189  TYR189      0.0417
    177  CE2       57.9330   49.0510    9.7150 C.ar  189  TYR189      0.0417
    178  CZ        59.3140   49.0420    9.7510 C.ar  189  TYR189      0.1957
    179  OH        59.9660   48.9420   10.9650 O.3   189  TYR189     -0.2866
    180  N         62.2960   46.2660    0.7570 N.3   219  ASP219     -0.1225
    181  CA        63.3960   46.8410    1.5390 C.3   219  ASP219      0.1805
    182  C         64.7540   46.7400    0.8750 C.2   219  ASP219      0.2598
    183  O         65.4100   45.7000    0.9360 O.2   219  ASP219     -0.2718
    184  CB        63.4510   46.1520    2.8970 C.3   219  ASP219      0.1424
    185  CG        64.4140   46.8250    3.8640 C.2   219  ASP219      0.3668
    186  OD1       64.9350   47.9150    3.5610 O.co2 219  ASP219     -0.2456
    187  OD2       64.6240   46.2470    4.9450 O.co2 219  ASP219     -0.2456
    188  N         65.2020   47.8370    0.2770 N.am  220  SER220     -0.1938
    189  CA        66.5390   47.9050   -0.2960 C.3   220  SER220      0.2055
    190  C         67.6710   47.8140    0.7330 C.2   220  SER220      0.2644
    191  O         68.8330   47.6380    0.3500 O.2   220  SER220     -0.2714
    192  CB        66.7120   49.2100   -1.0980 C.3   220  SER220      0.2130
    193  OG        66.5920   50.3360   -0.2490 O.3   220  SER220     -0.2179
    194  N         67.3370   47.9950    2.0110 N.am  221  GLY221     -0.1939
    195  CA        68.3100   47.9750    3.0990 C.3   221  GLY221      0.2014
    196  C         68.4930   46.6180    3.7490 C.2   221  GLY221      0.2640
    197  O         69.1780   46.5130    4.7620 O.2   221  GLY221     -0.2714
    198  N         67.8720   45.5900    3.1770 N.am  222  THR222     -0.1936
    199  CA        68.0700   44.1880    3.5930 C.3   222  THR222      0.2028
    200  C         68.6080   43.3580    2.4310 C.2   222  THR222      0.2642
    201  O         68.1560   43.4600    1.2870 O.2   222  THR222     -0.2714
    202  CB        66.7660   43.5630    4.1230 C.3   222  THR222      0.1808
    203  OG1       66.3850   44.2350    5.3130 O.3   222  THR222     -0.2208
    204  CG2       66.9430   42.0460    4.4300 C.3   222  THR222      0.0379
    205  N         69.6260   42.5520    2.7080 N.am  223  THR223     -0.1950
    206  CA        70.2340   41.7570    1.6650 C.3   223  THR223      0.1897
    207  C         69.3480   40.5850    1.2320 C.2   223  THR223      0.2313
    208  O         69.1440   40.3660    0.0280 O.2   223  THR223     -0.2863
    209  CB        71.5950   41.2150    2.1190 C.3   223  THR223      0.1794
    210  OG1       72.4650   42.3320    2.3840 O.3   223  THR223     -0.2208
    211  CG2       72.1870   40.3120    1.0290 C.3   223  THR223      0.0378
@<TRIPOS>BOND
     1    17    16    2
     2   192   189    1
     3   192   193    1
     4    16    15    1
     5   189   188    1
     6   189   190    1
     7     1     2    1
     8   208   207    2
     9   188   182   am
    10   191   190    2
    11    15    14    1
    12   190   194   am
    13   180   181    1
    14   182   183    2
    15   182   181    1
    16    14     7   am
    17   211   209    1
    18     2     3    1
    19   207   206    1
    20   201   200    2
    21    26    27    1
    22     5     3   am
    23     5     6    1
    24   181   184    1
    25    20    19    1
    26    20    21    2
    27   206   209    1
    28   206   205    1
    29     7     8    2
    30     7     6    1
    31    19    18    1
    32    19    22    1
    33   194   195    1
    34     3     4    2
    35   209   210    1
    36    12    11    2
    37     9     6    1
    38     9    10    1
    39    28    27    1
    40    28    29    2
    41    24    23    1
    42    27    30    1
    43   131   128    1
    44   131   132    1
    45   200   205   am
    46   200   199    1
    47   127   128    1
    48   133   132   ar
    49   133   135   ar
    50    11    10    1
    51    11    13   am
    52   128   129    1
    53   184   185    1
    54   195   196    1
    55   132   134   ar
    56    22    23    1
    57   198   199    1
    58   198   196   am
    59    23    25    1
    60   135   136   ar
    61   186   185   ar
    62   199   202    1
    63   196   197    2
    64    34    35    1
    65   185   187   ar
    66    30    31    1
    67   171   170    2
    68   202   204    1
    69   202   203    1
    70   129   130    2
    71   170   169    1
    72    32    31   ar
    73   134   136   ar
    74   134   137   ar
    75   136   138   ar
    76    31    33   ar
    77    35    36    1
    78   143   142    1
    79   143   144    2
    80    41    40    2
    81   137   139   ar
    82   142   141    1
    83   142   145    1
    84   169   172    1
    85   169   168    1
    86   138   140   ar
    87   172   173    1
    88   126   124    1
    89    38    36   am
    90    38    39    1
    91   146   145    1
    92   146   148    1
    93    36    37    2
    94   125   123    1
    95   145   147    1
    96   139   140   ar
    97    40    39    1
    98   123   124    1
    99   123   120    1
   100    43    42    1
   101    39    42    1
   102    47    46    2
   103   122   121    2
   104   173   174   ar
   105   173   175   ar
   106   174   176   ar
   107    46    45    1
   108   121   120    1
   109    44    45    1
   110   120   119    1
   111   156   154    1
   112   175   177   ar
   113   176   178   ar
   114    45    48    1
   115   154   153    1
   116   177   178   ar
   117   178   179    1
   118   118   116   ar
   119   118   117   ar
   120   111   110    2
   121    48    49    1
   122   116   114   ar
   123   117   115   ar
   124   153   155    1
   125   153   150    1
   126   149   150    1
   127    93    91   am
   128   110   109    1
   129   114   113   ar
   130    49    50    2
   131    49    51   am
   132   150   151    1
   133   115   113   ar
   134   151   152    2
   135   113   112    1
   136    91    92    2
   137    91    90    1
   138    77    76    1
   139    75    76   ar
   140    75    73   ar
   141   109   112    1
   142   109   108    1
   143    76    74   ar
   144    90    89    1
   145    73    71   ar
   146   102   103   ar
   147   102   100   ar
   148   105   103   ar
   149   105   107   ar
   150    89    86    1
   151    83    82    1
   152   103   101   ar
   153   100    99   ar
   154   157   158    1
   155    74    72   ar
   156   107   106   ar
   157    71    72   ar
   158    71    70    1
   159   101    99   ar
   160   101   104   ar
   161   160   159    2
   162    99    98    1
   163    70    67    1
   164   106   104   ar
   165   167   165    1
   166    86    85    1
   167    86    87    1
   168    82    84    1
   169    82    79    1
   170    85    80   am
   171    88    87    2
   172   166   165    1
   173   165   164    2
   174    98    95    1
   175   158   159    1
   176   158   161    1
   177    57    56    1
   178    78    79    1
   179    78    68   am
   180   162   161    1
   181   162   163    1
   182    79    80    1
   183   164   163    1
   184    80    81    2
   185    67    68    1
   186    67    66    1
   187    68    69    2
   188    58    56    1
   189    56    53    1
   190    95    94    1
   191    95    96    1
   192    66    61   am
   193    55    54    2
   194    62    61    2
   195    96    97    2
   196    61    60    1
   197    53    54    1
   198    53    52    1
   199    54    59   am
   200    60    59    1
   201    60    63    1
   202    59    65    1
   203    65    64    1
   204    63    64    1
