@<TRIPOS>MOLECULE
tmp/4xl4A00.pdb
 215 202 0 0 0
SMALL
GASTEIGER

@<TRIPOS>ATOM
      1  N         11.4630   -6.3940    4.3670 N.3    17  TYR17      -0.1241
      2  CA        10.6760   -6.0250    3.2070 C.3    17  TYR17       0.1605
      3  C          9.5460   -5.1210    3.6500 C.2    17  TYR17       0.2264
      4  O          8.7430   -5.5070    4.4420 O.2    17  TYR17      -0.2867
      5  CB        10.0660   -7.3240    2.6760 C.3    17  TYR17       0.0534
      6  CG         9.3320   -7.2820    1.3720 C.ar   17  TYR17      -0.0201
      7  CD1        9.9470   -6.8500    0.2230 C.ar   17  TYR17      -0.0009
      8  CD2        8.0300   -7.7280    1.2780 C.ar   17  TYR17      -0.0009
      9  CE1        9.2860   -6.8430   -0.9770 C.ar   17  TYR17       0.0417
     10  CE2        7.3580   -7.7220    0.0810 C.ar   17  TYR17       0.0417
     11  CZ         7.9850   -7.2820   -1.0420 C.ar   17  TYR17       0.1957
     12  OH         7.3480   -7.2860   -2.2290 O.3    17  TYR17      -0.2866
     13  N         22.2360  -13.1910   -7.1740 N.3    88  CYS88      -0.1235
     14  CA        22.7380  -13.2070   -5.7670 C.3    88  CYS88       0.1677
     15  C         24.2570  -13.0360   -5.6120 C.2    88  CYS88       0.2270
     16  O         24.7310  -12.6730   -4.5560 O.2    88  CYS88      -0.2867
     17  CB        22.3200  -14.5220   -5.0360 C.3    88  CYS88       0.0956
     18  SG        20.7260  -15.1930   -5.5410 S.3    88  CYS88      -0.0801
     19  N         14.8710   -4.2610   -2.2850 N.3   118  MET118     -0.1245
     20  CA        13.8020   -5.0920   -2.7560 C.3   118  MET118      0.1570
     21  C         12.4260   -4.5170   -2.4550 C.2   118  MET118      0.2261
     22  O         11.5150   -4.6910   -3.2610 O.2   118  MET118     -0.2867
     23  CB        13.9350   -6.5080   -2.2050 C.3   118  MET118      0.0387
     24  CG        15.2880   -7.1080   -2.5600 C.3   118  MET118      0.0595
     25  SD        15.5430   -8.7910   -2.0060 S.3   118  MET118     -0.1393
     26  CE        14.4700   -9.7140   -3.0700 C.3   118  MET118      0.0692
     27  N         14.6250  -11.1530   -9.9970 N.3   147  GLY147     -0.1210
     28  CA        15.4340  -11.6610   -8.9260 C.3   147  GLY147      0.1956
     29  C         15.1700  -13.0540   -8.3930 C.2   147  GLY147      0.2611
     30  O         16.0720  -13.6620   -7.8800 O.2   147  GLY147     -0.2717
     31  N         13.9300  -13.5170   -8.4720 N.am  148  LEU148     -0.1979
     32  CA        13.5240  -14.7300   -7.7720 C.3   148  LEU148      0.1596
     33  C         12.9640  -15.8560   -8.6140 C.2   148  LEU148      0.2287
     34  O         12.5360  -16.8460   -8.0750 O.2   148  LEU148     -0.2864
     35  CB        12.5190  -14.3860   -6.6870 C.3   148  LEU148      0.0297
     36  CG        12.9380  -13.2710   -5.7430 C.3   148  LEU148      0.0022
     37  CD1       11.8160  -12.9310   -4.8010 C.3   148  LEU148      0.0001
     38  CD2       14.1810  -13.6860   -4.9880 C.3   148  LEU148      0.0001
     39  N          9.7650  -20.5190   -9.0820 N.3   156  HIS156     -0.1226
     40  CA        10.4360  -19.7370   -8.0560 C.3   156  HIS156      0.1752
     41  C         11.7560  -20.3950   -7.6410 C.2   156  HIS156      0.2595
     42  O         11.8930  -21.5800   -7.6750 O.2   156  HIS156     -0.2718
     43  CB         9.5280  -19.5970   -6.8180 C.3   156  HIS156      0.0759
     44  CG         9.8780  -18.4500   -5.9160 C.ar  156  HIS156      0.0818
     45  ND1       10.9640  -18.4610   -5.0750 N.ar  156  HIS156     -0.2268
     46  CD2        9.2540  -17.2720   -5.7020 C.ar  156  HIS156      0.1154
     47  CE1       11.0070  -17.3300   -4.3990 C.ar  156  HIS156      0.1986
     48  NE2        9.9860  -16.5870   -4.7680 N.ar  156  HIS156     -0.2212
     49  N         12.7230  -19.5950   -7.2500 N.am  157  MET157     -0.1979
     50  CA        13.8910  -20.1260   -6.5850 C.3   157  MET157      0.1605
     51  C         13.5470  -21.0990   -5.4280 C.2   157  MET157      0.2287
     52  O         14.3050  -22.0570   -5.1490 O.2   157  MET157     -0.2864
     53  CB        14.7920  -19.0200   -5.9570 C.3   157  MET157      0.0413
     54  CG        15.4780  -18.0780   -6.9200 C.3   157  MET157      0.0598
     55  SD        16.5800  -18.8980   -8.0660 S.3   157  MET157     -0.1393
     56  CE        15.5190  -19.3050   -9.4100 C.3   157  MET157      0.0692
     57  N         19.0150  -18.4410   13.6180 N.3   183  GLN183     -0.1245
     58  CA        18.3550  -17.4340   14.4190 C.3   183  GLN183      0.1566
     59  C         19.0720  -17.2450   15.7470 C.2   183  GLN183      0.2260
     60  O         19.3080  -16.0980   16.1660 O.2   183  GLN183     -0.2867
     61  CB        16.8890  -17.8030   14.7080 C.3   183  GLN183      0.0367
     62  CG        15.9990  -17.8230   13.4690 C.3   183  GLN183      0.0905
     63  CD        15.6110  -16.4760   13.0070 C.2   183  GLN183      0.2608
     64  OE1       15.9460  -15.4710   13.6520 O.2   183  GLN183     -0.2717
     65  NE2       14.9000  -16.4170   11.8610 N.am  183  GLN183     -0.0878
     66  N         15.6260   -8.1720   10.5860 N.3   218  HIS218     -0.1241
     67  CA        14.9700   -9.3770   10.1230 C.3   218  HIS218      0.1621
     68  C         14.9380  -10.5620   11.1440 C.2   218  HIS218      0.2264
     69  O         14.0120  -11.3940   11.1200 O.2   218  HIS218     -0.2867
     70  CB        15.5620   -9.8310    8.8150 C.3   218  HIS218      0.0745
     71  CG        14.7250  -10.8670    8.1210 C.ar  218  HIS218      0.0817
     72  ND1       13.5240  -10.5680    7.5160 N.ar  218  HIS218     -0.2268
     73  CD2       14.8920  -12.2010    7.9700 C.ar  218  HIS218      0.1154
     74  CE1       12.9960  -11.6540    6.9830 C.ar  218  HIS218      0.1986
     75  NE2       13.7960  -12.6700    7.2550 N.ar  218  HIS218     -0.2212
     76  N         14.2420  -13.0260   14.1190 N.3   220  ARG220     -0.1245
     77  CA        13.1240  -13.2530   15.0350 C.3   220  ARG220      0.1563
     78  C         13.6510  -13.8090   16.3460 C.2   220  ARG220      0.2260
     79  O         13.9070  -14.9890   16.4640 O.2   220  ARG220     -0.2867
     80  CB        12.1270  -14.1850   14.3800 C.3   220  ARG220      0.0307
     81  CG        11.5120  -13.4910   13.1840 C.3   220  ARG220      0.0489
     82  CD        10.5560  -14.3850   12.4450 C.3   220  ARG220      0.2205
     83  NE         9.2500  -14.2690   13.0360 N.pl3 220  ARG220     -0.0865
     84  CZ         8.2490  -13.5820   12.5000 C.cat 220  ARG220      0.5346
     85  NH1        7.1200  -13.5690   13.1410 N.pl3 220  ARG220      0.1354
     86  NH2        8.3680  -12.9460   11.3310 N.pl3 220  ARG220      0.1354
     87  N         13.1160  -17.3630   18.6370 N.3   223  SER223     -0.1202
     88  CA        12.6250  -18.3800   17.7330 C.3   223  SER223      0.2020
     89  C         12.6080  -19.7250   18.4600 C.2   223  SER223      0.2619
     90  O         13.4750  -19.9780   19.3030 O.2   223  SER223     -0.2717
     91  CB        13.4310  -18.4490   16.4090 C.3   223  SER223      0.2103
     92  OG        13.0720  -17.3500   15.5540 O.3   223  SER223     -0.2182
     93  N         11.6400  -20.5770   18.0890 N.am  224  THR224     -0.1952
     94  CA        11.5320  -21.9300   18.6920 C.3   224  THR224      0.1897
     95  C         11.3290  -22.9640   17.6420 C.2   224  THR224      0.2313
     96  O         10.8150  -22.7120   16.5330 O.2   224  THR224     -0.2863
     97  CB        10.3240  -22.0710   19.6870 C.3   224  THR224      0.1794
     98  OG1        9.0700  -21.9160   18.9900 O.3   224  THR224     -0.2208
     99  CG2       10.4160  -21.0610   20.8120 C.3   224  THR224      0.0378
    100  N          7.6460  -23.2410   16.7830 N.3   227  GLY227     -0.1210
    101  CA         7.2030  -22.1200   15.9340 C.3   227  GLY227      0.1956
    102  C          7.5010  -22.4440   14.4680 C.2   227  GLY227      0.2611
    103  O          6.6910  -22.2130   13.5680 O.2   227  GLY227     -0.2717
    104  N          8.6470  -23.0640   14.2280 N.am  228  LEU228     -0.1979
    105  CA         9.0790  -23.3700   12.8740 C.3   228  LEU228      0.1596
    106  C          8.2840  -24.5600   12.3280 C.2   228  LEU228      0.2287
    107  O          7.9420  -24.5980   11.1430 O.2   228  LEU228     -0.2864
    108  CB        10.5810  -23.6290   12.8290 C.3   228  LEU228      0.0297
    109  CG        11.4300  -22.3750   13.0860 C.3   228  LEU228      0.0022
    110  CD1       12.8840  -22.6850   13.4320 C.3   228  LEU228      0.0001
    111  CD2       11.3610  -21.5220   11.7960 C.3   228  LEU228      0.0001
    112  N          4.7820  -23.9170   10.6020 N.3   231  LEU231     -0.1245
    113  CA         4.6450  -23.0830    9.4340 C.3   231  LEU231      0.1561
    114  C          4.1870  -23.8620    8.2190 C.2   231  LEU231      0.2260
    115  O          4.6060  -24.9710    8.0040 O.2   231  LEU231     -0.2867
    116  CB         6.0060  -22.4050    9.0930 C.3   231  LEU231      0.0270
    117  CG         6.5070  -21.4580   10.1860 C.3   231  LEU231      0.0019
    118  CD1        7.7670  -20.7430    9.7230 C.3   231  LEU231      0.0001
    119  CD2        5.4600  -20.4390   10.5880 C.3   231  LEU231      0.0001
    120  N          5.9170  -22.8320    1.7520 N.3   234  ALA234     -0.1231
    121  CA         5.7960  -21.5880    1.0230 C.3   234  ALA234      0.1694
    122  C          5.6500  -21.7050   -0.4920 C.2   234  ALA234      0.2592
    123  O          5.1730  -20.7690   -1.1180 O.2   234  ALA234     -0.2718
    124  CB         6.9890  -20.6630    1.3460 C.3   234  ALA234      0.0304
    125  N          6.0620  -22.8140   -1.0850 N.am  235  PHE235     -0.1976
    126  CA         6.2060  -22.8830   -2.5440 C.3   235  PHE235      0.1639
    127  C          5.4790  -23.9980   -3.2470 C.2   235  PHE235      0.2290
    128  O          5.2560  -23.9040   -4.4730 O.2   235  PHE235     -0.2864
    129  CB         7.7040  -22.9560   -2.8970 C.3   235  PHE235      0.0560
    130  CG         8.4390  -21.7430   -2.4620 C.ar  235  PHE235     -0.0200
    131  CD1        8.2330  -20.5380   -3.0960 C.ar  235  PHE235     -0.0042
    132  CD2        9.2720  -21.7900   -1.3450 C.ar  235  PHE235     -0.0042
    133  CE1        8.8770  -19.3940   -2.6410 C.ar  235  PHE235     -0.0003
    134  CE2        9.9170  -20.6310   -0.8800 C.ar  235  PHE235     -0.0003
    135  CZ         9.7200  -19.4460   -1.5300 C.ar  235  PHE235     -0.0000
    136  N          8.5610  -20.1500    4.9520 N.3   243  ALA243     -0.1231
    137  CA         9.1420  -18.8290    5.2570 C.3   243  ALA243      0.1694
    138  C         10.1860  -18.8940    6.3810 C.2   243  ALA243      0.2592
    139  O         11.0650  -18.0490    6.4520 O.2   243  ALA243     -0.2718
    140  CB         8.0720  -17.8160    5.6070 C.3   243  ALA243      0.0304
    141  N         10.0550  -19.8660    7.2640 N.am  244  GLY244     -0.1957
    142  CA        10.9540  -19.9630    8.4310 C.3   244  GLY244      0.1869
    143  C         12.3010  -20.5950    8.1360 C.2   244  GLY244      0.2309
    144  O         13.2510  -20.4470    8.8870 O.2   244  GLY244     -0.2863
    145  N         13.6760  -20.3500    4.8840 N.3   246  ALA246     -0.1231
    146  CA        14.1010  -19.7190    3.6390 C.3   246  ALA246      0.1694
    147  C         14.5420  -18.3350    4.0650 C.2   246  ALA246      0.2593
    148  O         14.0710  -17.8240    5.0800 O.2   246  ALA246     -0.2718
    149  CB        12.9630  -19.6260    2.6440 C.3   246  ALA246      0.0304
    150  N         15.4720  -17.7570    3.3150 N.am  247  SER247     -0.1938
    151  CA        15.9410  -16.3720    3.5510 C.3   247  SER247      0.2055
    152  C         14.7860  -15.4140    3.1850 C.2   247  SER247      0.2644
    153  O         13.7970  -15.8470    2.6300 O.2   247  SER247     -0.2714
    154  CB        17.1590  -16.1050    2.6670 C.3   247  SER247      0.2130
    155  OG        16.8850  -16.2970    1.2640 O.3   247  SER247     -0.2179
    156  N         14.9130  -14.1350    3.5140 N.am  248  GLY248     -0.1939
    157  CA        13.8380  -13.1720    3.2740 C.3   248  GLY248      0.2014
    158  C         14.0820  -12.2970    2.0710 C.2   248  GLY248      0.2638
    159  O         15.1030  -12.4200    1.3740 O.2   248  GLY248     -0.2714
    160  N         13.1940  -11.3350    1.9160 N.am  249  LEU249     -0.1977
    161  CA        13.2950  -10.2750    0.9260 C.3   249  LEU249      0.1596
    162  C         13.7400   -9.0320    1.7150 C.2   249  LEU249      0.2287
    163  O         13.0920   -8.6950    2.6970 O.2   249  LEU249     -0.2864
    164  CB        11.8990  -10.0490    0.3040 C.3   249  LEU249      0.0297
    165  CG        11.1770  -11.3130   -0.1810 C.3   249  LEU249      0.0022
    166  CD1        9.7120  -11.0180   -0.5180 C.3   249  LEU249      0.0001
    167  CD2       11.9240  -11.8810   -1.3730 C.3   249  LEU249      0.0001
    168  N         20.2750  -24.7930   -8.3680 N.3   288  MET288     -0.1245
    169  CA        21.1970  -23.6710   -8.3330 C.3   288  MET288      0.1570
    170  C         21.8290  -23.5450   -6.9550 C.2   288  MET288      0.2261
    171  O         22.9270  -23.0760   -6.8280 O.2   288  MET288     -0.2867
    172  CB        20.4990  -22.3720   -8.7450 C.3   288  MET288      0.0387
    173  CG        19.4480  -21.8990   -7.7680 C.3   288  MET288      0.0595
    174  SD        20.1310  -20.8150   -6.5100 S.3   288  MET288     -0.1393
    175  CE        18.9870  -21.0540   -5.1670 C.3   288  MET288      0.0692
    176  N         20.6630  -19.0020    1.4760 N.3   318  ALA318     -0.1231
    177  CA        19.4910  -18.7420    0.6600 C.3   318  ALA318      0.1694
    178  C         18.2980  -19.5730    1.1210 C.2   318  ALA318      0.2592
    179  O         17.1700  -19.0570    1.2500 O.2   318  ALA318     -0.2718
    180  CB        19.8130  -19.0340   -0.7960 C.3   318  ALA318      0.0304
    181  N         18.5390  -20.8520    1.3520 N.am  319  PHE319     -0.1976
    182  CA        17.5040  -21.7730    1.9020 C.3   319  PHE319      0.1639
    183  C         18.2400  -22.8030    2.7340 C.2   319  PHE319      0.2290
    184  O         19.3910  -23.2270    2.3980 O.2   319  PHE319     -0.2864
    185  CB        16.7640  -22.5220    0.8110 C.3   319  PHE319      0.0560
    186  CG        16.0660  -21.6520   -0.1520 C.ar  319  PHE319     -0.0200
    187  CD1       14.7860  -21.2310    0.0830 C.ar  319  PHE319     -0.0042
    188  CD2       16.7160  -21.2500   -1.3250 C.ar  319  PHE319     -0.0042
    189  CE1       14.1590  -20.3830   -0.8360 C.ar  319  PHE319     -0.0003
    190  CE2       16.0940  -20.3880   -2.2090 C.ar  319  PHE319     -0.0003
    191  CZ        14.8080  -19.9730   -1.9510 C.ar  319  PHE319     -0.0000
    192  N         18.3170  -11.6200    2.9350 N.3   348  HIS348     -0.1241
    193  CA        19.0060  -11.8480    1.6930 C.3   348  HIS348      0.1621
    194  C         18.7630  -10.7300    0.6660 C.2   348  HIS348      0.2264
    195  O         17.9710  -10.8780   -0.2350 O.2   348  HIS348     -0.2867
    196  CB        18.6410  -13.2110    1.1270 C.3   348  HIS348      0.0745
    197  CG        19.3790  -13.5590   -0.1230 C.ar  348  HIS348      0.0817
    198  ND1       20.7050  -13.2590   -0.3070 N.ar  348  HIS348     -0.2268
    199  CD2       18.9730  -14.1640   -1.2560 C.ar  348  HIS348      0.1154
    200  CE1       21.0870  -13.6680   -1.4960 C.ar  348  HIS348      0.1986
    201  NE2       20.0540  -14.2220   -2.0940 N.ar  348  HIS348     -0.2212
    202  N         19.4920   -9.1850   -2.4390 N.3   350  ILE350     -0.1245
    203  CA        20.1260  -10.0600   -3.3840 C.3   350  ILE350      0.1561
    204  C         21.4080   -9.4720   -3.9440 C.2   350  ILE350      0.2260
    205  O         22.4150  -10.0860   -3.8530 O.2   350  ILE350     -0.2867
    206  CB        19.2250  -10.2190   -4.6290 C.3   350  ILE350      0.0252
    207  CG1       17.8430  -10.7350   -4.2780 C.3   350  ILE350      0.0019
    208  CG2       19.8570  -11.1290   -5.6680 C.3   350  ILE350      0.0019
    209  CD1       16.9160  -10.6680   -5.4650 C.3   350  ILE350      0.0001
    210  N         25.2690  -19.2980   -3.4070 N.3   378  SER378     -0.1217
    211  CA        24.5320  -19.7760   -4.5700 C.3   378  SER378      0.1889
    212  C         23.9830  -18.6140   -5.3820 C.2   378  SER378      0.2288
    213  O         23.8290  -17.5310   -4.8720 O.2   378  SER378     -0.2866
    214  CB        23.3930  -20.7310   -4.1750 C.3   378  SER378      0.2089
    215  OG        22.4130  -20.1210   -3.3580 O.3   378  SER378     -0.2183
@<TRIPOS>BOND
     1    27    28    1
     2    56    55    1
     3    39    40    1
     4    28    29    1
     5   172   169    1
     6   172   173    1
     7    33    34    2
     8    33    32    1
     9    31    29   am
    10    31    32    1
    11    29    30    2
    12   168   169    1
    13   169   170    1
    14    55    54    1
    15    40    41    1
    16    40    43    1
    17    32    35    1
    18   173   174    1
    19    42    41    2
    20    41    49   am
    21    49    50    1
    22    13    14    1
    23   170   171    2
    24    54    53    1
    25    43    44    1
    26    35    36    1
    27    50    53    1
    28    50    51    1
    29   174   175    1
    30    44    46   ar
    31    44    45   ar
    32    14    15    1
    33    14    17    1
    34    36    38    1
    35    36    37    1
    36    46    48   ar
    37   208   206    1
    38    15    16    2
    39    18    17    1
    40   209   207    1
    41    51    52    2
    42   212   213    2
    43   212   211    1
    44    45    47   ar
    45    48    47   ar
    46   206   207    1
    47   206   203    1
    48   211   214    1
    49   211   210    1
    50   128   127    2
    51   214   215    1
    52   204   205    2
    53   204   203    1
    54   203   202    1
    55    22    21    2
    56   127   126    1
    57   131   133   ar
    58   131   130   ar
    59    26    25    1
    60   129   126    1
    61   129   130    1
    62    20    21    1
    63    20    19    1
    64    20    23    1
    65   133   135   ar
    66    24    23    1
    67    24    25    1
    68   126   125    1
    69   130   132   ar
    70    12    11    1
    71   190   191   ar
    72   190   188   ar
    73   201   200   ar
    74   201   199   ar
    75   191   189   ar
    76   135   134   ar
    77   200   198   ar
    78   167   165    1
    79   132   134   ar
    80   188   186   ar
    81   199   197   ar
    82   123   122    2
    83   125   122   am
    84    11     9   ar
    85    11    10   ar
    86     9     7   ar
    87   189   187   ar
    88   180   177    1
    89   166   165    1
    90   122   121    1
    91   198   197   ar
    92   195   194    2
    93   165   164    1
    94   186   187   ar
    95   186   185    1
    96   197   196    1
    97    10     8   ar
    98     7     6   ar
    99   164   161    1
   100   177   178    1
   101   177   176    1
   102   194   193    1
   103   185   182    1
   104   161   162    1
   105   161   160    1
   106   121   124    1
   107   121   120    1
   108   178   179    2
   109   178   181   am
   110   196   193    1
   111   155   154    1
   112     8     6   ar
   113   181   182    1
   114     6     5    1
   115   159   158    2
   116   193   192    1
   117   162   163    2
   118   182   183    1
   119   160   158   am
   120   158   157    1
   121   184   183    2
   122   153   152    2
   123   149   146    1
   124   154   151    1
   125     5     2    1
   126   152   156   am
   127   152   151    1
   128     2     3    1
   129     2     1    1
   130   157   156    1
   131   150   151    1
   132   150   147   am
   133   146   147    1
   134   146   145    1
   135     3     4    2
   136   147   148    2
   137   136   137    1
   138   137   140    1
   139   137   138    1
   140   138   139    2
   141   138   141   am
   142    74    75   ar
   143    74    72   ar
   144    75    73   ar
   145   141   142    1
   146    72    71   ar
   147    73    71   ar
   148   115   114    2
   149    71    70    1
   150   143   142    1
   151   143   144    2
   152   114   113    1
   153    70    67    1
   154   116   113    1
   155   116   117    1
   156   113   112    1
   157   118   117    1
   158    67    66    1
   159    67    68    1
   160   117   119    1
   161    69    68    2
   162   107   106    2
   163    86    84    1
   164   111   109    1
   165    65    63   am
   166   106   105    1
   167    82    83    1
   168    82    81    1
   169    84    83    2
   170    84    85    1
   171   108   105    1
   172   108   109    1
   173   105   104    1
   174    63    62    1
   175    63    64    2
   176   109   110    1
   177    81    80    1
   178    62    61    1
   179   103   102    2
   180    57    58    1
   181    76    77    1
   182   104   102   am
   183    80    77    1
   184    58    61    1
   185    58    59    1
   186   102   101    1
   187    77    78    1
   188    92    91    1
   189    59    60    2
   190   101   100    1
   191    78    79    2
   192    91    88    1
   193    96    95    2
   194    95    94    1
   195    88    89    1
   196    88    87    1
   197    93    89   am
   198    93    94    1
   199    89    90    2
   200    94    97    1
   201    98    97    1
   202    97    99    1
