@<TRIPOS>MOLECULE
tmp/4xlaA03.pdb
 116 113 0 0 0
SMALL
GASTEIGER

@<TRIPOS>ATOM
      1  N         37.6790   48.3210   28.8790 N.3   198  THR198     -0.1203
      2  CA        36.8690   48.2020   30.0750 C.3   198  THR198      0.1994
      3  C         36.6430   46.7200   30.4130 C.2   198  THR198      0.2617
      4  O         36.7750   46.2950   31.5770 O.2   198  THR198     -0.2717
      5  CB        35.5130   48.8720   29.8620 C.3   198  THR198      0.1784
      6  OG1       35.6930   50.2150   29.3500 O.3   198  THR198     -0.2211
      7  CG2       34.7120   48.9030   31.1020 C.3   198  THR198      0.0376
      8  N         36.1870   45.9860   29.3940 N.am  199  TRP199     -0.1975
      9  CA        35.9790   44.5180   29.4710 C.3   199  TRP199      0.1640
     10  C         36.6120   43.8530   28.2180 C.2   199  TRP199      0.2290
     11  O         36.7760   44.5430   27.1910 O.2   199  TRP199     -0.2864
     12  CB        34.5050   44.1800   29.4510 C.3   199  TRP199      0.0576
     13  CG        33.6400   44.9430   30.4540 C.ar  199  TRP199      0.0006
     14  CD1       33.5910   44.7890   31.7890 C.ar  199  TRP199      0.0946
     15  CD2       32.7540   46.0200   30.1300 C.ar  199  TRP199      0.0152
     16  NE1       32.6510   45.6250   32.3380 N.ar  199  TRP199     -0.2442
     17  CE2       32.1790   46.4680   31.3460 C.ar  199  TRP199      0.0810
     18  CE3       32.4250   46.6550   28.9430 C.ar  199  TRP199      0.0012
     19  CZ2       31.2090   47.4760   31.3730 C.ar  199  TRP199      0.0191
     20  CZ3       31.5060   47.7020   28.9680 C.ar  199  TRP199      0.0001
     21  CH2       30.9360   48.1110   30.1690 C.ar  199  TRP199      0.0015
     22  N         38.4050   51.7640   34.8240 N.3   230  ALA230     -0.1231
     23  CA        38.1240   50.5090   35.4890 C.3   230  ALA230      0.1694
     24  C         38.1690   49.4130   34.4760 C.2   230  ALA230      0.2592
     25  O         37.8060   49.5710   33.3140 O.2   230  ALA230     -0.2718
     26  CB        36.7210   50.5440   36.0770 C.3   230  ALA230      0.0304
     27  N         38.5470   48.2320   34.9340 N.am  231  HIS231     -0.1962
     28  CA        38.5630   47.1040   34.0140 C.3   231  HIS231      0.1787
     29  C         38.1120   45.8440   34.7030 C.2   231  HIS231      0.2620
     30  O         38.6310   45.5080   35.7660 O.2   231  HIS231     -0.2715
     31  CB        39.9580   46.8750   33.5100 C.3   231  HIS231      0.0785
     32  CG        40.1110   45.6290   32.7170 C.ar  231  HIS231      0.0821
     33  ND1       40.0880   45.6030   31.3360 N.ar  231  HIS231     -0.2267
     34  CD2       40.2970   44.3450   33.1190 C.ar  231  HIS231      0.1154
     35  CE1       40.1950   44.3530   30.9390 C.ar  231  HIS231      0.1986
     36  NE2       40.3280   43.5750   31.9970 N.ar  231  HIS231     -0.2212
     37  N         37.1750   45.1060   34.0880 N.am  232  SER232     -0.1950
     38  CA        36.8610   43.7280   34.5120 C.3   232  SER232      0.1924
     39  C         36.8090   42.8070   33.2870 C.2   232  SER232      0.2314
     40  O         36.1460   43.1000   32.3090 O.2   232  SER232     -0.2863
     41  CB        35.5400   43.6720   35.2380 C.3   232  SER232      0.2116
     42  OG        35.7110   44.3580   36.5120 O.3   232  SER232     -0.2180
     43  N         32.5000   40.1080   32.3290 N.3   235  TYR235     -0.1241
     44  CA        31.3330   40.5260   33.1280 C.3   235  TYR235      0.1605
     45  C         30.1480   39.6240   32.7680 C.2   235  TYR235      0.2264
     46  O         29.6780   39.6200   31.6060 O.2   235  TYR235     -0.2867
     47  CB        31.0500   41.9990   32.8350 C.3   235  TYR235      0.0534
     48  CG        30.1580   42.7740   33.7910 C.ar  235  TYR235     -0.0201
     49  CD1       28.8060   42.5960   33.8280 C.ar  235  TYR235     -0.0009
     50  CD2       30.6940   43.7530   34.6430 C.ar  235  TYR235     -0.0009
     51  CE1       27.9990   43.3590   34.6740 C.ar  235  TYR235      0.0417
     52  CE2       29.8780   44.5140   35.4450 C.ar  235  TYR235      0.0417
     53  CZ        28.5590   44.3190   35.4670 C.ar  235  TYR235      0.1957
     54  OH        27.7550   45.1010   36.2580 O.3   235  TYR235     -0.2866
     55  N         39.9750   43.7970   37.5960 N.3   260  CYS260     -0.1235
     56  CA        39.3410   42.6270   38.1630 C.3   260  CYS260      0.1677
     57  C         39.2090   41.5470   37.0680 C.2   260  CYS260      0.2270
     58  O         38.9790   41.9080   35.8740 O.2   260  CYS260     -0.2867
     59  CB        37.9800   42.9860   38.6960 C.3   260  CYS260      0.0956
     60  SG        37.2140   41.6160   39.6250 S.3   260  CYS260     -0.0801
     61  N         33.4090   39.2940   36.8850 N.3   263  GLU263     -0.1245
     62  CA        32.2880   39.7260   37.6990 C.3   263  GLU263      0.1567
     63  C         31.1090   38.8160   37.4490 C.2   263  GLU263      0.2260
     64  O         30.7170   38.5850   36.3120 O.2   263  GLU263     -0.2867
     65  CB        31.8940   41.1870   37.5580 C.3   263  GLU263      0.0388
     66  CG        33.0900   42.1370   37.6660 C.3   263  GLU263      0.1160
     67  CD        32.7400   43.5320   38.1340 C.2   263  GLU263      0.3649
     68  OE1       31.5920   43.7850   38.5250 O.co2 263  GLU263     -0.2457
     69  OE2       33.6380   44.4080   38.0840 O.co2 263  GLU263     -0.2457
     70  N         27.2050   38.4790   38.1410 N.3   265  HIS265     -0.1241
     71  CA        26.1350   39.4360   38.4220 C.3   265  HIS265      0.1621
     72  C         24.7280   38.8690   38.3550 C.2   265  HIS265      0.2264
     73  O         23.7770   39.5970   38.5260 O.2   265  HIS265     -0.2867
     74  CB        26.2760   40.6450   37.4960 C.3   265  HIS265      0.0745
     75  CG        27.2710   41.6410   37.9780 C.ar  265  HIS265      0.0817
     76  ND1       26.9860   42.5580   38.9700 N.ar  265  HIS265     -0.2268
     77  CD2       28.5200   41.8770   37.6010 C.ar  265  HIS265      0.1154
     78  CE1       28.0540   43.2850   39.2230 C.ar  265  HIS265      0.1986
     79  NE2       29.0190   42.8500   38.4390 N.ar  265  HIS265     -0.2212
     80  N         34.2070   40.1020   41.4550 N.3   284  TYR284     -0.1241
     81  CA        33.0150   40.5870   42.1130 C.3   284  TYR284      0.1605
     82  C         31.8830   39.5640   42.0130 C.2   284  TYR284      0.2264
     83  O         31.6910   38.9290   40.9770 O.2   284  TYR284     -0.2867
     84  CB        32.5370   41.8840   41.4810 C.3   284  TYR284      0.0534
     85  CG        33.3700   43.1000   41.8090 C.ar  284  TYR284     -0.0201
     86  CD1       34.5230   43.4300   41.1040 C.ar  284  TYR284     -0.0009
     87  CD2       33.0620   43.8510   42.9260 C.ar  284  TYR284     -0.0009
     88  CE1       35.2840   44.5490   41.4710 C.ar  284  TYR284      0.0417
     89  CE2       33.8110   44.9860   43.2900 C.ar  284  TYR284      0.0417
     90  CZ        34.9320   45.2850   42.5920 C.ar  284  TYR284      0.1957
     91  OH        35.6900   46.4090   42.9510 O.3   284  TYR284     -0.2866
     92  N         28.0470   40.0910   42.8750 N.3   286  VAL286     -0.1245
     93  CA        27.2120   41.2610   43.2710 C.3   286  VAL286      0.1561
     94  C         25.8270   41.0700   42.6250 C.2   286  VAL286      0.2260
     95  O         25.7360   40.7930   41.4250 O.2   286  VAL286     -0.2867
     96  CB        27.9010   42.5440   42.8020 C.3   286  VAL286      0.0252
     97  CG1       27.0150   43.7840   42.9950 C.3   286  VAL286      0.0019
     98  CG2       29.1470   42.7760   43.5650 C.3   286  VAL286      0.0019
     99  N         23.1370   43.6180   41.6450 N.3   288  HIS288     -0.1241
    100  CA        22.7640   45.0230   41.4860 C.3   288  HIS288      0.1621
    101  C         21.2530   45.0790   41.1990 C.2   288  HIS288      0.2264
    102  O         20.7880   44.4790   40.2160 O.2   288  HIS288     -0.2867
    103  CB        23.4180   45.6170   40.2840 C.3   288  HIS288      0.0745
    104  CG        24.8220   46.0320   40.4510 C.ar  288  HIS288      0.0817
    105  ND1       25.2940   46.6800   41.5560 N.ar  288  HIS288     -0.2268
    106  CD2       25.9040   45.8500   39.6460 C.ar  288  HIS288      0.1154
    107  CE1       26.5800   46.9360   41.4120 C.ar  288  HIS288      0.1986
    108  NE2       26.9690   46.4500   40.2560 N.ar  288  HIS288     -0.2212
    109  N         28.0670   51.1220   45.0250 N.3   362  ASN362     -0.1240
    110  CA        28.8470   52.0010   44.1820 C.3   362  ASN362      0.1653
    111  C         28.8470   53.4450   44.6460 C.2   362  ASN362      0.2266
    112  O         29.7640   54.1690   44.2810 O.2   362  ASN362     -0.2867
    113  CB        28.3750   51.8990   42.7030 C.3   362  ASN362      0.1155
    114  CG        28.8490   50.5920   42.0380 C.2   362  ASN362      0.2627
    115  OD1       29.6980   49.8740   42.5940 O.2   362  ASN362     -0.2716
    116  ND2       28.3300   50.3100   40.8900 N.am  362  ASN362     -0.0877
@<TRIPOS>BOND
     1    11    10    2
     2    10     9    1
     3     1     2    1
     4    18    20   ar
     5    18    15   ar
     6    20    21   ar
     7     6     5    1
     8     8     9    1
     9     8     3   am
    10    12     9    1
    11    12    13    1
    12     5     2    1
    13     5     7    1
    14     2     3    1
    15    15    13   ar
    16    15    17   ar
    17    21    19   ar
    18     3     4    2
    19    13    14   ar
    20    35    33   ar
    21    35    36   ar
    22    33    32   ar
    23    17    19   ar
    24    17    16   ar
    25    46    45    2
    26    14    16   ar
    27    36    34   ar
    28    40    39    2
    29    43    44    1
    30    32    34   ar
    31    32    31    1
    32    45    44    1
    33    47    44    1
    34    47    48    1
    35    39    38    1
    36    25    24    2
    37    31    28    1
    38    48    49   ar
    39    48    50   ar
    40    49    51   ar
    41    28    29    1
    42    28    27    1
    43    37    38    1
    44    37    29   am
    45    24    27   am
    46    24    23    1
    47    38    41    1
    48    50    52   ar
    49    51    53   ar
    50    29    30    2
    51    22    23    1
    52    41    42    1
    53    52    53   ar
    54    53    54    1
    55    23    26    1
    56    58    57    2
    57    64    63    2
    58    61    62    1
    59    57    56    1
    60    63    62    1
    61    74    75    1
    62    74    71    1
    63    65    66    1
    64    65    62    1
    65    55    56    1
    66    77    75   ar
    67    77    79   ar
    68    66    67    1
    69    75    76   ar
    70    69    67   ar
    71    67    68   ar
    72    70    71    1
    73    56    59    1
    74    72    71    1
    75    72    73    2
    76    79    78   ar
    77    59    60    1
    78    76    78   ar
    79   106   108   ar
    80   106   104   ar
    81   102   101    2
    82   108   107   ar
    83   103   104    1
    84   103   100    1
    85   104   105   ar
    86   116   114   am
    87    83    82    2
    88    86    88   ar
    89    86    85   ar
    90   101   100    1
    91   107   105   ar
    92    95    94    2
    93    80    81    1
    94    88    90   ar
    95    84    85    1
    96    84    81    1
    97   100    99    1
    98    85    87   ar
    99    82    81    1
   100   114   115    2
   101   114   113    1
   102    90    91    1
   103    90    89   ar
   104    94    93    1
   105   113   110    1
   106    96    97    1
   107    96    93    1
   108    96    98    1
   109    92    93    1
   110    87    89   ar
   111   110   111    1
   112   110   109    1
   113   112   111    2
