@<TRIPOS>MOLECULE
tmp/4xlaA01.pdb
 87 83 0 0 0
SMALL
GASTEIGER

@<TRIPOS>ATOM
      1  N         33.9800   53.6870   26.9110 N.3   173  LEU173     -0.1245
      2  CA        33.8620   52.2030   27.1570 C.3   173  LEU173      0.1561
      3  C         34.5240   51.4760   25.9960 C.2   173  LEU173      0.2260
      4  O         34.4000   51.8860   24.8280 O.2   173  LEU173     -0.2867
      5  CB        32.3790   51.7250   27.2010 C.3   173  LEU173      0.0270
      6  CG        31.6430   52.3100   28.3770 C.3   173  LEU173      0.0019
      7  CD1       30.1280   52.1390   28.2670 C.3   173  LEU173      0.0001
      8  CD2       32.1610   51.9270   29.7430 C.3   173  LEU173      0.0001
      9  N         37.6790   48.3210   28.8790 N.3   198  THR198     -0.1203
     10  CA        36.8690   48.2020   30.0750 C.3   198  THR198      0.1994
     11  C         36.6430   46.7200   30.4130 C.2   198  THR198      0.2617
     12  O         36.7750   46.2950   31.5770 O.2   198  THR198     -0.2717
     13  CB        35.5130   48.8720   29.8620 C.3   198  THR198      0.1784
     14  OG1       35.6930   50.2150   29.3500 O.3   198  THR198     -0.2211
     15  CG2       34.7120   48.9030   31.1020 C.3   198  THR198      0.0376
     16  N         36.1870   45.9860   29.3940 N.am  199  TRP199     -0.1975
     17  CA        35.9790   44.5180   29.4710 C.3   199  TRP199      0.1640
     18  C         36.6120   43.8530   28.2180 C.2   199  TRP199      0.2290
     19  O         36.7760   44.5430   27.1910 O.2   199  TRP199     -0.2864
     20  CB        34.5050   44.1800   29.4510 C.3   199  TRP199      0.0576
     21  CG        33.6400   44.9430   30.4540 C.ar  199  TRP199      0.0006
     22  CD1       33.5910   44.7890   31.7890 C.ar  199  TRP199      0.0946
     23  CD2       32.7540   46.0200   30.1300 C.ar  199  TRP199      0.0152
     24  NE1       32.6510   45.6250   32.3380 N.ar  199  TRP199     -0.2442
     25  CE2       32.1790   46.4680   31.3460 C.ar  199  TRP199      0.0810
     26  CE3       32.4250   46.6550   28.9430 C.ar  199  TRP199      0.0012
     27  CZ2       31.2090   47.4760   31.3730 C.ar  199  TRP199      0.0191
     28  CZ3       31.5060   47.7020   28.9680 C.ar  199  TRP199      0.0001
     29  CH2       30.9360   48.1110   30.1690 C.ar  199  TRP199      0.0015
     30  N         39.2800   53.9980   33.4830 N.3   229  ALA229     -0.1231
     31  CA        38.5980   54.1900   34.7350 C.3   229  ALA229      0.1694
     32  C         38.5410   52.9080   35.5310 C.2   229  ALA229      0.2591
     33  O         38.4990   52.9220   36.7790 O.2   229  ALA229     -0.2718
     34  CB        37.1430   54.6050   34.4730 C.3   229  ALA229      0.0304
     35  N         38.4050   51.7640   34.8240 N.am  230  ALA230     -0.1980
     36  CA        38.1240   50.5090   35.4890 C.3   230  ALA230      0.1597
     37  C         38.1690   49.4130   34.4760 C.2   230  ALA230      0.2287
     38  O         37.8060   49.5710   33.3140 O.2   230  ALA230     -0.2864
     39  CB        36.7210   50.5440   36.0770 C.3   230  ALA230      0.0319
     40  N         32.5000   40.1080   32.3290 N.3   235  TYR235     -0.1241
     41  CA        31.3330   40.5260   33.1280 C.3   235  TYR235      0.1605
     42  C         30.1480   39.6240   32.7680 C.2   235  TYR235      0.2264
     43  O         29.6780   39.6200   31.6060 O.2   235  TYR235     -0.2867
     44  CB        31.0500   41.9990   32.8350 C.3   235  TYR235      0.0534
     45  CG        30.1580   42.7740   33.7910 C.ar  235  TYR235     -0.0201
     46  CD1       28.8060   42.5960   33.8280 C.ar  235  TYR235     -0.0009
     47  CD2       30.6940   43.7530   34.6430 C.ar  235  TYR235     -0.0009
     48  CE1       27.9990   43.3590   34.6740 C.ar  235  TYR235      0.0417
     49  CE2       29.8780   44.5140   35.4450 C.ar  235  TYR235      0.0417
     50  CZ        28.5590   44.3190   35.4670 C.ar  235  TYR235      0.1957
     51  OH        27.7550   45.1010   36.2580 O.3   235  TYR235     -0.2866
     52  N         33.4090   39.2940   36.8850 N.3   263  GLU263     -0.1245
     53  CA        32.2880   39.7260   37.6990 C.3   263  GLU263      0.1567
     54  C         31.1090   38.8160   37.4490 C.2   263  GLU263      0.2260
     55  O         30.7170   38.5850   36.3120 O.2   263  GLU263     -0.2867
     56  CB        31.8940   41.1870   37.5580 C.3   263  GLU263      0.0388
     57  CG        33.0900   42.1370   37.6660 C.3   263  GLU263      0.1160
     58  CD        32.7400   43.5320   38.1340 C.2   263  GLU263      0.3649
     59  OE1       31.5920   43.7850   38.5250 O.co2 263  GLU263     -0.2457
     60  OE2       33.6380   44.4080   38.0840 O.co2 263  GLU263     -0.2457
     61  N         23.1370   43.6180   41.6450 N.3   288  HIS288     -0.1241
     62  CA        22.7640   45.0230   41.4860 C.3   288  HIS288      0.1621
     63  C         21.2530   45.0790   41.1990 C.2   288  HIS288      0.2264
     64  O         20.7880   44.4790   40.2160 O.2   288  HIS288     -0.2867
     65  CB        23.4180   45.6170   40.2840 C.3   288  HIS288      0.0745
     66  CG        24.8220   46.0320   40.4510 C.ar  288  HIS288      0.0817
     67  ND1       25.2940   46.6800   41.5560 N.ar  288  HIS288     -0.2268
     68  CD2       25.9040   45.8500   39.6460 C.ar  288  HIS288      0.1154
     69  CE1       26.5800   46.9360   41.4120 C.ar  288  HIS288      0.1986
     70  NE2       26.9690   46.4500   40.2560 N.ar  288  HIS288     -0.2212
     71  N         20.3080   45.7880   37.7080 N.3   291  GLU291     -0.1245
     72  CA        20.5050   44.7320   36.7160 C.3   291  GLU291      0.1567
     73  C         19.5580   43.5860   36.8450 C.2   291  GLU291      0.2260
     74  O         19.7340   42.5380   36.2180 O.2   291  GLU291     -0.2867
     75  CB        21.9540   44.1850   36.7580 C.3   291  GLU291      0.0388
     76  CG        22.9680   45.2660   36.4050 C.3   291  GLU291      0.1160
     77  CD        24.4090   44.8220   36.4440 C.2   291  GLU291      0.3649
     78  OE1       24.6930   43.8460   37.1580 O.co2 291  GLU291     -0.2457
     79  OE2       25.2160   45.3860   35.7170 O.co2 291  GLU291     -0.2457
     80  N         28.0670   51.1220   45.0250 N.3   362  ASN362     -0.1240
     81  CA        28.8470   52.0010   44.1820 C.3   362  ASN362      0.1653
     82  C         28.8470   53.4450   44.6460 C.2   362  ASN362      0.2266
     83  O         29.7640   54.1690   44.2810 O.2   362  ASN362     -0.2867
     84  CB        28.3750   51.8990   42.7030 C.3   362  ASN362      0.1155
     85  CG        28.8490   50.5920   42.0380 C.2   362  ASN362      0.2627
     86  OD1       29.6980   49.8740   42.5940 O.2   362  ASN362     -0.2716
     87  ND2       28.3300   50.3100   40.8900 N.am  362  ASN362     -0.0877
@<TRIPOS>BOND
     1     4     3    2
     2     3     2    1
     3     1     2    1
     4     2     5    1
     5    19    18    2
     6     5     6    1
     7    18    17    1
     8     7     6    1
     9     6     8    1
    10     9    10    1
    11    26    28   ar
    12    26    23   ar
    13    28    29   ar
    14    14    13    1
    15    16    17    1
    16    16    11   am
    17    20    17    1
    18    20    21    1
    19    13    10    1
    20    13    15    1
    21    10    11    1
    22    23    21   ar
    23    23    25   ar
    24    29    27   ar
    25    11    12    2
    26    21    22   ar
    27    25    27   ar
    28    25    24   ar
    29    43    42    2
    30    22    24   ar
    31    40    41    1
    32    42    41    1
    33    44    41    1
    34    44    45    1
    35    38    37    2
    36    30    31    1
    37    45    46   ar
    38    45    47   ar
    39    46    48   ar
    40    34    31    1
    41    37    36    1
    42    47    49   ar
    43    48    50   ar
    44    31    32    1
    45    35    36    1
    46    35    32   am
    47    49    50   ar
    48    50    51    1
    49    36    39    1
    50    32    33    2
    51    79    77   ar
    52    74    73    2
    53    55    54    2
    54    76    77    1
    55    76    75    1
    56    77    78   ar
    57    72    75    1
    58    72    73    1
    59    72    71    1
    60    52    53    1
    61    54    53    1
    62    56    57    1
    63    56    53    1
    64    57    58    1
    65    60    58   ar
    66    58    59   ar
    67    68    70   ar
    68    68    66   ar
    69    64    63    2
    70    70    69   ar
    71    65    66    1
    72    65    62    1
    73    66    67   ar
    74    87    85   am
    75    63    62    1
    76    69    67   ar
    77    62    61    1
    78    85    86    2
    79    85    84    1
    80    84    81    1
    81    81    82    1
    82    81    80    1
    83    83    82    2
