@<TRIPOS>MOLECULE
tmp/4xlaA02.pdb
 108 105 0 0 0
SMALL
GASTEIGER

@<TRIPOS>ATOM
      1  N         33.4530   48.6150   20.7310 N.3   133  GLN133     -0.1245
      2  CA        33.1430   47.2530   21.1510 C.3   133  GLN133      0.1566
      3  C         33.2520   46.4250   19.9560 C.2   133  GLN133      0.2260
      4  O         32.4750   46.6220   18.9850 O.2   133  GLN133     -0.2867
      5  CB        31.7620   47.1970   21.7690 C.3   133  GLN133      0.0367
      6  CG        31.6820   48.0690   23.0390 C.3   133  GLN133      0.0905
      7  CD        30.4410   47.7760   23.8640 C.2   133  GLN133      0.2608
      8  OE1       30.2250   46.6690   24.3670 O.2   133  GLN133     -0.2717
      9  NE2       29.6190   48.7870   24.0870 N.am  133  GLN133     -0.0878
     10  N         35.2420   47.2440   24.7500 N.3   175  ASN175     -0.1240
     11  CA        34.8830   45.8220   24.9670 C.3   175  ASN175      0.1653
     12  C         35.4490   45.0370   23.7640 C.2   175  ASN175      0.2266
     13  O         35.4870   45.5180   22.6410 O.2   175  ASN175     -0.2867
     14  CB        33.3700   45.6400   25.0730 C.3   175  ASN175      0.1155
     15  CG        32.9300   44.3150   25.7020 C.2   175  ASN175      0.2627
     16  OD1       33.7080   43.4570   26.1470 O.2   175  ASN175     -0.2716
     17  ND2       31.6190   44.1850   25.7810 N.am  175  ASN175     -0.0877
     18  N         36.1870   45.9860   29.3940 N.3   199  TRP199     -0.1241
     19  CA        35.9790   44.5180   29.4710 C.3   199  TRP199      0.1605
     20  C         36.6120   43.8530   28.2180 C.2   199  TRP199      0.2264
     21  O         36.7760   44.5430   27.1910 O.2   199  TRP199     -0.2867
     22  CB        34.5050   44.1800   29.4510 C.3   199  TRP199      0.0550
     23  CG        33.6400   44.9430   30.4540 C.ar  199  TRP199      0.0003
     24  CD1       33.5910   44.7890   31.7890 C.ar  199  TRP199      0.0946
     25  CD2       32.7540   46.0200   30.1300 C.ar  199  TRP199      0.0152
     26  NE1       32.6510   45.6250   32.3380 N.ar  199  TRP199     -0.2442
     27  CE2       32.1790   46.4680   31.3460 C.ar  199  TRP199      0.0810
     28  CE3       32.4250   46.6550   28.9430 C.ar  199  TRP199      0.0012
     29  CZ2       31.2090   47.4760   31.3730 C.ar  199  TRP199      0.0191
     30  CZ3       31.5060   47.7020   28.9680 C.ar  199  TRP199      0.0001
     31  CH2       30.9360   48.1110   30.1690 C.ar  199  TRP199      0.0015
     32  N         31.6410   40.5430   27.6450 N.3   202  THR202     -0.1218
     33  CA        30.4660   40.5960   28.4580 C.3   202  THR202      0.1862
     34  C         29.3890   39.6310   27.9780 C.2   202  THR202      0.2287
     35  O         29.2530   39.4030   26.7550 O.2   202  THR202     -0.2866
     36  CB        29.8450   41.9850   28.5180 C.3   202  THR202      0.1770
     37  OG1       29.3580   42.4060   27.2230 O.3   202  THR202     -0.2211
     38  CG2       30.9010   42.9970   28.9570 C.3   202  THR202      0.0375
     39  N         25.3350   38.4230   28.3770 N.3   204  GLY204     -0.1210
     40  CA        24.0470   38.8320   28.8710 C.3   204  GLY204      0.1956
     41  C         23.8370   40.3230   28.9040 C.2   204  GLY204      0.2612
     42  O         24.7760   41.1260   28.7200 O.2   204  GLY204     -0.2717
     43  N         22.6490   40.6920   29.3270 N.am  205  TRP205     -0.1962
     44  CA        22.3050   42.0970   29.5310 C.3   205  TRP205      0.1771
     45  C         21.2580   42.1770   30.5700 C.2   205  TRP205      0.2619
     46  O         20.1130   41.7040   30.3570 O.2   205  TRP205     -0.2715
     47  CB        21.8380   42.8480   28.2740 C.3   205  TRP205      0.0590
     48  CG        21.4350   44.2380   28.5840 C.ar  205  TRP205      0.0006
     49  CD1       22.2530   45.2350   28.9120 C.ar  205  TRP205      0.0946
     50  CD2       20.1040   44.7010   28.7750 C.ar  205  TRP205      0.0152
     51  NE1       21.5150   46.3640   29.2590 N.ar  205  TRP205     -0.2442
     52  CE2       20.1870   46.0550   29.1630 C.ar  205  TRP205      0.0810
     53  CE3       18.8540   44.1280   28.5750 C.ar  205  TRP205      0.0012
     54  CZ2       19.0500   46.8270   29.3910 C.ar  205  TRP205      0.0191
     55  CZ3       17.7340   44.8740   28.7960 C.ar  205  TRP205      0.0001
     56  CH2       17.8440   46.2310   29.2070 C.ar  205  TRP205      0.0015
     57  N         21.6230   42.6930   31.7510 N.am  206  ASN206     -0.1972
     58  CA        20.6450   42.8610   32.8650 C.3   206  ASN206      0.1688
     59  C         19.7970   41.6710   33.1460 C.2   206  ASN206      0.2292
     60  O         18.6050   41.7540   33.3480 O.2   206  ASN206     -0.2864
     61  CB        19.8580   44.1740   32.7740 C.3   206  ASN206      0.1181
     62  CG        20.7280   45.3720   32.8350 C.2   206  ASN206      0.2629
     63  OD1       21.9450   45.3020   33.0510 O.2   206  ASN206     -0.2716
     64  ND2       20.1180   46.5480   32.6060 N.am  206  ASN206     -0.0877
     65  N         32.5000   40.1080   32.3290 N.3   235  TYR235     -0.1241
     66  CA        31.3330   40.5260   33.1280 C.3   235  TYR235      0.1605
     67  C         30.1480   39.6240   32.7680 C.2   235  TYR235      0.2264
     68  O         29.6780   39.6200   31.6060 O.2   235  TYR235     -0.2867
     69  CB        31.0500   41.9990   32.8350 C.3   235  TYR235      0.0534
     70  CG        30.1580   42.7740   33.7910 C.ar  235  TYR235     -0.0201
     71  CD1       28.8060   42.5960   33.8280 C.ar  235  TYR235     -0.0009
     72  CD2       30.6940   43.7530   34.6430 C.ar  235  TYR235     -0.0009
     73  CE1       27.9990   43.3590   34.6740 C.ar  235  TYR235      0.0417
     74  CE2       29.8780   44.5140   35.4450 C.ar  235  TYR235      0.0417
     75  CZ        28.5590   44.3190   35.4670 C.ar  235  TYR235      0.1957
     76  OH        27.7550   45.1010   36.2580 O.3   235  TYR235     -0.2866
     77  N         26.5270   38.6960   33.0460 N.3   237  ASN237     -0.1240
     78  CA        25.2970   39.3970   33.3560 C.3   237  ASN237      0.1653
     79  C         24.0470   38.6570   32.8060 C.2   237  ASN237      0.2266
     80  O         23.0320   39.2250   32.5190 O.2   237  ASN237     -0.2867
     81  CB        25.3540   40.8580   32.8410 C.3   237  ASN237      0.1155
     82  CG        24.4200   41.7690   33.6420 C.2   237  ASN237      0.2627
     83  OD1       23.8620   41.3950   34.6600 O.2   237  ASN237     -0.2716
     84  ND2       24.2950   43.0200   33.1780 N.am  237  ASN237     -0.0877
     85  N         23.1370   43.6180   41.6450 N.3   288  HIS288     -0.1241
     86  CA        22.7640   45.0230   41.4860 C.3   288  HIS288      0.1621
     87  C         21.2530   45.0790   41.1990 C.2   288  HIS288      0.2264
     88  O         20.7880   44.4790   40.2160 O.2   288  HIS288     -0.2867
     89  CB        23.4180   45.6170   40.2840 C.3   288  HIS288      0.0745
     90  CG        24.8220   46.0320   40.4510 C.ar  288  HIS288      0.0817
     91  ND1       25.2940   46.6800   41.5560 N.ar  288  HIS288     -0.2268
     92  CD2       25.9040   45.8500   39.6460 C.ar  288  HIS288      0.1154
     93  CE1       26.5800   46.9360   41.4120 C.ar  288  HIS288      0.1986
     94  NE2       26.9690   46.4500   40.2560 N.ar  288  HIS288     -0.2212
     95  N         19.8460   47.4340   39.8960 N.3   290  ALA290     -0.1231
     96  CA        19.7440   48.0160   38.5550 C.3   290  ALA290      0.1694
     97  C         19.8180   46.9970   37.4150 C.2   290  ALA290      0.2591
     98  O         19.5450   47.3480   36.2420 O.2   290  ALA290     -0.2718
     99  CB        20.8080   49.0900   38.3510 C.3   290  ALA290      0.0304
    100  N         20.3080   45.7880   37.7080 N.am  291  GLU291     -0.1979
    101  CA        20.5050   44.7320   36.7160 C.3   291  GLU291      0.1602
    102  C         19.5580   43.5860   36.8450 C.2   291  GLU291      0.2287
    103  O         19.7340   42.5380   36.2180 O.2   291  GLU291     -0.2864
    104  CB        21.9540   44.1850   36.7580 C.3   291  GLU291      0.0415
    105  CG        22.9680   45.2660   36.4050 C.3   291  GLU291      0.1163
    106  CD        24.4090   44.8220   36.4440 C.2   291  GLU291      0.3649
    107  OE1       24.6930   43.8460   37.1580 O.co2 291  GLU291     -0.2457
    108  OE2       25.2160   45.3860   35.7170 O.co2 291  GLU291     -0.2457
@<TRIPOS>BOND
     1     4     3    2
     2     3     2    1
     3     1     2    1
     4     2     5    1
     5     5     6    1
     6    13    12    2
     7     6     7    1
     8    12    11    1
     9     7     9   am
    10     7     8    2
    11    10    11    1
    12    11    14    1
    13    14    15    1
    14    15    17   am
    15    15    16    2
    16    35    34    2
    17    21    20    2
    18    37    36    1
    19    32    33    1
    20    34    33    1
    21    20    19    1
    22    47    48    1
    23    47    44    1
    24    39    40    1
    25    33    36    1
    26    36    38    1
    27    53    50   ar
    28    53    55   ar
    29    48    50   ar
    30    48    49   ar
    31    42    41    2
    32    50    52   ar
    33    55    56   ar
    34    40    41    1
    35    41    43   am
    36    49    51   ar
    37    28    30   ar
    38    28    25   ar
    39    30    31   ar
    40    52    51   ar
    41    52    54   ar
    42    56    54   ar
    43    43    44    1
    44    18    19    1
    45    22    19    1
    46    22    23    1
    47    44    45    1
    48    25    23   ar
    49    25    27   ar
    50    31    29   ar
    51    46    45    2
    52    23    24   ar
    53    45    57   am
    54    27    29   ar
    55    27    26   ar
    56    68    67    2
    57    57    58    1
    58    24    26   ar
    59    65    66    1
    60    80    79    2
    61    64    62   am
    62    67    66    1
    63    61    62    1
    64    61    58    1
    65    79    78    1
    66    69    66    1
    67    69    70    1
    68    62    63    2
    69    81    78    1
    70    81    82    1
    71    58    59    1
    72    77    78    1
    73    59    60    2
    74    84    82   am
    75    82    83    2
    76    70    71   ar
    77    70    72   ar
    78    71    73   ar
    79    72    74   ar
    80    73    75   ar
    81    74    75   ar
    82    75    76    1
    83   108   106   ar
    84   103   102    2
    85    98    97    2
    86   105   106    1
    87   105   104    1
    88   106   107   ar
    89   101   104    1
    90   101   102    1
    91   101   100    1
    92    97   100   am
    93    97    96    1
    94    99    96    1
    95    96    95    1
    96    92    94   ar
    97    92    90   ar
    98    88    87    2
    99    94    93   ar
   100    89    90    1
   101    89    86    1
   102    90    91   ar
   103    87    86    1
   104    93    91   ar
   105    86    85    1
