@<TRIPOS>MOLECULE
tmp/4xliA00.pdb
 192 185 0 0 0
SMALL
GASTEIGER

@<TRIPOS>ATOM
      1  N         23.8910   17.7050   -0.9650 N.3    16  LEU16      -0.1231
      2  CA        24.5360   17.7790   -2.2640 C.3    16  LEU16       0.1693
      3  C         25.3120   16.5260   -2.6410 C.2    16  LEU16       0.2592
      4  O         25.5110   16.2640   -3.8070 O.2    16  LEU16      -0.2718
      5  CB        25.4770   18.9840   -2.2870 C.3    16  LEU16       0.0284
      6  CG        24.7550   20.3370   -2.2470 C.3    16  LEU16       0.0019
      7  CD1       25.7270   21.4530   -1.8790 C.3    16  LEU16       0.0001
      8  CD2       24.0880   20.6010   -3.5950 C.3    16  LEU16       0.0001
      9  N         25.7560   15.7650   -1.6560 N.am   17  GLY17      -0.1957
     10  CA        26.7220   14.6920   -1.8710 C.3    17  GLY17       0.1869
     11  C         26.8590   14.0730   -0.5070 C.2    17  GLY17       0.2309
     12  O         27.2430   14.7650    0.4290 O.2    17  GLY17      -0.2863
     13  N         27.4630   16.4440    2.4800 N.3    24  VAL24      -0.1245
     14  CA        27.6370   17.8740    2.0930 C.3    24  VAL24       0.1561
     15  C         26.3220   18.5800    1.7490 C.2    24  VAL24       0.2260
     16  O         25.5090   18.0630    0.9900 O.2    24  VAL24      -0.2867
     17  CB        28.5650   18.0480    0.8750 C.3    24  VAL24       0.0252
     18  CG1       28.8100   19.5380    0.6080 C.3    24  VAL24       0.0019
     19  CG2       29.8790   17.3020    1.0870 C.3    24  VAL24       0.0019
     20  N         28.1920   26.4950    1.4440 N.3    37  ALA37      -0.1231
     21  CA        28.2290   25.0650    1.4540 C.3    37  ALA37       0.1694
     22  C         28.7300   24.6050    2.8360 C.2    37  ALA37       0.2592
     23  O         29.5840   25.2350    3.4170 O.2    37  ALA37      -0.2718
     24  CB        29.1630   24.5870    0.3670 C.3    37  ALA37       0.0304
     25  N         28.2360   23.4720    3.3080 N.am   38  VAL38      -0.1966
     26  CA        28.4620   23.0270    4.6610 C.3    38  VAL38       0.1727
     27  C         28.7770   21.5470    4.6010 C.2    38  VAL38       0.2616
     28  O         27.9760   20.7470    4.0960 O.2    38  VAL38      -0.2715
     29  CB        27.1690   23.2510    5.5160 C.3    38  VAL38       0.0290
     30  CG1       27.3310   22.7600    6.9610 C.3    38  VAL38       0.0023
     31  CG2       26.7430   24.7400    5.4890 C.3    38  VAL38       0.0023
     32  N         29.9450   21.1800    5.0900 N.am   39  LYS39      -0.1977
     33  CA        30.3740   19.7970    5.1110 C.3    39  LYS39       0.1596
     34  C         30.3470   19.2890    6.5250 C.2    39  LYS39       0.2287
     35  O         30.6650   20.0260    7.4420 O.2    39  LYS39      -0.2864
     36  CB        31.7710   19.6910    4.5910 C.3    39  LYS39       0.0298
     37  CG        32.2100   18.2570    4.3500 C.3    39  LYS39       0.0038
     38  CD        33.6030   18.2270    3.7550 C.3    39  LYS39       0.0206
     39  CE        34.3100   16.9370    4.1180 C.3    39  LYS39       0.1093
     40  NZ        34.0290   15.8590    3.1180 N.3    39  LYS39      -0.1314
     41  N         41.5800   18.8230    7.1670 N.3    50  GLU50      -0.1245
     42  CA        41.1500   19.5530    5.9990 C.3    50  GLU50       0.1567
     43  C         40.8600   21.0100    6.3910 C.2    50  GLU50       0.2260
     44  O         41.2010   21.9570    5.6900 O.2    50  GLU50      -0.2867
     45  CB        39.8880   18.9110    5.4340 C.3    50  GLU50       0.0388
     46  CG        39.3790   19.5480    4.1410 C.3    50  GLU50       0.1160
     47  CD        38.2510   18.7870    3.4440 C.2    50  GLU50       0.3649
     48  OE1       38.0600   19.0280    2.2220 O.co2  50  GLU50      -0.2457
     49  OE2       37.5340   17.9800    4.1140 O.co2  50  GLU50      -0.2457
     50  N         42.7760   24.5480    4.9240 N.3    54  MET54      -0.1245
     51  CA        42.0460   25.6240    4.2450 C.3    54  MET54       0.1570
     52  C         42.1480   26.9620    4.9740 C.2    54  MET54       0.2261
     53  O         41.9460   27.9780    4.3690 O.2    54  MET54      -0.2867
     54  CB        40.5840   25.2180    4.0900 C.3    54  MET54       0.0387
     55  CG        40.4030   24.0190    3.1600 C.3    54  MET54       0.0595
     56  SD        38.7220   23.4020    3.0560 S.3    54  MET54      -0.1393
     57  CE        38.0060   24.8380    2.1970 C.3    54  MET54       0.0692
     58  N         38.5690   27.0460   -3.4240 N.3    63  VAL63      -0.1245
     59  CA        37.3610   27.1910   -2.6310 C.3    63  VAL63       0.1561
     60  C         37.6640   27.7480   -1.2590 C.2    63  VAL63       0.2260
     61  O         38.3910   27.1200   -0.4970 O.2    63  VAL63      -0.2867
     62  CB        36.6570   25.8450   -2.4240 C.3    63  VAL63       0.0252
     63  CG1       35.4520   26.0040   -1.5080 C.3    63  VAL63       0.0019
     64  CG2       36.1910   25.2820   -3.7420 C.3    63  VAL63       0.0019
     65  N         32.3760   22.1560    8.4540 N.3    77  ILE77      -0.1245
     66  CA        33.2290   23.1120    7.7280 C.3    77  ILE77       0.1561
     67  C         32.3790   23.8660    6.7320 C.2    77  ILE77       0.2260
     68  O         31.5110   23.2990    6.0660 O.2    77  ILE77      -0.2867
     69  CB        34.4510   22.4880    7.0560 C.3    77  ILE77       0.0252
     70  CG1       35.2700   21.6910    8.0720 C.3    77  ILE77       0.0019
     71  CG2       35.3270   23.6000    6.4990 C.3    77  ILE77       0.0019
     72  CD1       36.3950   20.8630    7.4940 C.3    77  ILE77       0.0001
     73  N         32.1070   26.7290    3.6640 N.3    79  THR79      -0.1203
     74  CA        32.7680   27.4530    2.5970 C.3    79  THR79       0.1994
     75  C         31.7630   28.1190    1.6860 C.2    79  THR79       0.2618
     76  O         30.5640   27.7720    1.6620 O.2    79  THR79      -0.2717
     77  CB        33.6030   26.5320    1.6460 C.3    79  THR79       0.1784
     78  OG1       32.7390   25.7860    0.7540 O.3    79  THR79      -0.2211
     79  CG2       34.5190   25.5930    2.4130 C.3    79  THR79       0.0376
     80  N         32.2680   29.0600    0.8930 N.am   80  GLU80      -0.1965
     81  CA        31.5190   29.5980   -0.2370 C.3    80  GLU80       0.1733
     82  C         30.9660   28.4220   -1.0380 C.2    80  GLU80       0.2616
     83  O         31.4640   27.2880   -0.9600 O.2    80  GLU80      -0.2715
     84  CB        32.3940   30.4690   -1.1150 C.3    80  GLU80       0.0429
     85  CG        33.6710   29.7620   -1.5480 C.3    80  GLU80       0.1163
     86  CD        34.3770   30.4400   -2.6960 C.2    80  GLU80       0.3649
     87  OE1       33.7890   31.4490   -3.2140 O.co2  80  GLU80      -0.2457
     88  OE2       35.5040   29.9430   -3.0600 O.co2  80  GLU80      -0.2457
     89  N         29.9140   28.7060   -1.7850 N.am   81  TYR81      -0.1960
     90  CA        29.1610   27.7120   -2.4650 C.3    81  TYR81       0.1771
     91  C         29.3830   27.8950   -3.9300 C.2    81  TYR81       0.2619
     92  O         29.1420   29.0230   -4.4400 O.2    81  TYR81      -0.2715
     93  CB        27.7050   27.9330   -2.1950 C.3    81  TYR81       0.0574
     94  CG        26.8350   27.0940   -3.0580 C.ar   81  TYR81      -0.0198
     95  CD1       26.7770   25.7150   -2.8750 C.ar   81  TYR81      -0.0009
     96  CD2       26.0160   27.6640   -4.0420 C.ar   81  TYR81      -0.0009
     97  CE1       25.9540   24.9110   -3.6590 C.ar   81  TYR81       0.0417
     98  CE2       25.1840   26.8710   -4.8280 C.ar   81  TYR81       0.0417
     99  CZ        25.1640   25.4990   -4.6330 C.ar   81  TYR81       0.1957
    100  OH        24.3720   24.7070   -5.4230 O.3    81  TYR81      -0.2866
    101  N         29.7990   26.8040   -4.6160 N.am   82  MET82      -0.1964
    102  CA        29.9340   26.8260   -6.0720 C.3    82  MET82       0.1722
    103  C         28.6580   26.3090   -6.7710 C.2    82  MET82       0.2458
    104  O         28.3950   25.1110   -6.7560 O.2    82  MET82      -0.2730
    105  CB        31.1360   26.0200   -6.5250 C.3    82  MET82       0.0427
    106  CG        32.4560   26.4430   -5.8800 C.3    82  MET82       0.0599
    107  SD        32.9600   28.1760   -6.0550 S.3    82  MET82      -0.1393
    108  CE        33.4100   28.2330   -7.7820 C.3    82  MET82       0.0692
    109  N         27.8820   27.2150   -7.4010 N.am   83  PRO83      -0.2716
    110  CA        26.5740   26.9120   -7.9670 C.3    83  PRO83       0.1536
    111  C         26.4910   25.8520   -9.0660 C.2    83  PRO83       0.2599
    112  O         25.4660   25.2130   -9.1520 O.2    83  PRO83      -0.2715
    113  CB        26.1290   28.2520   -8.5490 C.3    83  PRO83       0.0310
    114  CG        27.4060   28.9440   -8.9010 C.3    83  PRO83       0.0237
    115  CD        28.3570   28.5550   -7.8080 C.3    83  PRO83       0.0939
    116  N         27.5180   25.6530   -9.8950 N.am   84  TYR84      -0.1960
    117  CA        27.4250   24.7210  -11.0460 C.3    84  TYR84       0.1771
    118  C         28.1470   23.3740  -10.8450 C.2    84  TYR84       0.2620
    119  O         28.3750   22.6270  -11.8230 O.2    84  TYR84      -0.2715
    120  CB        27.9760   25.3710  -12.3230 C.3    84  TYR84       0.0574
    121  CG        27.1780   26.5520  -12.8190 C.ar   84  TYR84      -0.0198
    122  CD1       26.0060   26.3810  -13.5420 C.ar   84  TYR84      -0.0009
    123  CD2       27.5890   27.8380  -12.5500 C.ar   84  TYR84      -0.0009
    124  CE1       25.2690   27.4630  -13.9830 C.ar   84  TYR84       0.0417
    125  CE2       26.8640   28.9220  -12.9860 C.ar   84  TYR84       0.0417
    126  CZ        25.7070   28.7220  -13.6980 C.ar   84  TYR84       0.1957
    127  OH        25.0150   29.8110  -14.1160 O.3    84  TYR84      -0.2866
    128  N         28.5500   23.0810   -9.6140 N.am   85  GLY85      -0.1940
    129  CA        28.9900   21.7470   -9.2540 C.3    85  GLY85       0.2014
    130  C         30.3560   21.3720   -9.7740 C.2    85  GLY85       0.2638
    131  O         31.0840   22.2260  -10.2610 O.2    85  GLY85      -0.2714
    132  N         30.6820   20.0690   -9.6860 N.am   86  ASN86      -0.1972
    133  CA        32.0220   19.5980   -9.9720 C.3    86  ASN86       0.1688
    134  C         32.4040   19.7300  -11.4610 C.2    86  ASN86       0.2292
    135  O         31.5040   19.8410  -12.3150 O.2    86  ASN86      -0.2864
    136  CB        32.2730   18.2290   -9.3420 C.3    86  ASN86       0.1181
    137  CG        31.8140   17.0980  -10.1900 C.2    86  ASN86       0.2629
    138  OD1       32.3030   16.9010  -11.3040 O.2    86  ASN86      -0.2716
    139  ND2       30.8870   16.2970   -9.6610 N.am   86  ASN86      -0.0877
    140  N         30.1910   19.0480  -15.0970 N.3    90  TYR90      -0.1241
    141  CA        29.9880   20.2020  -15.9240 C.3    90  TYR90       0.1605
    142  C         30.4740   19.9810  -17.3620 C.2    90  TYR90       0.2264
    143  O         29.8890   20.4620  -18.3180 O.2    90  TYR90      -0.2867
    144  CB        30.7090   21.3380  -15.3220 C.3    90  TYR90       0.0534
    145  CG        30.3570   22.6220  -15.9310 C.ar   90  TYR90      -0.0201
    146  CD1       29.2030   23.3140  -15.5440 C.ar   90  TYR90      -0.0009
    147  CD2       31.1930   23.2010  -16.9000 C.ar   90  TYR90      -0.0009
    148  CE1       28.8900   24.5620  -16.1150 C.ar   90  TYR90       0.0417
    149  CE2       30.9100   24.4390  -17.4580 C.ar   90  TYR90       0.0417
    150  CZ        29.7540   25.1160  -17.0690 C.ar   90  TYR90       0.1957
    151  OH        29.4740   26.3460  -17.6280 O.3    90  TYR90      -0.2866
    152  N         28.1340   17.5440  -19.4470 N.3    93  GLU93      -0.1245
    153  CA        26.7850   18.0370  -19.7260 C.3    93  GLU93       0.1567
    154  C         26.6770   19.3820  -20.3520 C.2    93  GLU93       0.2260
    155  O         25.5820   19.8830  -20.5020 O.2    93  GLU93      -0.2867
    156  CB        26.0170   18.1820  -18.4260 C.3    93  GLU93       0.0388
    157  CG        25.6170   16.8870  -17.7840 C.3    93  GLU93       0.1160
    158  CD        25.5180   17.0390  -16.2930 C.2    93  GLU93       0.3649
    159  OE1       25.4840   18.2040  -15.8300 O.co2  93  GLU93      -0.2457
    160  OE2       25.5360   16.0080  -15.5860 O.co2  93  GLU93      -0.2457
    161  N         35.5340   22.6110   -8.8170 N.3   134  LEU134     -0.1245
    162  CA        34.1690   23.1040   -8.7120 C.3   134  LEU134      0.1561
    163  C         34.0390   24.2700   -9.5690 C.2   134  LEU134      0.2260
    164  O         35.0090   24.9730   -9.7770 O.2   134  LEU134     -0.2867
    165  CB        33.8140   23.5230   -7.2900 C.3   134  LEU134      0.0270
    166  CG        33.6670   22.3430   -6.3050 C.3   134  LEU134      0.0019
    167  CD1       33.5760   22.8340   -4.8870 C.3   134  LEU134      0.0001
    168  CD2       32.4470   21.5250   -6.6950 C.3   134  LEU134      0.0001
    169  N         39.3810   22.0770   -5.0930 N.3   144  ALA144     -0.1231
    170  CA        38.6630   21.6830   -3.9110 C.3   144  ALA144      0.1694
    171  C         39.1460   20.3260   -3.4110 C.2   144  ALA144      0.2592
    172  O         40.2410   19.8270   -3.7820 O.2   144  ALA144     -0.2718
    173  CB        37.1790   21.6420   -4.2250 C.3   144  ALA144      0.0304
    174  N         38.3450   19.7550   -2.5220 N.am  145  ASP145     -0.1960
    175  CA        38.6500   18.4990   -1.8450 C.3   145  ASP145      0.1840
    176  C         40.0610   18.4120   -1.3270 C.2   145  ASP145      0.2622
    177  O         40.8880   17.7150   -1.8620 O.2   145  ASP145     -0.2715
    178  CB        38.2930   17.2660   -2.6960 C.3   145  ASP145      0.1450
    179  CG        37.6860   16.1400   -1.8520 C.2   145  ASP145      0.3671
    180  OD1       37.9320   16.0730   -0.5950 O.co2 145  ASP145     -0.2456
    181  OD2       36.9240   15.3440   -2.4450 O.co2 145  ASP145     -0.2456
    182  N         40.2960   19.1170   -0.2420 N.am  146  PHE146     -0.1974
    183  CA        41.5790   19.2070    0.3700 C.3   146  PHE146      0.1639
    184  C         41.7590   18.2520    1.5070 C.2   146  PHE146      0.2290
    185  O         42.5920   18.5230    2.3400 O.2   146  PHE146     -0.2864
    186  CB        41.7800   20.6240    0.9250 C.3   146  PHE146      0.0560
    187  CG        41.6240   21.7170   -0.1160 C.ar  146  PHE146     -0.0200
    188  CD1       42.6490   22.0390   -1.0170 C.ar  146  PHE146     -0.0042
    189  CD2       40.4570   22.4300   -0.1710 C.ar  146  PHE146     -0.0042
    190  CE1       42.4860   23.0650   -1.9260 C.ar  146  PHE146     -0.0003
    191  CE2       40.2790   23.4610   -1.0820 C.ar  146  PHE146     -0.0003
    192  CZ        41.2990   23.7770   -1.9500 C.ar  146  PHE146     -0.0000
@<TRIPOS>BOND
     1   155   154    2
     2   154   153    1
     3   153   152    1
     4   153   156    1
     5   156   157    1
     6   143   142    2
     7   157   158    1
     8   151   150    1
     9   149   150   ar
    10   149   147   ar
    11   142   141    1
    12   150   148   ar
    13   147   145   ar
    14   158   159   ar
    15   158   160   ar
    16   148   146   ar
    17   145   146   ar
    18   145   144    1
    19   141   144    1
    20   141   140    1
    21   127   126    1
    22   124   126   ar
    23   124   122   ar
    24   126   125   ar
    25   122   121   ar
    26   125   123   ar
    27   121   123   ar
    28   121   120    1
    29   120   117    1
    30   135   134    2
    31   119   118    2
    32   134   133    1
    33   138   137    2
    34   117   118    1
    35   117   116    1
    36   118   128   am
    37   131   130    2
    38   137   139   am
    39   137   136    1
    40   133   132    1
    41   133   136    1
    42   116   111   am
    43   164   163    2
    44   130   132   am
    45   130   129    1
    46   128   129    1
    47   163   162    1
    48   112   111    2
    49   111   110    1
    50   114   113    1
    51   114   115    1
    52   161   162    1
    53   162   165    1
    54   113   110    1
    55   110   109    1
    56   115   109    1
    57   108   107    1
    58   109   103   am
    59   165   166    1
    60   103   104    2
    61   103   102    1
    62   168   166    1
    63   105   102    1
    64   105   106    1
    65   166   167    1
    66   102   101    1
    67   107   106    1
    68   100    99    1
    69   169   170    1
    70    98    99   ar
    71    98    96   ar
    72    99    97   ar
    73   101    91   am
    74    92    91    2
    75   173   170    1
    76    96    94   ar
    77    91    90    1
    78   170   171    1
    79     4     3    2
    80   172   171    2
    81    64    62    1
    82    97    95   ar
    83     8     6    1
    84    58    59    1
    85   171   174   am
    86    87    86   ar
    87    88    86   ar
    88    94    95   ar
    89    94    93    1
    90    86    85    1
    91   178   179    1
    92   178   175    1
    93     3     2    1
    94     3     9   am
    95    59    62    1
    96    59    60    1
    97   174   175    1
    98    90    93    1
    99    90    89    1
   100   181   179   ar
   101    62    63    1
   102     5     2    1
   103     5     6    1
   104     2     1    1
   105     6     7    1
   106   192   190   ar
   107   192   191   ar
   108   190   188   ar
   109    10     9    1
   110    10    11    1
   111   177   176    2
   112   179   180   ar
   113   175   176    1
   114    89    82   am
   115    85    84    1
   116   176   182   am
   117    60    61    2
   118    84    81    1
   119   191   189   ar
   120    82    83    2
   121    82    81    1
   122   188   187   ar
   123    11    12    2
   124   182   183    1
   125    81    80    1
   126   189   187   ar
   127   187   186    1
   128    24    21    1
   129   183   186    1
   130   183   184    1
   131    18    17    1
   132    78    77    1
   133    17    19    1
   134    17    14    1
   135    80    75   am
   136    16    15    2
   137    20    21    1
   138    21    22    1
   139   184   185    2
   140    77    79    1
   141    77    74    1
   142    76    75    2
   143    75    74    1
   144    15    14    1
   145    14    13    1
   146    57    56    1
   147    48    47   ar
   148    74    73    1
   149    22    25   am
   150    22    23    2
   151    56    55    1
   152    40    39    1
   153    55    54    1
   154    25    26    1
   155    47    49   ar
   156    47    46    1
   157    38    39    1
   158    38    37    1
   159    54    51    1
   160    28    27    2
   161    46    45    1
   162    51    50    1
   163    51    52    1
   164    37    36    1
   165    53    52    2
   166    36    33    1
   167    27    26    1
   168    27    32   am
   169    26    29    1
   170    32    33    1
   171    33    34    1
   172    45    42    1
   173    31    29    1
   174    29    30    1
   175    44    43    2
   176    42    43    1
   177    42    41    1
   178    68    67    2
   179    71    69    1
   180    34    35    2
   181    67    66    1
   182    69    66    1
   183    69    70    1
   184    72    70    1
   185    66    65    1
