@<TRIPOS>MOLECULE
tmp/4xlvA00.pdb
 192 179 0 0 0
SMALL
GASTEIGER

@<TRIPOS>ATOM
      1  N         34.7970    6.1190   67.7860 N.3    29  LEU29      -0.1231
      2  CA        34.2050    4.8770   67.2960 C.3    29  LEU29       0.1693
      3  C         34.2740    4.8290   65.7910 C.2    29  LEU29       0.2593
      4  O         33.9890    3.7990   65.1860 O.2    29  LEU29      -0.2718
      5  CB        32.7460    4.7730   67.7010 C.3    29  LEU29       0.0284
      6  CG        32.3760    4.4950   69.1510 C.3    29  LEU29       0.0019
      7  CD1       30.8630    4.4580   69.2210 C.3    29  LEU29       0.0001
      8  CD2       32.9690    3.1820   69.6720 C.3    29  LEU29       0.0001
      9  N         34.6370    5.9560   65.1940 N.am   30  GLY30      -0.1942
     10  CA        34.6630    6.1010   63.7450 C.3    30  GLY30       0.2014
     11  C         35.0430    7.5070   63.3040 C.2    30  GLY30       0.2639
     12  O         34.7120    8.4960   63.9620 O.2    30  GLY30      -0.2714
     13  N         35.7870    7.5690   62.2050 N.am   31  GLN31      -0.1963
     14  CA        36.0240    8.7930   61.4700 C.3    31  GLN31       0.1733
     15  C         35.3870    8.5800   60.1190 C.2    31  GLN31       0.2617
     16  O         35.7080    7.6120   59.4350 O.2    31  GLN31      -0.2715
     17  CB        37.5190    9.0180   61.2350 C.3    31  GLN31       0.0408
     18  CG        38.3570    9.2720   62.4720 C.3    31  GLN31       0.0908
     19  CD        39.4090   10.3420   62.2460 C.2    31  GLN31       0.2608
     20  OE1       39.5380   10.8820   61.1450 O.2    31  GLN31      -0.2717
     21  NE2       40.1510   10.6750   63.2990 N.am   31  GLN31      -0.0878
     22  N         34.4810    9.4720   59.7390 N.am   32  GLY32      -0.1940
     23  CA        34.0430    9.5660   58.3510 C.3    32  GLY32       0.2014
     24  C         35.0960   10.3450   57.5810 C.2    32  GLY32       0.2640
     25  O         36.2330   10.4680   58.0440 O.2    32  GLY32      -0.2714
     26  N         34.7310   10.8740   56.4140 N.am   33  SER33      -0.1935
     27  CA        35.6270   11.7740   55.6820 C.3    33  SER33       0.2055
     28  C         35.5370   13.2070   56.2250 C.2    33  SER33       0.2643
     29  O         36.4420   14.0200   56.0090 O.2    33  SER33      -0.2714
     30  CB        35.3530   11.7290   54.1770 C.3    33  SER33       0.2130
     31  OG        33.9940   12.0070   53.9130 O.3    33  SER33      -0.2179
     32  N         34.4460   13.4990   56.9350 N.am   34  PHE34      -0.1959
     33  CA        34.2800   14.7700   57.6380 C.3    34  PHE34       0.1771
     34  C         33.5290   14.6360   58.9770 C.2    34  PHE34       0.2620
     35  O         33.2840   15.6390   59.6570 O.2    34  PHE34      -0.2715
     36  CB        33.6060   15.8130   56.7290 C.3    34  PHE34       0.0574
     37  CG        32.1530   15.5210   56.4090 C.ar   34  PHE34      -0.0200
     38  CD1       31.1260   16.0270   57.2120 C.ar   34  PHE34      -0.0042
     39  CD2       31.8060   14.7630   55.2900 C.ar   34  PHE34      -0.0042
     40  CE1       29.7920   15.7700   56.9070 C.ar   34  PHE34      -0.0003
     41  CE2       30.4730   14.5010   54.9860 C.ar   34  PHE34      -0.0003
     42  CZ        29.4640   15.0110   55.7880 C.ar   34  PHE34      -0.0000
     43  N         33.1720   13.4070   59.3540 N.am   35  GLY35      -0.1954
     44  CA        32.3400   13.1770   60.5430 C.3    35  GLY35       0.1869
     45  C         32.8600   12.1920   61.5850 C.2    35  GLY35       0.2309
     46  O         32.9940   10.9910   61.3010 O.2    35  GLY35      -0.2863
     47  N         32.5310    9.9780   65.0370 N.3    37  VAL37      -0.1245
     48  CA        31.5740    9.3120   65.8990 C.3    37  VAL37       0.1561
     49  C         32.2630    8.8520   67.1840 C.2    37  VAL37       0.2260
     50  O         33.2020    8.0650   67.1380 O.2    37  VAL37      -0.2867
     51  CB        30.8620    8.1320   65.2130 C.3    37  VAL37       0.0252
     52  CG1       29.7790    7.5900   66.1290 C.3    37  VAL37       0.0019
     53  CG2       30.2390    8.5570   63.8800 C.3    37  VAL37       0.0019
     54  N         26.2240    7.1710   71.5120 N.3    55  ALA55      -0.1245
     55  CA        27.1130    7.5100   70.4290 C.3    55  ALA55       0.1562
     56  C         26.8260    8.9480   70.0910 C.2    55  ALA55       0.2260
     57  O         25.6700    9.3820   70.1030 O.2    55  ALA55      -0.2867
     58  CB        26.8730    6.6130   69.2040 C.3    55  ALA55       0.0290
     59  N         27.5680   11.9410   67.2890 N.3    57  LYS57      -0.1245
     60  CA        28.0300   12.2320   65.9430 C.3    57  LYS57       0.1561
     61  C         28.3270   13.7130   65.9100 C.2    57  LYS57       0.2260
     62  O         27.5320   14.4940   66.4210 O.2    57  LYS57      -0.2867
     63  CB        26.9450   11.8510   64.9360 C.3    57  LYS57       0.0271
     64  CG        27.5050   11.2410   63.6760 C.3    57  LYS57       0.0035
     65  CD        26.4510   10.6930   62.7320 C.3    57  LYS57       0.0206
     66  CE        27.1170   10.3620   61.4010 C.3    57  LYS57       0.1093
     67  NZ        26.2030   10.2510   60.2260 N.3    57  LYS57      -0.1314
     68  N         24.0960   19.0140   55.1620 N.3    70  GLU70      -0.1245
     69  CA        23.7040   17.5980   55.1900 C.3    70  GLU70       0.1567
     70  C         23.5620   17.0100   56.6040 C.2    70  GLU70       0.2260
     71  O         22.6270   16.2860   56.8870 O.2    70  GLU70      -0.2867
     72  CB        24.7120   16.7630   54.3940 C.3    70  GLU70       0.0388
     73  CG        24.4870   15.2660   54.5340 C.3    70  GLU70       0.1160
     74  CD        25.6410   14.4250   54.0220 C.2    70  GLU70       0.3649
     75  OE1       25.8100   14.3300   52.7840 O.co2  70  GLU70      -0.2457
     76  OE2       26.3620   13.8360   54.8610 O.co2  70  GLU70      -0.2457
     77  N         20.2970   15.4730   58.2150 N.3    74  GLU74      -0.1245
     78  CA        20.3710   14.1650   58.8320 C.3    74  GLU74       0.1567
     79  C         19.8060   14.2300   60.2660 C.2    74  GLU74       0.2260
     80  O         18.9850   13.3950   60.6680 O.2    74  GLU74      -0.2867
     81  CB        21.8200   13.7030   58.8420 C.3    74  GLU74       0.0388
     82  CG        22.0280   12.3130   59.4070 C.3    74  GLU74       0.1160
     83  CD        23.4770   11.8490   59.2890 C.2    74  GLU74       0.3649
     84  OE1       24.1810   12.2450   58.3300 O.co2  74  GLU74      -0.2457
     85  OE2       23.9070   11.0790   60.1750 O.co2  74  GLU74      -0.2457
     86  N         18.2760    3.2730   64.1450 N.3    87  VAL87      -0.1245
     87  CA        19.0860    3.8880   65.1630 C.3    87  VAL87       0.1561
     88  C         18.3700    5.1270   65.7060 C.2    87  VAL87       0.2260
     89  O         18.1290    6.0920   64.9480 O.2    87  VAL87      -0.2867
     90  CB        20.4880    4.2880   64.6570 C.3    87  VAL87       0.0252
     91  CG1       21.2780    4.8680   65.8280 C.3    87  VAL87       0.0019
     92  CG2       21.2290    3.0930   64.0840 C.3    87  VAL87       0.0019
     93  N         22.9710    9.5700   70.0040 N.3   103  MET103     -0.1230
     94  CA        22.1590    8.4240   69.5500 C.3   103  MET103      0.1702
     95  C         22.3760    7.2400   70.4670 C.2   103  MET103      0.2592
     96  O         23.3790    7.1920   71.1910 O.2   103  MET103     -0.2718
     97  CB        22.6060    7.9690   68.1650 C.3   103  MET103      0.0401
     98  CG        22.4810    8.9900   67.0690 C.3   103  MET103      0.0596
     99  SD        23.6640    8.7030   65.7280 S.3   103  MET103     -0.1393
    100  CE        23.6950    6.9340   65.6100 C.3   103  MET103      0.0692
    101  N         21.4810    6.2520   70.4110 N.am  104  GLU104     -0.1966
    102  CA        21.7200    5.0180   71.1440 C.3   104  GLU104      0.1733
    103  C         23.0890    4.4420   70.7300 C.2   104  GLU104      0.2616
    104  O         23.4610    4.5200   69.5580 O.2   104  GLU104     -0.2715
    105  CB        20.5940    4.0030   70.8770 C.3   104  GLU104      0.0429
    106  CG        20.5690    3.4280   69.4560 C.3   104  GLU104      0.1163
    107  CD        19.4110    2.4880   69.2350 C.2   104  GLU104      0.3649
    108  OE1       18.5880    2.7180   68.3380 O.co2 104  GLU104     -0.2457
    109  OE2       19.3030    1.5120   69.9620 O.co2 104  GLU104     -0.2457
    110  N         23.8490    3.9000   71.6850 N.am  105  LEU105     -0.1963
    111  CA        25.1170    3.2600   71.3430 C.3   105  LEU105      0.1728
    112  C         24.8540    1.9180   70.6530 C.2   105  LEU105      0.2616
    113  O         24.1600    1.0670   71.1900 O.2   105  LEU105     -0.2715
    114  CB        25.9810    3.0090   72.5820 C.3   105  LEU105      0.0311
    115  CG        27.3540    2.3880   72.2690 C.3   105  LEU105      0.0022
    116  CD1       28.2290    3.3180   71.4350 C.3   105  LEU105      0.0001
    117  CD2       28.0600    1.9980   73.5550 C.3   105  LEU105      0.0001
    118  N         25.4170    1.7330   69.4700 N.am  106  MET106     -0.1977
    119  CA        25.3980    0.4030   68.8450 C.3   106  MET106      0.1605
    120  C         26.7530   -0.2510   69.0830 C.2   106  MET106      0.2287
    121  O         27.6800   -0.0510   68.3110 O.2   106  MET106     -0.2864
    122  CB        25.0690    0.5160   67.3650 C.3   106  MET106      0.0413
    123  CG        23.7020    1.1470   67.1560 C.3   106  MET106      0.0598
    124  SD        22.3980    0.1700   67.9270 S.3   106  MET106     -0.1393
    125  CE        22.2360   -1.0430   66.6260 C.3   106  MET106      0.0692
    126  N         29.3540   -1.6400   66.5710 N.3   109  GLY109     -0.1210
    127  CA        29.6350   -0.7600   65.4300 C.3   109  GLY109      0.1956
    128  C         28.7830   -1.1090   64.2350 C.2   109  GLY109      0.2611
    129  O         27.6260   -1.5120   64.3740 O.2   109  GLY109     -0.2717
    130  N         29.3480   -0.9460   63.0520 N.am  110  ASP110     -0.1973
    131  CA        28.6380   -1.2200   61.8230 C.3   110  ASP110      0.1709
    132  C         28.8190   -2.6630   61.3700 C.2   110  ASP110      0.2293
    133  O         29.8000   -3.3320   61.7080 O.2   110  ASP110     -0.2864
    134  CB        29.0870   -0.2860   60.7250 C.3   110  ASP110      0.1436
    135  CG        30.5490   -0.4600   60.3720 C.2   110  ASP110      0.3671
    136  OD1       30.8520   -1.0390   59.3150 O.co2 110  ASP110     -0.2456
    137  OD2       31.4080    0.0250   61.1290 O.co2 110  ASP110     -0.2456
    138  N         21.0680    5.0210   50.6910 N.3   159  ASP159     -0.1239
    139  CA        22.4510    4.6700   51.0090 C.3   159  ASP159      0.1674
    140  C         22.5460    3.4350   51.9290 C.2   159  ASP159      0.2266
    141  O         23.4270    3.3280   52.7940 O.2   159  ASP159     -0.2867
    142  CB        23.1740    5.8960   51.5860 C.3   159  ASP159      0.1410
    143  CG        24.6580    5.6900   51.7160 C.2   159  ASP159      0.3668
    144  OD1       25.2610    4.9490   50.9020 O.co2 159  ASP159     -0.2456
    145  OD2       25.2280    6.2630   52.6630 O.co2 159  ASP159     -0.2456
    146  N         27.8680   -0.8540   55.8130 N.3   163  ARG163     -0.1231
    147  CA        28.5940    0.2160   56.5320 C.3   163  ARG163      0.1694
    148  C         27.6500    1.1470   57.2970 C.2   163  ARG163      0.2592
    149  O         28.0820    1.8350   58.2380 O.2   163  ARG163     -0.2718
    150  CB        29.4920    1.0300   55.5950 C.3   163  ARG163      0.0321
    151  CG        28.7440    1.8590   54.5650 C.3   163  ARG163      0.0489
    152  CD        29.6600    2.6020   53.5950 C.3   163  ARG163      0.2205
    153  NE        28.8470    3.1140   52.4840 N.pl3 163  ARG163     -0.0865
    154  CZ        28.6220    2.4540   51.3550 C.cat 163  ARG163      0.5346
    155  NH1       29.1900    1.2800   51.1450 N.pl3 163  ARG163      0.1354
    156  NH2       27.8410    2.9690   50.4280 N.pl3 163  ARG163      0.1354
    157  N         26.3740    1.1430   56.8930 N.am  164  ASN164     -0.1974
    158  CA        25.3070    1.9620   57.4990 C.3   164  ASN164      0.1688
    159  C         24.2850    1.1800   58.2780 C.2   164  ASN164      0.2292
    160  O         23.2700    1.7460   58.7100 O.2   164  ASN164     -0.2864
    161  CB        24.5770    2.7730   56.4520 C.3   164  ASN164      0.1181
    162  CG        25.4430    3.8440   55.8610 C.2   164  ASN164      0.2629
    163  OD1       26.4260    4.2690   56.4780 O.2   164  ASN164     -0.2716
    164  ND2       25.0890    4.2990   54.6720 N.am  164  ASN164     -0.0877
    165  N         23.9730   -0.7820   61.7670 N.3   166  MET166     -0.1245
    166  CA        24.7240   -0.7510   62.9930 C.3   166  MET166      0.1570
    167  C         24.3570   -1.9680   63.8010 C.2   166  MET166      0.2261
    168  O         23.2300   -2.4220   63.7470 O.2   166  MET166     -0.2867
    169  CB        24.4160    0.5240   63.7820 C.3   166  MET166      0.0387
    170  CG        24.6500    1.8050   63.0130 C.3   166  MET166      0.0595
    171  SD        26.3200    1.8720   62.3510 S.3   166  MET166     -0.1393
    172  CE        26.1530    3.4790   61.5380 C.3   166  MET166      0.0692
    173  N         22.5850    6.1520   59.5630 N.3   177  ASP177     -0.1239
    174  CA        23.1210    7.0150   58.5310 C.3   177  ASP177      0.1674
    175  C         22.1340    7.5970   57.5270 C.2   177  ASP177      0.2266
    176  O         22.0450    7.1300   56.3890 O.2   177  ASP177     -0.2867
    177  CB        24.3000    6.3650   57.8180 C.3   177  ASP177      0.1410
    178  CG        25.1540    7.3710   57.1120 C.2   177  ASP177      0.3668
    179  OD1       24.7090    8.5270   56.9740 O.co2 177  ASP177     -0.2456
    180  OD2       26.2750    7.0230   56.7000 O.co2 177  ASP177     -0.2456
    181  N         22.0480   10.8110   56.2540 N.3   179  GLY179     -0.1210
    182  CA        22.5080   11.9280   55.4180 C.3   179  GLY179      0.1956
    183  C         21.9260   11.9350   54.0180 C.2   179  GLY179      0.2611
    184  O         21.6370   12.9800   53.4730 O.2   179  GLY179     -0.2717
    185  N         21.7120   10.7710   53.4310 N.am  180  MET180     -0.1979
    186  CA        21.2140   10.7210   52.0460 C.3   180  MET180      0.1605
    187  C         19.6750   10.5550   51.9610 C.2   180  MET180      0.2287
    188  O         19.0860   10.6230   50.8770 O.2   180  MET180     -0.2864
    189  CB        21.9550    9.6110   51.3070 C.3   180  MET180      0.0413
    190  CG        22.6680   10.0090   50.0190 C.3   180  MET180      0.0598
    191  SD        23.8170   11.4140   49.9830 S.3   180  MET180     -0.1393
    192  CE        25.1460   10.8800   51.0620 C.3   180  MET180      0.0692
@<TRIPOS>BOND
     1   191   190    1
     2   191   192    1
     3   190   189    1
     4   156   154    1
     5   138   139    1
     6   188   187    2
     7   144   143   ar
     8   139   142    1
     9   139   140    1
    10   155   154    1
    11   189   186    1
    12   154   153    2
    13   142   143    1
    14   143   145   ar
    15   140   141    2
    16   187   186    1
    17   186   185    1
    18   153   152    1
    19    75    74   ar
    20   185   183   am
    21   184   183    2
    22   152   151    1
    23    31    30    1
    24   183   182    1
    25    74    73    1
    26    74    76   ar
    27    30    27    1
    28    72    73    1
    29    72    69    1
    30   151   150    1
    31   164   162   am
    32    41    39   ar
    33    41    42   ar
    34    68    69    1
    35    69    70    1
    36    39    37   ar
    37   182   181    1
    38   150   147    1
    39    27    28    1
    40    27    26    1
    41    42    40   ar
    42   146   147    1
    43   162   161    1
    44   162   163    2
    45    29    28    2
    46    28    32   am
    47   176   175    2
    48    37    36    1
    49    37    38   ar
    50    26    24   am
    51   161   158    1
    52   147   148    1
    53    70    71    2
    54   180   178   ar
    55    36    33    1
    56   157   148   am
    57   157   158    1
    58    40    38   ar
    59    32    33    1
    60   179   178   ar
    61   178   177    1
    62   148   149    2
    63   158   159    1
    64   175   174    1
    65    24    25    2
    66    24    23    1
    67    33    34    1
    68   177   174    1
    69    77    78    1
    70   159   160    2
    71    84    83   ar
    72    23    22    1
    73   174   173    1
    74    78    81    1
    75    78    79    1
    76    81    82    1
    77    34    43   am
    78    34    35    2
    79    83    82    1
    80    83    85   ar
    81   136   135   ar
    82    43    44    1
    83    16    15    2
    84    22    15   am
    85    15    14    1
    86    67    66    1
    87    79    80    2
    88   135   134    1
    89   135   137   ar
    90    44    45    1
    91   134   131    1
    92    20    19    2
    93    17    14    1
    94    17    18    1
    95    46    45    2
    96   132   133    2
    97   132   131    1
    98    66    65    1
    99    14    13    1
   100   172   171    1
   101   165   166    1
   102   131   130    1
   103    13    11   am
   104    19    18    1
   105    19    21   am
   106   171   170    1
   107    65    64    1
   108   166   169    1
   109   166   167    1
   110   170   169    1
   111   130   128   am
   112    11    10    1
   113    11    12    2
   114    64    63    1
   115    10     9    1
   116   168   167    2
   117    53    51    1
   118    92    90    1
   119    86    87    1
   120   128   129    2
   121   128   127    1
   122    90    87    1
   123    90    91    1
   124    63    60    1
   125    89    88    2
   126    47    48    1
   127    87    88    1
   128     4     3    2
   129     9     3   am
   130    51    48    1
   131    51    52    1
   132   127   126    1
   133   100    99    1
   134    99    98    1
   135     3     2    1
   136    48    49    1
   137    61    60    1
   138    61    62    2
   139    60    59    1
   140   125   124    1
   141    98    97    1
   142    50    49    2
   143   123   122    1
   144   123   124    1
   145     2     5    1
   146     2     1    1
   147   122   119    1
   148     5     6    1
   149    97    94    1
   150   121   120    2
   151   108   107   ar
   152   119   120    1
   153   119   118    1
   154     6     7    1
   155     6     8    1
   156    58    55    1
   157   107   106    1
   158   107   109   ar
   159   106   105    1
   160   118   112   am
   161    94    93    1
   162    94    95    1
   163   104   103    2
   164    56    57    2
   165    56    55    1
   166   101    95   am
   167   101   102    1
   168    55    54    1
   169    95    96    2
   170   112   113    2
   171   112   111    1
   172   103   102    1
   173   103   110   am
   174   105   102    1
   175   111   110    1
   176   111   114    1
   177   116   115    1
   178   115   114    1
   179   115   117    1
