@<TRIPOS>MOLECULE
tmp/4xlyB00.pdb
 188 175 0 0 0
SMALL
GASTEIGER

@<TRIPOS>ATOM
      1  N        -11.8860  -61.6970  -18.7020 N.3    27  GLU27      -0.1231
      2  CA       -11.0740  -61.2720  -17.5660 C.3    27  GLU27       0.1699
      3  C        -11.5020  -59.9320  -16.9550 C.2    27  GLU27       0.2592
      4  O        -11.2930  -59.6820  -15.7610 O.2    27  GLU27      -0.2718
      5  CB        -9.6010  -61.2480  -17.9560 C.3    27  GLU27       0.0402
      6  CG        -9.0530  -62.5950  -18.4610 C.3    27  GLU27       0.1161
      7  CD        -9.2380  -63.7300  -17.4570 C.2    27  GLU27       0.3649
      8  OE1       -9.1030  -63.4730  -16.2390 O.co2  27  GLU27      -0.2457
      9  OE2       -9.5030  -64.8830  -17.8880 O.co2  27  GLU27      -0.2457
     10  N        -12.1100  -59.0670  -17.7580 N.am   28  ALA28      -0.1980
     11  CA       -12.5860  -57.7850  -17.2270 C.3    28  ALA28       0.1597
     12  C        -13.7510  -58.0360  -16.2740 C.2    28  ALA28       0.2287
     13  O        -13.8370  -57.4440  -15.1990 O.2    28  ALA28      -0.2864
     14  CB       -13.0510  -56.8730  -18.3590 C.3    28  ALA28       0.0319
     15  N        -12.3590  -59.7850  -13.0660 N.3    31  GLY31      -0.1225
     16  CA       -11.6790  -58.8770  -12.1600 C.3    31  GLY31       0.1811
     17  C        -12.6610  -57.8660  -11.6040 C.2    31  GLY31       0.2280
     18  O        -12.6120  -57.5170  -10.4210 O.2    31  GLY31      -0.2866
     19  N        -13.8410  -56.9410   -7.5960 N.3    35  ILE35      -0.1245
     20  CA       -13.7980  -55.6440   -6.9390 C.3    35  ILE35       0.1561
     21  C        -15.1610  -55.2210   -6.3950 C.2    35  ILE35       0.2260
     22  O        -15.2640  -54.7600   -5.2520 O.2    35  ILE35      -0.2867
     23  CB       -13.2990  -54.5200   -7.9020 C.3    35  ILE35       0.0252
     24  CG1      -11.7910  -54.6130   -8.1100 C.3    35  ILE35       0.0019
     25  CG2      -13.5970  -53.1640   -7.3060 C.3    35  ILE35       0.0019
     26  CD1      -11.3360  -55.8060   -8.8250 C.3    35  ILE35       0.0001
     27  N        -12.9530  -51.7380  -18.0700 N.3    67  LEU67      -0.1245
     28  CA       -11.8710  -52.6570  -17.7040 C.3    67  LEU67       0.1561
     29  C        -11.4300  -53.4390  -18.9280 C.2    67  LEU67       0.2260
     30  O        -10.2350  -53.6710  -19.1180 O.2    67  LEU67      -0.2867
     31  CB       -12.3330  -53.6360  -16.6140 C.3    67  LEU67       0.0270
     32  CG       -12.7130  -53.0380  -15.2610 C.3    67  LEU67       0.0019
     33  CD1      -12.9590  -54.1620  -14.2380 C.3    67  LEU67       0.0001
     34  CD2      -11.5830  -52.1420  -14.7790 C.3    67  LEU67       0.0001
     35  N         -9.3450  -51.3200  -21.1220 N.3    70  LEU70      -0.1231
     36  CA        -7.9720  -51.2220  -20.6290 C.3    70  LEU70       0.1693
     37  C         -7.1250  -52.4460  -20.9620 C.2    70  LEU70       0.2592
     38  O         -5.9440  -52.3250  -21.3290 O.2    70  LEU70      -0.2718
     39  CB        -7.9410  -50.9950  -19.1120 C.3    70  LEU70       0.0284
     40  CG        -8.5440  -49.6900  -18.5640 C.3    70  LEU70       0.0019
     41  CD1       -8.5520  -49.7490  -17.0550 C.3    70  LEU70       0.0001
     42  CD2       -7.7370  -48.4660  -19.0550 C.3    70  LEU70       0.0001
     43  N         -7.7190  -53.6290  -20.8170 N.am   71  PHE71      -0.1976
     44  CA        -6.9860  -54.8540  -21.1070 C.3    71  PHE71       0.1639
     45  C         -6.6770  -54.8910  -22.6080 C.2    71  PHE71       0.2290
     46  O         -5.5540  -55.1830  -23.0140 O.2    71  PHE71      -0.2864
     47  CB        -7.8370  -56.0650  -20.6960 C.3    71  PHE71       0.0560
     48  CG        -7.1570  -57.4040  -20.8940 C.ar   71  PHE71      -0.0200
     49  CD1       -5.8090  -57.4910  -21.2550 C.ar   71  PHE71      -0.0042
     50  CD2       -7.8780  -58.5940  -20.6830 C.ar   71  PHE71      -0.0042
     51  CE1       -5.1910  -58.7330  -21.4020 C.ar   71  PHE71      -0.0003
     52  CE2       -7.2680  -59.8290  -20.8270 C.ar   71  PHE71      -0.0003
     53  CZ        -5.9250  -59.9030  -21.1880 C.ar   71  PHE71      -0.0000
     54  N         -3.9440  -52.5960  -23.6550 N.3    74  CYS74      -0.1221
     55  CA        -2.6490  -53.1300  -23.2450 C.3    74  CYS74       0.1808
     56  C         -2.1460  -54.1660  -24.2470 C.2    74  CYS74       0.2601
     57  O         -0.9720  -54.1510  -24.6280 O.2    74  CYS74      -0.2717
     58  CB        -2.7260  -53.7630  -21.8580 C.3    74  CYS74       0.0970
     59  SG        -1.1220  -54.3650  -21.2790 S.3    74  CYS74      -0.0800
     60  N         -3.0270  -55.0680  -24.6740 N.am   75  ASP75      -0.1973
     61  CA        -2.6280  -56.0830  -25.6580 C.3    75  ASP75       0.1709
     62  C         -2.3450  -55.4550  -27.0080 C.2    75  ASP75       0.2293
     63  O         -1.4550  -55.9050  -27.7420 O.2    75  ASP75      -0.2864
     64  CB        -3.7170  -57.1440  -25.8190 C.3    75  ASP75       0.1436
     65  CG        -3.5810  -58.2610  -24.8160 C.2    75  ASP75       0.3671
     66  OD1       -2.6650  -58.1780  -23.9810 O.co2  75  ASP75      -0.2456
     67  OD2       -4.3830  -59.2190  -24.8630 O.co2  75  ASP75      -0.2456
     68  N          1.3030  -54.3060  -26.4010 N.3    78  ASP78      -0.1239
     69  CA         2.2520  -55.3850  -26.1990 C.3    78  ASP78       0.1674
     70  C          2.2770  -56.4440  -27.2920 C.2    78  ASP78       0.2266
     71  O          3.3100  -57.0700  -27.5150 O.2    78  ASP78      -0.2867
     72  CB         2.0040  -56.0800  -24.8580 C.3    78  ASP78       0.1410
     73  CG         2.0560  -55.1240  -23.6780 C.2    78  ASP78       0.3668
     74  OD1        2.6130  -54.0120  -23.8210 O.co2  78  ASP78      -0.2456
     75  OD2        1.5420  -55.4980  -22.6010 O.co2  78  ASP78      -0.2456
     76  N         -2.4130  -43.2590  -19.4420 N.3   135  TYR135     -0.1241
     77  CA        -2.2790  -44.7030  -19.5930 C.3   135  TYR135      0.1605
     78  C         -1.7130  -45.0090  -20.9640 C.2   135  TYR135      0.2264
     79  O         -0.7030  -45.6970  -21.0670 O.2   135  TYR135     -0.2867
     80  CB        -3.6460  -45.3710  -19.4340 C.3   135  TYR135      0.0534
     81  CG        -3.6680  -46.8800  -19.6670 C.ar  135  TYR135     -0.0201
     82  CD1       -2.8530  -47.7360  -18.9390 C.ar  135  TYR135     -0.0009
     83  CD2       -4.5680  -47.4400  -20.5750 C.ar  135  TYR135     -0.0009
     84  CE1       -2.9430  -49.1470  -19.1050 C.ar  135  TYR135      0.0417
     85  CE2       -4.6670  -48.8270  -20.7470 C.ar  135  TYR135      0.0417
     86  CZ        -3.8620  -49.6700  -20.0120 C.ar  135  TYR135      0.1957
     87  OH        -4.0280  -51.0360  -20.1870 O.3   135  TYR135     -0.2866
     88  N          1.9520  -46.8740  -21.7160 N.3   139  LEU139     -0.1245
     89  CA         2.0750  -48.1630  -22.3920 C.3   139  LEU139      0.1561
     90  C          3.0800  -48.0100  -23.5390 C.2   139  LEU139      0.2260
     91  O          3.9570  -48.8580  -23.7360 O.2   139  LEU139     -0.2867
     92  CB         0.7260  -48.6140  -22.9550 C.3   139  LEU139      0.0270
     93  CG        -0.3840  -49.0780  -21.9980 C.3   139  LEU139      0.0019
     94  CD1       -1.6460  -49.3160  -22.8040 C.3   139  LEU139      0.0001
     95  CD2        0.0250  -50.3430  -21.2520 C.3   139  LEU139      0.0001
     96  N         11.4910  -46.4250  -14.3760 N.3   152  TYR152     -0.1241
     97  CA        10.6640  -47.5630  -14.7430 C.3   152  TYR152      0.1605
     98  C          9.4170  -47.6230  -13.8840 C.2   152  TYR152      0.2264
     99  O          8.3030  -47.8070  -14.3930 O.2   152  TYR152     -0.2867
    100  CB        11.4140  -48.8870  -14.5750 C.3   152  TYR152      0.0534
    101  CG        10.5520  -50.0600  -14.9530 C.ar  152  TYR152     -0.0201
    102  CD1       10.3660  -50.4040  -16.2930 C.ar  152  TYR152     -0.0009
    103  CD2        9.8360  -50.7620  -13.9870 C.ar  152  TYR152     -0.0009
    104  CE1        9.4820  -51.4110  -16.6650 C.ar  152  TYR152      0.0417
    105  CE2        8.9480  -51.7690  -14.3430 C.ar  152  TYR152      0.0417
    106  CZ         8.7730  -52.0880  -15.6880 C.ar  152  TYR152      0.1957
    107  OH         7.8760  -53.0650  -16.0580 O.3   152  TYR152     -0.2866
    108  N          1.0410  -47.0730  -16.2170 N.3   159  SER159     -0.1202
    109  CA         0.6820  -48.1410  -17.1450 C.3   159  SER159      0.2020
    110  C         -0.1050  -49.2680  -16.4780 C.2   159  SER159      0.2619
    111  O         -0.7220  -50.0870  -17.1610 O.2   159  SER159     -0.2717
    112  CB         1.9460  -48.6960  -17.8200 C.3   159  SER159      0.2103
    113  OG         2.7450  -49.3760  -16.8820 O.3   159  SER159     -0.2182
    114  N         -0.1070  -49.3140  -15.1520 N.am  160  ILE160     -0.1965
    115  CA        -0.8470  -50.3620  -14.4650 C.3   160  ILE160      0.1727
    116  C         -2.3490  -50.0360  -14.4580 C.2   160  ILE160      0.2616
    117  O         -3.1850  -50.9050  -14.2250 O.2   160  ILE160     -0.2715
    118  CB        -0.3220  -50.5990  -13.0250 C.3   160  ILE160      0.0290
    119  CG1       -0.7930  -51.9710  -12.5480 C.3   160  ILE160      0.0022
    120  CG2       -0.7980  -49.5170  -12.0720 C.3   160  ILE160      0.0023
    121  CD1       -0.1720  -53.1100  -13.3220 C.3   160  ILE160      0.0001
    122  N         -2.6760  -48.7750  -14.7290 N.am  161  ALA161     -0.1963
    123  CA        -4.0670  -48.3310  -14.8430 C.3   161  ALA161      0.1728
    124  C         -4.9820  -48.3850  -13.6350 C.2   161  ALA161      0.2616
    125  O         -6.1980  -48.3200  -13.7800 O.2   161  ALA161     -0.2715
    126  CB        -4.7310  -49.0570  -16.0140 C.3   161  ALA161      0.0334
    127  N         -4.4230  -48.4840  -12.4410 N.am  162  TYR162     -0.1974
    128  CA        -5.2650  -48.5060  -11.2540 C.3   162  TYR162      0.1639
    129  C         -5.9570  -47.1490  -11.0840 C.2   162  TYR162      0.2290
    130  O         -7.0580  -47.0590  -10.5350 O.2   162  TYR162     -0.2864
    131  CB        -4.4140  -48.8360  -10.0210 C.3   162  TYR162      0.0560
    132  CG        -4.0660  -50.3090   -9.8930 C.ar  162  TYR162     -0.0198
    133  CD1       -4.2580  -51.1850  -10.9610 C.ar  162  TYR162     -0.0009
    134  CD2       -3.5490  -50.8250   -8.7030 C.ar  162  TYR162     -0.0009
    135  CE1       -3.9480  -52.5400  -10.8550 C.ar  162  TYR162      0.0417
    136  CE2       -3.2370  -52.1870   -8.5840 C.ar  162  TYR162      0.0417
    137  CZ        -3.4420  -53.0360   -9.6710 C.ar  162  TYR162      0.1957
    138  OH        -3.1410  -54.3750   -9.5920 O.3   162  TYR162     -0.2866
    139  N         -9.0890  -47.2700  -13.0420 N.3   165  VAL165     -0.1245
    140  CA       -10.0890  -48.1200  -12.3840 C.3   165  VAL165      0.1561
    141  C        -10.7880  -47.3480  -11.2680 C.2   165  VAL165      0.2260
    142  O        -12.0130  -47.3770  -11.1490 O.2   165  VAL165     -0.2867
    143  CB        -9.4340  -49.3970  -11.7830 C.3   165  VAL165      0.0252
    144  CG1      -10.5060  -50.2530  -11.0970 C.3   165  VAL165      0.0019
    145  CG2       -8.7020  -50.1920  -12.8970 C.3   165  VAL165      0.0019
    146  N          2.0030  -52.7610  -10.0660 N.3   198  ARG198     -0.1245
    147  CA         3.0310  -52.9150  -11.0930 C.3   198  ARG198      0.1563
    148  C          4.0680  -53.9840  -10.7370 C.2   198  ARG198      0.2260
    149  O          4.4400  -54.7950  -11.5850 O.2   198  ARG198     -0.2867
    150  CB         3.7370  -51.5760  -11.3480 C.3   198  ARG198      0.0307
    151  CG         5.0380  -51.6640  -12.1420 C.3   198  ARG198      0.0489
    152  CD         4.8600  -52.4530  -13.4290 C.3   198  ARG198      0.2205
    153  NE         3.9230  -51.8210  -14.3520 N.pl3 198  ARG198     -0.0865
    154  CZ         3.3410  -52.4530  -15.3680 C.cat 198  ARG198      0.5346
    155  NH1        3.5930  -53.7360  -15.5880 N.pl3 198  ARG198      0.1354
    156  NH2        2.5110  -51.8040  -16.1700 N.pl3 198  ARG198      0.1354
    157  N          2.8100  -57.5580  -10.9340 N.3   201  ASN201     -0.1240
    158  CA         2.7060  -57.9840  -12.3250 C.3   201  ASN201      0.1653
    159  C          4.0640  -58.3590  -12.9150 C.2   201  ASN201      0.2266
    160  O          4.2120  -59.4200  -13.5210 O.2   201  ASN201     -0.2867
    161  CB         2.0460  -56.8750  -13.1540 C.3   201  ASN201      0.1155
    162  CG         2.0280  -57.1810  -14.6400 C.2   201  ASN201      0.2627
    163  OD1        3.0300  -57.0020  -15.3370 O.2   201  ASN201     -0.2716
    164  ND2        0.8910  -57.6530  -15.1290 N.am  201  ASN201     -0.0877
    165  N          9.5030  -53.1640  -21.3400 N.3   205  ASP205     -0.1239
    166  CA         9.8630  -54.4970  -20.8730 C.3   205  ASP205      0.1674
    167  C          9.2370  -54.7340  -19.5020 C.2   205  ASP205      0.2266
    168  O          8.0760  -54.3970  -19.2760 O.2   205  ASP205     -0.2867
    169  CB        11.3900  -54.6340  -20.7890 C.3   205  ASP205      0.1410
    170  CG        11.8990  -55.9400  -21.3890 C.2   205  ASP205      0.3668
    171  OD1       11.4980  -57.0190  -20.9030 O.co2 205  ASP205     -0.2456
    172  OD2       12.7030  -55.8860  -22.3490 O.co2 205  ASP205     -0.2456
    173  N         -7.7250  -53.9570   -4.3400 N.3   255  MET255     -0.1245
    174  CA        -6.7750  -53.8570   -5.4290 C.3   255  MET255      0.1570
    175  C         -5.4460  -54.5010   -5.0520 C.2   255  MET255      0.2261
    176  O         -4.7780  -55.0930   -5.8940 O.2   255  MET255     -0.2867
    177  CB        -6.5630  -52.3900   -5.8180 C.3   255  MET255      0.0387
    178  CG        -7.7990  -51.7230   -6.4340 C.3   255  MET255      0.0595
    179  SD        -8.4840  -52.6570   -7.8340 S.3   255  MET255     -0.1393
    180  CE        -7.1910  -52.4420   -9.0690 C.3   255  MET255      0.0692
    181  N         -5.8860  -58.2870   -5.6040 N.3   258  ILE258     -0.1245
    182  CA        -6.5040  -58.7370   -6.8480 C.3   258  ILE258      0.1561
    183  C         -5.6070  -59.7800   -7.5260 C.2   258  ILE258      0.2260
    184  O         -5.8880  -60.2390   -8.6320 O.2   258  ILE258     -0.2867
    185  CB        -6.7730  -57.5280   -7.7970 C.3   258  ILE258      0.0252
    186  CG1       -7.9580  -57.8280   -8.7280 C.3   258  ILE258      0.0019
    187  CG2       -5.5090  -57.1770   -8.5770 C.3   258  ILE258      0.0019
    188  CD1       -7.6290  -58.6300   -9.9700 C.3   258  ILE258      0.0001
@<TRIPOS>BOND
     1    63    62    2
     2    71    70    2
     3    70    69    1
     4    62    61    1
     5    68    69    1
     6    69    72    1
     7    64    61    1
     8    64    65    1
     9    61    60    1
    10    67    65   ar
    11    72    73    1
    12    65    66   ar
    13    60    56   am
    14    57    56    2
    15    56    55    1
    16    74    73   ar
    17    91    90    2
    18    73    75   ar
    19    54    55    1
    20    90    89    1
    21    55    58    1
    22    46    45    2
    23    92    89    1
    24    92    93    1
    25    94    93    1
    26    45    44    1
    27    89    88    1
    28   172   170   ar
    29    93    95    1
    30    58    59    1
    31    51    49   ar
    32    51    53   ar
    33   170   171   ar
    34   170   169    1
    35   165   166    1
    36    38    37    2
    37    49    48   ar
    38    53    52   ar
    39    35    36    1
    40    44    43    1
    41    44    47    1
    42    79    78    2
    43    78    77    1
    44    37    43   am
    45    37    36    1
    46    48    47    1
    47    48    50   ar
    48   166   169    1
    49   166   167    1
    50    52    50   ar
    51    85    83   ar
    52    85    86   ar
    53    36    39    1
    54    83    81   ar
    55    87    86    1
    56    86    84   ar
    57    81    80    1
    58    81    82   ar
    59    77    76    1
    60    77    80    1
    61   167   168    2
    62    30    29    2
    63    39    40    1
    64    84    82   ar
    65    42    40    1
    66    29    28    1
    67     1     2    1
    68    40    41    1
    69     6     5    1
    70     6     7    1
    71    14    11    1
    72    27    28    1
    73     5     2    1
    74     9     7   ar
    75   112   109    1
    76   112   113    1
    77    10    11    1
    78    10     3   am
    79    28    31    1
    80     2     3    1
    81     7     8   ar
    82    11    12    1
    83   111   110    2
    84   109   110    1
    85   109   108    1
    86     3     4    2
    87   104   102   ar
    88   104   106   ar
    89    31    32    1
    90   110   114   am
    91   102   101   ar
    92    12    13    2
    93   156   154    1
    94   107   106    1
    95   126   123    1
    96   106   105   ar
    97   155   154    1
    98   154   153    2
    99   163   162    2
   100    32    34    1
   101    32    33    1
   102   114   115    1
   103   164   162   am
   104   101   100    1
   105   101   103   ar
   106   123   122    1
   107   123   124    1
   108    97   100    1
   109    97    96    1
   110    97    98    1
   111   122   116   am
   112   162   161    1
   113   115   116    1
   114   115   118    1
   115   116   117    2
   116    99    98    2
   117   153   152    1
   118   105   103   ar
   119   125   124    2
   120   124   127   am
   121   160   159    2
   122   152   151    1
   123   121   119    1
   124   161   158    1
   125    15    16    1
   126   139   140    1
   127   118   119    1
   128   118   120    1
   129   159   158    1
   130   145   143    1
   131   127   128    1
   132   140   143    1
   133   140   141    1
   134   158   157    1
   135    16    17    1
   136   151   150    1
   137   143   144    1
   138    17    18    2
   139   149   148    2
   140   150   147    1
   141   141   142    2
   142   128   129    1
   143   128   131    1
   144   147   148    1
   145   147   146    1
   146   129   130    2
   147   133   135   ar
   148   133   132   ar
   149   135   137   ar
   150   131   132    1
   151   188   186    1
   152   132   134   ar
   153   137   138    1
   154   137   136   ar
   155   180   179    1
   156    26    24    1
   157   186   185    1
   158   134   136   ar
   159   184   183    2
   160   187   185    1
   161    24    23    1
   162    23    25    1
   163    23    20    1
   164   179   178    1
   165   185   182    1
   166    19    20    1
   167   183   182    1
   168    20    21    1
   169   182   181    1
   170   178   177    1
   171    21    22    2
   172   176   175    2
   173   177   174    1
   174   174   175    1
   175   174   173    1
