@<TRIPOS>MOLECULE
tmp/4xlzB03.pdb
 83 80 0 0 0
SMALL
GASTEIGER

@<TRIPOS>ATOM
      1  N         20.7550    6.1970   -3.6950 N.3   155  ILE155     -0.1231
      2  CA        21.8110    5.5850   -2.9570 C.3   155  ILE155      0.1692
      3  C         21.4730    4.0740   -2.8930 C.2   155  ILE155      0.2591
      4  O         22.4640    3.2780   -3.1810 O.2   155  ILE155     -0.2718
      5  CB        21.8630    6.1820   -1.5980 C.3   155  ILE155      0.0266
      6  CG1       22.3890    7.6260   -1.6920 C.3   155  ILE155      0.0019
      7  CG2       22.9030    5.3730   -0.7400 C.3   155  ILE155      0.0020
      8  CD1       22.1980    8.3800   -0.2800 C.3   155  ILE155      0.0001
      9  N         20.3130    3.6940   -2.5550 N.am  156  GLU156     -0.1979
     10  CA        20.0030    2.2950   -2.4580 C.3   156  GLU156      0.1602
     11  C         20.1950    1.6360   -3.8170 C.2   156  GLU156      0.2287
     12  O         20.6320    0.4570   -3.8690 O.2   156  GLU156     -0.2864
     13  CB        18.5340    2.2070   -2.0280 C.3   156  GLU156      0.0415
     14  CG        18.3710    2.7510   -0.6160 C.3   156  GLU156      0.1163
     15  CD        16.9030    3.2100   -0.2870 C.2   156  GLU156      0.3649
     16  OE1       16.0050    2.9370   -1.1010 O.co2 156  GLU156     -0.2457
     17  OE2       16.7170    3.8700    0.7670 O.co2 156  GLU156     -0.2457
     18  N         22.0460    2.4280   -6.3880 N.3   158  VAL158     -0.1231
     19  CA        23.4660    2.2120   -6.7500 C.3   158  VAL158      0.1692
     20  C         23.9870    0.9410   -6.0300 C.2   158  VAL158      0.2592
     21  O         24.6860    0.0970   -6.6920 O.2   158  VAL158     -0.2718
     22  CB        24.2810    3.4590   -6.3640 C.3   158  VAL158      0.0266
     23  CG1       25.7800    3.1240   -6.4340 C.3   158  VAL158      0.0020
     24  CG2       23.8870    4.6040   -7.3710 C.3   158  VAL158      0.0020
     25  N         23.6960    0.7540   -4.7310 N.am  159  ALA159     -0.1966
     26  CA        24.2000   -0.4200   -4.0680 C.3   159  ALA159      0.1728
     27  C         23.5760   -1.6340   -4.6370 C.2   159  ALA159      0.2616
     28  O         24.2210   -2.7050   -4.8800 O.2   159  ALA159     -0.2715
     29  CB        23.8400   -0.3370   -2.5660 C.3   159  ALA159      0.0334
     30  N         22.2570   -1.6200   -4.9400 N.am  160  PHE160     -0.1974
     31  CA        21.5770   -2.8980   -5.2610 C.3   160  PHE160      0.1639
     32  C         21.7900   -3.2920   -6.7230 C.2   160  PHE160      0.2290
     33  O         21.5730   -4.4770   -7.0830 O.2   160  PHE160     -0.2864
     34  CB        20.0460   -2.7870   -4.9770 C.3   160  PHE160      0.0560
     35  CG        19.7310   -2.5760   -3.4980 C.ar  160  PHE160     -0.0200
     36  CD1       20.6210   -2.7870   -2.4870 C.ar  160  PHE160     -0.0042
     37  CD2       18.4400   -2.0960   -3.2590 C.ar  160  PHE160     -0.0042
     38  CE1       20.2690   -2.5620   -1.2190 C.ar  160  PHE160     -0.0003
     39  CE2       18.0750   -1.8750   -1.9340 C.ar  160  PHE160     -0.0003
     40  CZ        18.9460   -2.0480   -0.9460 C.ar  160  PHE160     -0.0000
     41  N         24.4630   -3.8820   -7.9810 N.3   162  GLN162     -0.1245
     42  CA        25.5610   -4.9050   -8.0410 C.3   162  GLN162      0.1566
     43  C         25.0900   -6.2480   -7.6210 C.2   162  GLN162      0.2260
     44  O         25.9240   -7.2170   -7.6690 O.2   162  GLN162     -0.2867
     45  CB        26.7570   -4.4280   -7.3450 C.3   162  GLN162      0.0367
     46  CG        26.7920   -4.5240   -6.0350 C.3   162  GLN162      0.0905
     47  CD        28.0470   -3.7270   -5.3670 C.2   162  GLN162      0.2608
     48  OE1       28.0390   -3.4790   -4.1550 O.2   162  GLN162     -0.2717
     49  NE2       29.0780   -3.4140   -6.1450 N.am  162  GLN162     -0.0878
     50  N         29.4430    7.8610   -5.8420 N.3   183  ILE183     -0.1245
     51  CA        28.1980    8.6880   -5.7390 C.3   183  ILE183      0.1561
     52  C         28.6530   10.1010   -5.2900 C.2   183  ILE183      0.2260
     53  O         29.5600   10.2660   -4.4470 O.2   183  ILE183     -0.2867
     54  CB        27.3220    8.0880   -4.5990 C.3   183  ILE183      0.0252
     55  CG1       26.7520    6.7860   -5.1350 C.3   183  ILE183      0.0019
     56  CG2       26.2020    9.0940   -4.2420 C.3   183  ILE183      0.0019
     57  CD1       26.0800    6.0680   -3.9360 C.3   183  ILE183      0.0001
     58  N         31.9880    4.0590   -0.1380 N.3   248  GLY248     -0.1285
     59  CA        30.6900    3.2820   -0.1240 C.3   248  GLY248      0.1447
     60  C         30.4700    2.7270    1.2570 C.3   248  GLY248      0.2025
     61  O         29.2720    2.6830    1.7410 O.3   248  GLY248     -0.2188
     62  N         28.2180    4.6170    4.0090 N.3   251  TYR251     -0.1227
     63  CA        26.7330    4.7140    3.8830 C.3   251  TYR251      0.1736
     64  C         26.0940    3.6540    4.7170 C.2   251  TYR251      0.2595
     65  O         24.8500    3.4720    4.5700 O.2   251  TYR251     -0.2718
     66  CB        26.3740    4.5560    2.4050 C.3   251  TYR251      0.0548
     67  CG        26.6760    5.7620    1.5680 C.ar  251  TYR251     -0.0200
     68  CD1       25.7150    6.7230    1.3610 C.ar  251  TYR251     -0.0009
     69  CD2       27.9720    5.8180    0.8990 C.ar  251  TYR251     -0.0009
     70  CE1       26.0130    7.8240    0.5310 C.ar  251  TYR251      0.0417
     71  CE2       28.2700    6.9210    0.0760 C.ar  251  TYR251      0.0417
     72  CZ        27.2860    7.8630   -0.0890 C.ar  251  TYR251      0.1957
     73  OH        27.5640    8.9590   -1.0040 O.3   251  TYR251     -0.2866
     74  N         26.8020    2.9500    5.5870 N.am  252  HIS252     -0.1975
     75  CA        26.1170    1.8350    6.3190 C.3   252  HIS252      0.1656
     76  C         26.8870    1.5020    7.5900 C.2   252  HIS252      0.2291
     77  O         28.1530    1.3780    7.5340 O.2   252  HIS252     -0.2864
     78  CB        26.1100    0.6480    5.3870 C.3   252  HIS252      0.0771
     79  CG        25.3820   -0.5600    5.8810 C.ar  252  HIS252      0.0820
     80  ND1       24.0620   -0.4950    6.3800 N.ar  252  HIS252     -0.2267
     81  CD2       25.7500   -1.8760    5.9560 C.ar  252  HIS252      0.1154
     82  CE1       23.6470   -1.7350    6.6490 C.ar  252  HIS252      0.1986
     83  NE2       24.6370   -2.5820    6.4160 N.ar  252  HIS252     -0.2212
@<TRIPOS>BOND
     1    42    41    1
     2    42    43    1
     3    42    45    1
     4    44    43    2
     5    24    22    1
     6    45    46    1
     7    33    32    2
     8    19    18    1
     9    19    22    1
    10    19    20    1
    11    32    31    1
    12    21    20    2
    13    23    22    1
    14    49    47   am
    15    46    47    1
    16    20    25   am
    17    50    51    1
    18    51    52    1
    19    51    54    1
    20    47    48    2
    21    52    53    2
    22    31    34    1
    23    31    30    1
    24    55    54    1
    25    55    57    1
    26    34    35    1
    27    30    27   am
    28    28    27    2
    29    25    26    1
    30    27    26    1
    31    54    56    1
    32    26    29    1
    33    12    11    2
    34    11    10    1
    35     1     2    1
    36    35    37   ar
    37    35    36   ar
    38    37    39   ar
    39     4     3    2
    40     2     3    1
    41     2     5    1
    42     3     9   am
    43     9    10    1
    44    36    38   ar
    45    10    13    1
    46    13    14    1
    47    39    40   ar
    48     6     5    1
    49     6     8    1
    50     5     7    1
    51    38    40   ar
    52    16    15   ar
    53    73    72    1
    54    14    15    1
    55    15    17   ar
    56    58    59    1
    57    59    60    1
    58    72    71   ar
    59    72    70   ar
    60    71    69   ar
    61    70    68   ar
    62    69    67   ar
    63    60    61    1
    64    68    67   ar
    65    67    66    1
    66    66    63    1
    67    63    62    1
    68    63    64    1
    69    65    64    2
    70    64    74   am
    71    78    79    1
    72    78    75    1
    73    74    75    1
    74    79    81   ar
    75    79    80   ar
    76    81    83   ar
    77    75    76    1
    78    80    82   ar
    79    83    82   ar
    80    77    76    2
