@<TRIPOS>MOLECULE
tmp/4xlzB05.pdb
 84 78 0 0 0
SMALL
GASTEIGER

@<TRIPOS>ATOM
      1  N         36.1110   13.4180   -9.5420 N.3    27  PHE27      -0.1227
      2  CA        35.4310   13.2070  -10.8540 C.3    27  PHE27       0.1736
      3  C         36.3610   13.0590  -12.0600 C.2    27  PHE27       0.2595
      4  O         35.9030   12.8390  -13.1660 O.2    27  PHE27      -0.2718
      5  CB        34.4040   14.2930  -11.1740 C.3    27  PHE27       0.0547
      6  CG        33.5410   14.7230  -10.0130 C.ar   27  PHE27      -0.0202
      7  CD1       33.1040   13.7930   -9.0420 C.ar   27  PHE27      -0.0042
      8  CD2       33.0540   16.0400   -9.9550 C.ar   27  PHE27      -0.0042
      9  CE1       32.2570   14.2620   -7.9990 C.ar   27  PHE27      -0.0003
     10  CE2       32.1900   16.4670   -8.9670 C.ar   27  PHE27      -0.0003
     11  CZ        31.7940   15.5770   -7.9660 C.ar   27  PHE27      -0.0000
     12  N         37.6720   13.0490  -11.7500 N.am   28  GLU28      -0.1979
     13  CA        38.7490   13.0670  -12.7720 C.3    28  GLU28       0.1602
     14  C         38.6360   11.8890  -13.7390 C.2    28  GLU28       0.2287
     15  O         38.8650   12.0530  -14.8970 O.2    28  GLU28      -0.2864
     16  CB        40.0880   12.9180  -12.0410 C.3    28  GLU28       0.0415
     17  CG        41.2850   13.0610  -12.9110 C.3    28  GLU28       0.1163
     18  CD        42.4670   13.3330  -12.0250 C.2    28  GLU28       0.3649
     19  OE1       42.8850   12.3840  -11.2750 O.co2  28  GLU28      -0.2457
     20  OE2       42.8790   14.5220  -12.0220 O.co2  28  GLU28      -0.2457
     21  N         36.0290   10.0670  -14.7130 N.3    30  ALA30      -0.1245
     22  CA        34.6740    9.7540  -15.1390 C.3    30  ALA30       0.1562
     23  C         34.5690    9.8640  -16.6420 C.2    30  ALA30       0.2260
     24  O         35.0640   10.8490  -17.2580 O.2    30  ALA30      -0.2867
     25  CB        33.7150   10.7700  -14.4850 C.3    30  ALA30       0.0290
     26  N         28.6490   22.3650  -12.7950 N.3    49  THR49      -0.1218
     27  CA        29.4680   21.1760  -12.8480 C.3    49  THR49       0.1862
     28  C         29.1050   20.2570  -14.0420 C.2    49  THR49       0.2287
     29  O         29.9490   19.6780  -14.6410 O.2    49  THR49      -0.2866
     30  CB        29.3680   20.3760  -11.4860 C.3    49  THR49       0.1770
     31  OG1       29.8020   21.2020  -10.4380 O.3    49  THR49      -0.2211
     32  CG2       30.1360   19.0890  -11.4480 C.3    49  THR49       0.0375
     33  N         30.9170   21.7570  -16.8720 N.3    52  LYS52      -0.1231
     34  CA        32.3620   21.3960  -16.8090 C.3    52  LYS52       0.1693
     35  C         32.6260   20.0270  -17.2100 C.2    52  LYS52       0.2591
     36  O         33.5400   19.6530  -17.9990 O.2    52  LYS52      -0.2718
     37  CB        32.9280   21.6610  -15.4330 C.3    52  LYS52       0.0285
     38  CG        33.0900   23.1640  -15.0610 C.3    52  LYS52       0.0035
     39  CD        33.8970   23.1630  -13.6910 C.3    52  LYS52       0.0206
     40  CE        34.9250   24.3480  -13.4340 C.3    52  LYS52       0.1093
     41  NZ        34.5780   25.5970  -14.1940 N.3    52  LYS52      -0.1314
     42  N         31.7320   19.1250  -16.7070 N.am   53  LEU53      -0.1980
     43  CA        31.9280   17.7350  -17.0910 C.3    53  LEU53       0.1596
     44  C         31.7270   17.5320  -18.5980 C.2    53  LEU53       0.2287
     45  O         32.5490   16.8330  -19.1970 O.2    53  LEU53      -0.2864
     46  CB        30.8910   16.7770  -16.3300 C.3    53  LEU53       0.0297
     47  CG        31.2330   16.6500  -14.8380 C.3    53  LEU53       0.0022
     48  CD1       29.8830   16.1020  -14.1710 C.3    53  LEU53       0.0001
     49  CD2       32.3280   15.6660  -14.5420 C.3    53  LEU53       0.0001
     50  N         34.6850   18.6570  -20.6630 N.3    56  GLU56      -0.1245
     51  CA        35.7580   17.6290  -20.6510 C.3    56  GLU56       0.1567
     52  C         35.4830   16.3540  -21.4180 C.2    56  GLU56       0.2260
     53  O         36.3280   15.4820  -21.3820 O.2    56  GLU56      -0.2867
     54  CB        36.1650   17.2700  -19.2440 C.3    56  GLU56       0.0388
     55  CG        36.7490   18.4530  -18.5230 C.3    56  GLU56       0.1160
     56  CD        37.9680   19.0300  -19.3210 C.2    56  GLU56       0.3649
     57  OE1       38.9660   18.2840  -19.4620 O.co2  56  GLU56      -0.2457
     58  OE2       37.8850   20.1900  -19.8240 O.co2  56  GLU56      -0.2457
     59  N         33.0460   14.2080  -20.8040 N.3    58  VAL58      -0.1245
     60  CA        32.1210   13.2580  -19.9780 C.3    58  VAL58       0.1561
     61  C         30.7350   13.2080  -20.6040 C.2    58  VAL58       0.2260
     62  O         30.1310   14.2670  -20.8800 O.2    58  VAL58      -0.2867
     63  CB        32.1670   13.6920  -18.5220 C.3    58  VAL58       0.0252
     64  CG1       31.4070   12.6140  -17.6380 C.3    58  VAL58       0.0019
     65  CG2       33.5410   13.7080  -17.9480 C.3    58  VAL58       0.0019
     66  N         33.4310   18.3640   -1.1310 N.3   193  TYR193     -0.1241
     67  CA        34.1490   18.6760   -2.3780 C.3   193  TYR193      0.1605
     68  C         33.3970   19.8370   -3.0110 C.2   193  TYR193      0.2264
     69  O         32.1420   19.7530   -3.2400 O.2   193  TYR193     -0.2867
     70  CB        34.1910   17.4670   -3.2770 C.3   193  TYR193      0.0534
     71  CG        34.8640   17.7370   -4.6310 C.ar  193  TYR193     -0.0201
     72  CD1       36.2400   18.1120   -4.6390 C.ar  193  TYR193     -0.0009
     73  CD2       34.1300   17.7020   -5.8420 C.ar  193  TYR193     -0.0009
     74  CE1       36.8320   18.4420   -5.8870 C.ar  193  TYR193      0.0417
     75  CE2       34.7290   18.0330   -7.1080 C.ar  193  TYR193      0.0417
     76  CZ        36.0820   18.3830   -7.0460 C.ar  193  TYR193      0.1957
     77  OH        36.7020   18.6570   -8.2590 O.3   193  TYR193     -0.2866
     78  N         33.1830   22.5370   -6.3700 N.3   195  VAL195     -0.1245
     79  CA        33.6040   22.8790   -7.7290 C.3   195  VAL195      0.1561
     80  C         33.4350   24.3890   -7.9170 C.2   195  VAL195      0.2260
     81  O         32.3690   24.9610   -7.6520 O.2   195  VAL195     -0.2867
     82  CB        32.7660   22.1530   -8.7710 C.3   195  VAL195      0.0252
     83  CG1       33.1310   22.5790  -10.2320 C.3   195  VAL195      0.0019
     84  CG2       32.9320   20.6100   -8.5940 C.3   195  VAL195      0.0019
@<TRIPOS>BOND
     1    52    53    2
     2    52    51    1
     3    62    61    2
     4    59    60    1
     5    50    51    1
     6    51    54    1
     7    61    60    1
     8    60    63    1
     9    58    56   ar
    10    57    56   ar
    11    56    55    1
    12    54    55    1
    13    45    44    2
    14    44    43    1
    15    63    65    1
    16    63    64    1
    17    36    35    2
    18    24    23    2
    19    35    34    1
    20    35    42   am
    21    43    42    1
    22    43    46    1
    23    33    34    1
    24    34    37    1
    25    23    22    1
    26    46    47    1
    27    37    38    1
    28    22    21    1
    29    22    25    1
    30    38    39    1
    31    15    14    2
    32    47    49    1
    33    47    48    1
    34    29    28    2
    35    41    40    1
    36    28    27    1
    37    14    13    1
    38    39    40    1
    39     4     3    2
    40    17    16    1
    41    17    18    1
    42    27    26    1
    43    27    30    1
    44    13    16    1
    45    13    12    1
    46     3    12   am
    47     3     2    1
    48    18    20   ar
    49    18    19   ar
    50    30    32    1
    51    30    31    1
    52     5     2    1
    53     5     6    1
    54     2     1    1
    55    83    82    1
    56     6     8   ar
    57     6     7   ar
    58     8    10   ar
    59     7     9   ar
    60    10    11   ar
    61    82    84    1
    62    82    79    1
    63    77    76    1
    64     9    11   ar
    65    80    79    1
    66    80    81    2
    67    79    78    1
    68    75    76   ar
    69    75    73   ar
    70    76    74   ar
    71    74    72   ar
    72    73    71   ar
    73    72    71   ar
    74    71    70    1
    75    70    67    1
    76    69    68    2
    77    68    67    1
    78    67    66    1
