@<TRIPOS>MOLECULE
tmp/4xlzB01.pdb
 89 86 0 0 0
SMALL
GASTEIGER

@<TRIPOS>ATOM
      1  N         22.0460    2.4280   -6.3880 N.3   158  VAL158     -0.1231
      2  CA        23.4660    2.2120   -6.7500 C.3   158  VAL158      0.1692
      3  C         23.9870    0.9410   -6.0300 C.2   158  VAL158      0.2591
      4  O         24.6860    0.0970   -6.6920 O.2   158  VAL158     -0.2718
      5  CB        24.2810    3.4590   -6.3640 C.3   158  VAL158      0.0266
      6  CG1       25.7800    3.1240   -6.4340 C.3   158  VAL158      0.0020
      7  CG2       23.8870    4.6040   -7.3710 C.3   158  VAL158      0.0020
      8  N         23.6960    0.7540   -4.7310 N.am  159  ALA159     -0.1980
      9  CA        24.2000   -0.4200   -4.0680 C.3   159  ALA159      0.1597
     10  C         23.5760   -1.6340   -4.6370 C.2   159  ALA159      0.2287
     11  O         24.2210   -2.7050   -4.8800 O.2   159  ALA159     -0.2864
     12  CB        23.8400   -0.3370   -2.5660 C.3   159  ALA159      0.0319
     13  N         24.4630   -3.8820   -7.9810 N.3   162  GLN162     -0.1245
     14  CA        25.5610   -4.9050   -8.0410 C.3   162  GLN162      0.1566
     15  C         25.0900   -6.2480   -7.6210 C.2   162  GLN162      0.2260
     16  O         25.9240   -7.2170   -7.6690 O.2   162  GLN162     -0.2867
     17  CB        26.7570   -4.4280   -7.3450 C.3   162  GLN162      0.0367
     18  CG        26.7920   -4.5240   -6.0350 C.3   162  GLN162      0.0905
     19  CD        28.0470   -3.7270   -5.3670 C.2   162  GLN162      0.2608
     20  OE1       28.0390   -3.4790   -4.1550 O.2   162  GLN162     -0.2717
     21  NE2       29.0780   -3.4140   -6.1450 N.am  162  GLN162     -0.0878
     22  N         28.7450   -2.0710  -10.9590 N.3   179  SER179     -0.1202
     23  CA        29.2870   -1.4270   -9.7840 C.3   179  SER179      0.2020
     24  C         29.7270    0.0150  -10.1710 C.2   179  SER179      0.2619
     25  O         30.7250    0.2530  -10.9040 O.2   179  SER179     -0.2717
     26  CB        30.5550   -2.1420   -9.2630 C.3   179  SER179      0.2103
     27  OG        30.1090   -3.4190   -8.7960 O.3   179  SER179     -0.2182
     28  N         28.9390    1.0010   -9.7270 N.am  180  VAL180     -0.1965
     29  CA        29.3340    2.3910   -9.9270 C.3   180  VAL180      0.1727
     30  C         30.5350    2.7150   -9.0990 C.2   180  VAL180      0.2617
     31  O         30.8020    2.1870   -8.0130 O.2   180  VAL180     -0.2715
     32  CB        28.0570    3.2510   -9.4700 C.3   180  VAL180      0.0290
     33  CG1       28.4340    4.7680   -9.3130 C.3   180  VAL180      0.0023
     34  CG2       26.8560    3.0250  -10.3680 C.3   180  VAL180      0.0023
     35  N         31.3640    3.6280   -9.6510 N.am  181  SER181     -0.1936
     36  CA        32.5920    3.9710   -8.9000 C.3   181  SER181      0.2055
     37  C         32.4420    5.0800   -7.8580 C.2   181  SER181      0.2643
     38  O         33.1340    5.0290   -6.8320 O.2   181  SER181     -0.2714
     39  CB        33.7050    4.4790   -9.8390 C.3   181  SER181      0.2130
     40  OG        33.9950    3.4100  -10.7550 O.3   181  SER181     -0.2179
     41  N         31.5390    6.0640   -8.0800 N.am  182  PHE182     -0.1959
     42  CA        31.3410    7.0120   -6.9300 C.3   182  PHE182      0.1771
     43  C         29.8950    7.4920   -7.0370 C.2   182  PHE182      0.2619
     44  O         29.2640    7.5710   -8.1420 O.2   182  PHE182     -0.2715
     45  CB        32.2920    8.3010   -7.0400 C.3   182  PHE182      0.0574
     46  CG        32.0600    9.1390   -8.2820 C.ar  182  PHE182     -0.0200
     47  CD1       32.7670    8.8960   -9.4810 C.ar  182  PHE182     -0.0042
     48  CD2       31.1460   10.2570   -8.2330 C.ar  182  PHE182     -0.0042
     49  CE1       32.5350    9.7380  -10.6070 C.ar  182  PHE182     -0.0003
     50  CE2       30.8820   11.0660   -9.3720 C.ar  182  PHE182     -0.0003
     51  CZ        31.6400   10.8330  -10.5530 C.ar  182  PHE182     -0.0000
     52  N         29.4430    7.8610   -5.8420 N.am  183  ILE183     -0.1977
     53  CA        28.1980    8.6880   -5.7390 C.3   183  ILE183      0.1596
     54  C         28.6530   10.1010   -5.2900 C.2   183  ILE183      0.2287
     55  O         29.5600   10.2660   -4.4470 O.2   183  ILE183     -0.2864
     56  CB        27.3220    8.0880   -4.5990 C.3   183  ILE183      0.0276
     57  CG1       26.7520    6.7860   -5.1350 C.3   183  ILE183      0.0022
     58  CG2       26.2020    9.0940   -4.2420 C.3   183  ILE183      0.0022
     59  CD1       26.0800    6.0680   -3.9360 C.3   183  ILE183      0.0001
     60  N         30.8340   13.4920   -0.9190 N.3   246  VAL246     -0.1245
     61  CA        31.3180   12.1890   -1.3920 C.3   246  VAL246      0.1561
     62  C         31.8580   11.4380   -0.2130 C.2   246  VAL246      0.2260
     63  O         32.5670   12.0110    0.6340 O.2   246  VAL246     -0.2867
     64  CB        32.4690   12.4000   -2.4760 C.3   246  VAL246      0.0252
     65  CG1       32.9530   11.0290   -3.0170 C.3   246  VAL246      0.0019
     66  CG2       31.9510   13.2600   -3.6560 C.3   246  VAL246      0.0019
     67  N         33.3030    7.1640    1.0080 N.3   247  PRO247     -0.2102
     68  CA        33.5360    5.7540    0.6530 C.3   247  PRO247      0.1504
     69  C         32.1750    5.0220    0.7160 C.2   247  PRO247      0.2573
     70  O         31.3580    5.3670    1.6080 O.2   247  PRO247     -0.2718
     71  CB        34.3920    5.2000    1.8360 C.3   247  PRO247      0.0282
     72  CG        35.1020    6.3910    2.3670 C.3   247  PRO247      0.0208
     73  CD        34.0310    7.5460    2.2330 C.3   247  PRO247      0.0893
     74  N         31.9880    4.0590   -0.1380 N.am  248  GLY248     -0.2015
     75  CA        30.6900    3.2820   -0.1240 C.3   248  GLY248      0.1506
     76  C         30.4700    2.7270    1.2570 C.3   248  GLY248      0.2054
     77  O         29.2720    2.6830    1.7410 O.3   248  GLY248     -0.2184
     78  N         28.2180    4.6170    4.0090 N.3   251  TYR251     -0.1241
     79  CA        26.7330    4.7140    3.8830 C.3   251  TYR251      0.1605
     80  C         26.0940    3.6540    4.7170 C.2   251  TYR251      0.2264
     81  O         24.8500    3.4720    4.5700 O.2   251  TYR251     -0.2867
     82  CB        26.3740    4.5560    2.4050 C.3   251  TYR251      0.0534
     83  CG        26.6760    5.7620    1.5680 C.ar  251  TYR251     -0.0201
     84  CD1       25.7150    6.7230    1.3610 C.ar  251  TYR251     -0.0009
     85  CD2       27.9720    5.8180    0.8990 C.ar  251  TYR251     -0.0009
     86  CE1       26.0130    7.8240    0.5310 C.ar  251  TYR251      0.0417
     87  CE2       28.2700    6.9210    0.0760 C.ar  251  TYR251      0.0417
     88  CZ        27.2860    7.8630   -0.0890 C.ar  251  TYR251      0.1957
     89  OH        27.5640    8.9590   -1.0040 O.3   251  TYR251     -0.2866
@<TRIPOS>BOND
     1    22    23    1
     2    25    24    2
     3    40    39    1
     4    49    51   ar
     5    49    47   ar
     6    51    50   ar
     7    34    32    1
     8    24    23    1
     9    24    28   am
    10    29    28    1
    11    29    32    1
    12    29    30    1
    13    39    36    1
    14    23    26    1
    15    35    30   am
    16    35    36    1
    17    47    46   ar
    18    32    33    1
    19    50    48   ar
    20    26    27    1
    21    30    31    2
    22    36    37    1
    23    46    48   ar
    24    46    45    1
    25    44    43    2
    26    41    37   am
    27    41    42    1
    28    14    13    1
    29    14    15    1
    30    14    17    1
    31    37    38    2
    32    16    15    2
    33     7     5    1
    34    17    18    1
    35    45    42    1
    36    43    42    1
    37    43    52   am
    38     2     1    1
    39     2     5    1
    40     2     3    1
    41     4     3    2
    42     6     5    1
    43    21    19   am
    44    18    19    1
    45     3     8   am
    46    52    53    1
    47    53    54    1
    48    53    56    1
    49    19    20    2
    50    54    55    2
    51    57    56    1
    52    57    59    1
    53    11    10    2
    54     8     9    1
    55    10     9    1
    56    56    58    1
    57     9    12    1
    58    66    64    1
    59    65    64    1
    60    64    61    1
    61    61    60    1
    62    61    62    1
    63    89    88    1
    64    62    63    2
    65    74    75    1
    66    74    69   am
    67    75    76    1
    68    88    87   ar
    69    88    86   ar
    70    87    85   ar
    71    86    84   ar
    72    68    69    1
    73    68    67    1
    74    68    71    1
    75    69    70    2
    76    85    83   ar
    77    67    73    1
    78    76    77    1
    79    84    83   ar
    80    83    82    1
    81    71    72    1
    82    73    72    1
    83    82    79    1
    84    79    78    1
    85    79    80    1
    86    81    80    2
