@<TRIPOS>MOLECULE
tmp/4xlzB06.pdb
 111 109 0 0 0
SMALL
GASTEIGER

@<TRIPOS>ATOM
      1  N         12.7380   16.5940  -10.0170 N.3    39  HIS39      -0.1241
      2  CA        11.8250   17.2700  -10.9410 C.3    39  HIS39       0.1621
      3  C         12.6530   17.8940  -12.0920 C.2    39  HIS39       0.2264
      4  O         13.8620   18.0790  -11.9420 O.2    39  HIS39      -0.2867
      5  CB        11.1970   18.5000  -10.1910 C.3    39  HIS39       0.0745
      6  CG        10.4970   18.1170   -8.9340 C.ar   39  HIS39       0.0817
      7  ND1       10.9180   18.5540   -7.6920 N.ar   39  HIS39      -0.2268
      8  CD2        9.3660   17.3520   -8.7450 C.ar   39  HIS39       0.1154
      9  CE1       10.1200   17.9850   -6.7550 C.ar   39  HIS39       0.1986
     10  NE2        9.1490   17.2930   -7.3670 N.ar   39  HIS39      -0.2212
     11  N         14.4800   20.4930  -13.8150 N.3    41  ASP41      -0.1225
     12  CA        15.2070   21.6870  -13.4110 C.3    41  ASP41       0.1805
     13  C         16.0990   21.4480  -12.2140 C.2    41  ASP41       0.2597
     14  O         17.0260   22.2180  -11.9590 O.2    41  ASP41      -0.2718
     15  CB        14.4520   22.9640  -13.2120 C.3    41  ASP41       0.1424
     16  CG        13.5970   23.0700  -11.9460 C.2    41  ASP41       0.3668
     17  OD1       13.8980   22.3930  -10.9340 O.co2  41  ASP41      -0.2456
     18  OD2       12.5910   23.9350  -11.8650 O.co2  41  ASP41      -0.2456
     19  N         16.0150   20.2670  -11.5030 N.am   42  ASP42      -0.1974
     20  CA        16.8940   20.1480  -10.3470 C.3    42  ASP42       0.1709
     21  C         18.3170   19.9050  -10.6430 C.2    42  ASP42       0.2293
     22  O         19.2150   20.3540   -9.9100 O.2    42  ASP42      -0.2864
     23  CB        16.3910   18.9710   -9.4020 C.3    42  ASP42       0.1436
     24  CG        15.1290   19.3820   -8.5620 C.2    42  ASP42       0.3671
     25  OD1       15.1960   20.4280   -7.8520 O.co2  42  ASP42      -0.2456
     26  OD2       14.0910   18.7200   -8.6440 O.co2  42  ASP42      -0.2456
     27  N         19.6510   23.3980  -11.3480 N.3    45  ILE45      -0.1245
     28  CA        19.7550   24.2190  -10.1280 C.3    45  ILE45       0.1561
     29  C         20.8260   23.7040   -9.2140 C.2    45  ILE45       0.2260
     30  O         21.6640   24.4610   -8.6660 O.2    45  ILE45      -0.2867
     31  CB        18.4060   24.3150   -9.4050 C.3    45  ILE45       0.0252
     32  CG1       17.3370   25.0240  -10.2600 C.3    45  ILE45       0.0019
     33  CG2       18.5650   24.9260   -7.9950 C.3    45  ILE45       0.0019
     34  CD1       15.8890   24.8190   -9.7910 C.3    45  ILE45       0.0001
     35  N          7.1880   21.3050  -19.4530 N.3    84  ARG84      -0.1245
     36  CA         8.4440   21.1360  -18.7370 C.3    84  ARG84       0.1563
     37  C          9.4220   20.1650  -19.4020 C.2    84  ARG84       0.2260
     38  O         10.6530   20.2500  -19.2370 O.2    84  ARG84      -0.2867
     39  CB         8.1740   20.7190  -17.2940 C.3    84  ARG84       0.0307
     40  CG         7.3760   21.8610  -16.5990 C.3    84  ARG84       0.0489
     41  CD         7.1710   21.5820  -15.0690 C.3    84  ARG84       0.2205
     42  NE         8.4760   21.6560  -14.3910 N.pl3  84  ARG84      -0.0865
     43  CZ         8.5780   21.6020  -13.0490 C.cat  84  ARG84       0.5346
     44  NH1        7.4110   21.4490  -12.3220 N.pl3  84  ARG84       0.1354
     45  NH2        9.7710   21.6470  -12.4170 N.pl3  84  ARG84       0.1354
     46  N         10.2710   18.3770    0.9310 N.3   144  HIS144     -0.1241
     47  CA         9.5780   17.8130   -0.2450 C.3   144  HIS144      0.1621
     48  C          9.8450   16.2770   -0.2620 C.2   144  HIS144      0.2264
     49  O         11.0200   15.8700   -0.4290 O.2   144  HIS144     -0.2867
     50  CB        10.1710   18.4560   -1.5430 C.3   144  HIS144      0.0745
     51  CG         9.1910   18.3390   -2.6590 C.ar  144  HIS144      0.0817
     52  ND1        8.5440   17.1580   -2.9710 N.ar  144  HIS144     -0.2268
     53  CD2        8.6760   19.2820   -3.4690 C.ar  144  HIS144      0.1154
     54  CE1        7.6560   17.3880   -3.9500 C.ar  144  HIS144      0.1986
     55  NE2        7.7280   18.6970   -4.2900 N.ar  144  HIS144     -0.2212
     56  N         12.0070   14.9860   -3.0850 N.3   147  HIS147     -0.1241
     57  CA        13.4690   15.1410   -2.9900 C.3   147  HIS147      0.1621
     58  C         14.0880   14.1450   -2.0310 C.2   147  HIS147      0.2264
     59  O         15.1280   13.5110   -2.3020 O.2   147  HIS147     -0.2867
     60  CB        13.7690   16.5630   -2.4610 C.3   147  HIS147      0.0745
     61  CG        13.7770   17.5700   -3.5580 C.ar  147  HIS147      0.0817
     62  ND1       14.8440   18.4160   -3.7050 N.ar  147  HIS147     -0.2268
     63  CD2       12.9100   17.7720   -4.5850 C.ar  147  HIS147      0.1154
     64  CE1       14.5980   19.1960   -4.7730 C.ar  147  HIS147      0.1986
     65  NE2       13.4810   18.8070   -5.3490 N.ar  147  HIS147     -0.2212
     66  N         22.7500   19.4020   -3.4150 N.3   187  TYR187     -0.1241
     67  CA        21.7880   19.9620   -2.4790 C.3   187  TYR187      0.1605
     68  C         22.1410   19.5270   -1.0770 C.2   187  TYR187      0.2264
     69  O         21.2800   18.9930   -0.3110 O.2   187  TYR187     -0.2867
     70  CB        20.3100   19.5990   -2.7940 C.3   187  TYR187      0.0534
     71  CG        19.6910   20.1420   -4.0180 C.ar  187  TYR187     -0.0201
     72  CD1       19.8600   21.4910   -4.4180 C.ar  187  TYR187     -0.0009
     73  CD2       18.7180   19.4230   -4.7020 C.ar  187  TYR187     -0.0009
     74  CE1       19.1300   22.0340   -5.4600 C.ar  187  TYR187      0.0417
     75  CE2       17.9790   19.9420   -5.8110 C.ar  187  TYR187      0.0417
     76  CZ        18.1870   21.3030   -6.1470 C.ar  187  TYR187      0.1957
     77  OH        17.4210   21.8190   -7.0950 O.3   187  TYR187     -0.2866
     78  N          8.5450   27.7200  -14.4660 N.3   213  GLN213     -0.1231
     79  CA         8.8550   27.7590  -13.0360 C.3   213  GLN213      0.1698
     80  C          9.3510   29.1300  -12.6310 C.2   213  GLN213      0.2592
     81  O          9.2000   29.4610  -11.5030 O.2   213  GLN213     -0.2718
     82  CB         9.8390   26.6560  -12.6460 C.3   213  GLN213      0.0381
     83  CG         9.2860   25.1850  -13.0550 C.3   213  GLN213      0.0905
     84  CD         7.9340   24.9040  -12.5660 C.2   213  GLN213      0.2608
     85  OE1        7.7930   24.8960  -11.3360 O.2   213  GLN213     -0.2717
     86  NE2        6.9280   24.9120  -13.3710 N.am  213  GLN213     -0.0878
     87  N         10.0300   29.7530  -13.5460 N.am  214  PHE214     -0.1976
     88  CA        10.8510   30.9960  -13.1270 C.3   214  PHE214      0.1639
     89  C         10.3110   32.1420  -13.9270 C.2   214  PHE214      0.2290
     90  O         10.9410   32.5790  -14.9440 O.2   214  PHE214     -0.2864
     91  CB        12.3450   30.6910  -13.3810 C.3   214  PHE214      0.0560
     92  CG        12.8580   29.6380  -12.4260 C.ar  214  PHE214     -0.0200
     93  CD1       12.8800   29.9610  -11.0390 C.ar  214  PHE214     -0.0042
     94  CD2       13.1790   28.3990  -12.8900 C.ar  214  PHE214     -0.0042
     95  CE1       13.2780   29.0160  -10.0600 C.ar  214  PHE214     -0.0003
     96  CE2       13.5480   27.3780  -11.9130 C.ar  214  PHE214     -0.0003
     97  CZ        13.6220   27.6510  -10.5280 C.ar  214  PHE214     -0.0000
     98  N         14.3430   34.1040   -6.5180 N.3   222  TRP222     -0.1241
     99  CA        15.2580   32.9480   -6.8240 C.3   222  TRP222      0.1605
    100  C         16.6690   33.3400   -7.2920 C.2   222  TRP222      0.2264
    101  O         17.6320   32.6660   -6.9420 O.2   222  TRP222     -0.2867
    102  CB        14.5850   31.9750   -7.8550 C.3   222  TRP222      0.0550
    103  CG        13.6610   31.1140   -6.9170 C.ar  222  TRP222      0.0003
    104  CD1       12.4100   31.4880   -6.3190 C.ar  222  TRP222      0.0946
    105  CD2       13.8800   29.7460   -6.5670 C.ar  222  TRP222      0.0152
    106  NE1       11.9700   30.4300   -5.5110 N.ar  222  TRP222     -0.2442
    107  CE2       12.8580   29.3870   -5.6210 C.ar  222  TRP222      0.0810
    108  CE3       14.9440   28.8940   -6.7880 C.ar  222  TRP222      0.0012
    109  CZ2       12.7910   28.0630   -5.0690 C.ar  222  TRP222      0.0191
    110  CZ3       14.8660   27.5670   -6.3060 C.ar  222  TRP222      0.0001
    111  CH2       13.8450   27.2060   -5.4100 C.ar  222  TRP222      0.0015
@<TRIPOS>BOND
     1    35    36    1
     2    37    38    2
     3    37    36    1
     4    36    39    1
     5    39    40    1
     6    40    41    1
     7    41    42    1
     8    90    89    2
     9    78    79    1
    10    42    43    2
    11    89    88    1
    12    11    12    1
    13    87    88    1
    14    87    80   am
    15    12    15    1
    16    12    13    1
    17    91    88    1
    18    91    92    1
    19    86    84   am
    20    15    16    1
    21    83    82    1
    22    83    84    1
    23    43    45    1
    24    43    44    1
    25    79    82    1
    26    79    80    1
    27    94    92   ar
    28    94    96   ar
    29    80    81    2
    30    84    85    2
    31    92    93   ar
    32    13    14    2
    33    13    19   am
    34     3     4    2
    35     3     2    1
    36    16    18   ar
    37    16    17   ar
    38    96    97   ar
    39    19    20    1
    40    27    28    1
    41    93    95   ar
    42     2     5    1
    43     2     1    1
    44    21    20    1
    45    21    22    2
    46    97    95   ar
    47    20    23    1
    48    32    34    1
    49    32    31    1
    50     5     6    1
    51    28    31    1
    52    28    29    1
    53    31    33    1
    54    23    24    1
    55    29    30    2
    56     6     8   ar
    57     6     7   ar
    58     8    10   ar
    59    26    24   ar
    60    24    25   ar
    61   102   103    1
    62   102    99    1
    63     7     9   ar
    64    10     9   ar
    65   100   101    2
    66   100    99    1
    67    77    76    1
    68   103   105   ar
    69   103   104   ar
    70    99    98    1
    71   108   105   ar
    72   108   110   ar
    73   105   107   ar
    74   104   106   ar
    75   110   111   ar
    76    76    75   ar
    77    76    74   ar
    78    75    73   ar
    79   107   106   ar
    80   107   109   ar
    81    74    72   ar
    82   111   109   ar
    83    65    64   ar
    84    65    63   ar
    85    64    62   ar
    86    73    71   ar
    87    63    61   ar
    88    72    71   ar
    89    55    54   ar
    90    55    53   ar
    91    71    70    1
    92    54    52   ar
    93    62    61   ar
    94    61    60    1
    95    53    51   ar
    96    66    67    1
    97    56    57    1
    98    57    60    1
    99    57    58    1
   100    52    51   ar
   101    70    67    1
   102    51    50    1
   103    67    68    1
   104    59    58    2
   105    50    47    1
   106    68    69    2
   107    49    48    2
   108    48    47    1
   109    47    46    1
