@<TRIPOS>MOLECULE
tmp/4xm6A00.pdb
 167 158 0 0 0
SMALL
GASTEIGER

@<TRIPOS>ATOM
      1  N          5.1110   10.3700   23.7470 N.3    62  SER62      -0.1217
      2  CA         6.4510   10.8120   23.3630 C.3    62  SER62       0.1889
      3  C          6.7670   12.1900   23.9270 C.2    62  SER62       0.2288
      4  O          7.3470   13.0280   23.2370 O.2    62  SER62      -0.2866
      5  CB         6.6010   10.8330   21.8390 C.3    62  SER62       0.2089
      6  OG         6.7420    9.5240   21.3150 O.3    62  SER62      -0.2183
      7  N         17.1870   16.5380   19.4140 N.3   363  VAL363     -0.1245
      8  CA        15.8560   16.6800   19.9820 C.3   363  VAL363      0.1561
      9  C         15.2110   17.9870   19.5530 C.2   363  VAL363      0.2260
     10  O         15.8360   19.0490   19.6400 O.2   363  VAL363     -0.2867
     11  CB        15.9040   16.6300   21.5290 C.3   363  VAL363      0.0252
     12  CG1       14.5060   16.7050   22.1160 C.3   363  VAL363      0.0019
     13  CG2       16.6150   15.3700   22.0000 C.3   363  VAL363      0.0019
     14  N         11.9250   20.2000   20.6840 N.3   365  SER365     -0.1202
     15  CA        10.9180   20.3280   21.7130 C.3   365  SER365      0.2020
     16  C         10.7360   21.8020   22.0070 C.2   365  SER365      0.2619
     17  O         11.3870   22.6470   21.3960 O.2   365  SER365     -0.2717
     18  CB        11.3320   19.5720   22.9730 C.3   365  SER365      0.2103
     19  OG        12.5640   20.0660   23.4680 O.3   365  SER365     -0.2182
     20  N          9.8570   22.1130   22.9480 N.am  366  LYS366     -0.1965
     21  CA         9.6040   23.4940   23.3000 C.3   366  LYS366      0.1728
     22  C         10.7950   24.0840   24.0370 C.2   366  LYS366      0.2617
     23  O         11.0780   25.2780   23.9250 O.2   366  LYS366     -0.2715
     24  CB         8.3480   23.6030   24.1530 C.3   366  LYS366      0.0311
     25  CG         8.0320   25.0150   24.5870 C.3   366  LYS366      0.0038
     26  CD         6.9510   25.6120   23.7370 C.3   366  LYS366      0.0206
     27  CE         6.7600   27.0690   24.0740 C.3   366  LYS366      0.1093
     28  NZ         5.9020   27.7470   23.0610 N.3   366  LYS366     -0.1314
     29  N         11.4970   23.2400   24.7860 N.am  367  GLY367     -0.1940
     30  CA        12.6190   23.6980   25.5820 C.3   367  GLY367      0.2014
     31  C         13.6380   22.6260   25.9110 C.2   367  GLY367      0.2639
     32  O         13.3360   21.4350   25.9380 O.2   367  GLY367     -0.2714
     33  N         14.8560   23.0660   26.1960 N.am  368  LEU368     -0.1963
     34  CA        15.9680   22.1560   26.3960 C.3   368  LEU368      0.1728
     35  C         17.0670   22.8050   27.2230 C.2   368  LEU368      0.2616
     36  O         17.2980   24.0130   27.1250 O.2   368  LEU368     -0.2715
     37  CB        16.5280   21.7230   25.0410 C.3   368  LEU368      0.0311
     38  CG        17.1120   20.3270   24.8650 C.3   368  LEU368      0.0022
     39  CD1       16.0490   19.2780   25.1590 C.3   368  LEU368      0.0001
     40  CD2       17.6390   20.1880   23.4330 C.3   368  LEU368      0.0001
     41  N         17.7410   22.0060   28.0370 N.am  369  TYR369     -0.1974
     42  CA        19.0040   22.4310   28.6210 C.3   369  TYR369      0.1639
     43  C         20.1190   21.5280   28.1020 C.2   369  TYR369      0.2290
     44  O         20.0060   20.3040   28.1480 O.2   369  TYR369     -0.2864
     45  CB        18.9560   22.4040   30.1530 C.3   369  TYR369      0.0560
     46  CG        20.3000   22.7060   30.7710 C.ar  369  TYR369     -0.0198
     47  CD1       20.8060   23.9980   30.7770 C.ar  369  TYR369     -0.0009
     48  CD2       21.0780   21.6940   31.3150 C.ar  369  TYR369     -0.0009
     49  CE1       22.0410   24.2770   31.3170 C.ar  369  TYR369      0.0417
     50  CE2       22.3140   21.9630   31.8610 C.ar  369  TYR369      0.0417
     51  CZ        22.7910   23.2540   31.8600 C.ar  369  TYR369      0.1957
     52  OH        24.0240   23.5270   32.4000 O.3   369  TYR369     -0.2866
     53  N         14.8130   27.8560   24.2100 N.3   378  LEU378     -0.1245
     54  CA        13.3610   27.9330   24.2540 C.3   378  LEU378      0.1561
     55  C         12.8020   28.2440   22.8680 C.2   378  LEU378      0.2260
     56  O         13.1550   29.2480   22.2520 O.2   378  LEU378     -0.2867
     57  CB        12.9090   28.9860   25.2660 C.3   378  LEU378      0.0270
     58  CG        11.5380   28.7700   25.9070 C.3   378  LEU378      0.0019
     59  CD1       11.5500   27.5190   26.7740 C.3   378  LEU378      0.0001
     60  CD2       11.1350   29.9780   26.7270 C.3   378  LEU378      0.0001
     61  N          4.0660   23.9830   21.0260 N.3   383  LYS383     -0.1231
     62  CA         3.2970   23.7250   22.2370 C.3   383  LYS383      0.1693
     63  C          4.1100   22.8770   23.2060 C.2   383  LYS383      0.2593
     64  O          4.8740   22.0060   22.7900 O.2   383  LYS383     -0.2718
     65  CB         1.9860   23.0210   21.8820 C.3   383  LYS383      0.0285
     66  CG         1.1490   22.5480   23.0640 C.3   383  LYS383      0.0035
     67  CD         0.1870   21.4480   22.6260 C.3   383  LYS383      0.0206
     68  CE        -0.9380   21.2220   23.6320 C.3   383  LYS383      0.1093
     69  NZ        -0.5160   21.3770   25.0560 N.3   383  LYS383     -0.1314
     70  N          3.9560   23.1270   24.4980 N.am  384  GLY384     -0.1942
     71  CA         4.6920   22.3510   25.4740 C.3   384  GLY384      0.2014
     72  C          3.9530   21.1050   25.9210 C.2   384  GLY384      0.2638
     73  O          2.8220   20.8510   25.4980 O.2   384  GLY384     -0.2714
     74  N          4.6030   20.3080   26.7610 N.am  385  VAL385     -0.1977
     75  CA         3.8750   19.3270   27.5420 C.3   385  VAL385      0.1596
     76  C          3.1660   20.0980   28.6600 C.2   385  VAL385      0.2287
     77  O          3.8130   20.8260   29.4360 O.2   385  VAL385     -0.2864
     78  CB         4.8060   18.2200   28.1340 C.3   385  VAL385      0.0276
     79  CG1        4.5090   17.9530   29.6150 C.3   385  VAL385      0.0022
     80  CG2        4.7440   16.9330   27.3150 C.3   385  VAL385      0.0022
     81  N          1.9590   22.5610   29.8370 N.3   387  LEU387     -0.1245
     82  CA         2.4660   23.7470   30.5110 C.3   387  LEU387      0.1561
     83  C          1.7030   25.0420   30.2400 C.2   387  LEU387      0.2260
     84  O          1.3940   25.3770   29.0840 O.2   387  LEU387     -0.2867
     85  CB         3.9220   23.9380   30.1390 C.3   387  LEU387      0.0270
     86  CG         4.7960   23.4520   31.2850 C.3   387  LEU387      0.0019
     87  CD1        6.2630   23.7810   31.1120 C.3   387  LEU387      0.0001
     88  CD2        4.2590   24.0230   32.5850 C.3   387  LEU387      0.0001
     89  N          2.5980   28.1790   30.4220 N.3   389  ASN389     -0.1225
     90  CA         3.2620   29.1840   29.5990 C.3   389  ASN389      0.1785
     91  C          4.7550   28.9360   29.4210 C.2   389  ASN389      0.2597
     92  O          5.3090   27.9640   29.9390 O.2   389  ASN389     -0.2718
     93  CB         3.0570   30.5770   30.1960 C.3   389  ASN389      0.1169
     94  CG         3.4640   30.6490   31.6500 C.2   389  ASN389      0.2627
     95  OD1        4.6370   30.4830   31.9870 O.2   389  ASN389     -0.2716
     96  ND2        2.4960   30.9040   32.5220 N.am  389  ASN389     -0.0877
     97  N          5.4030   29.8460   28.7000 N.am  390  ASP390     -0.1974
     98  CA         6.8260   29.7340   28.4210 C.3   390  ASP390      0.1709
     99  C          7.6780   30.1110   29.6250 C.2   390  ASP390      0.2293
    100  O          8.7890   29.6030   29.7780 O.2   390  ASP390     -0.2864
    101  CB         7.2000   30.6050   27.2210 C.3   390  ASP390      0.1436
    102  CG         6.4820   30.1810   25.9600 C.2   390  ASP390      0.3671
    103  OD1        5.7240   29.1910   26.0260 O.co2 390  ASP390     -0.2456
    104  OD2        6.6810   30.8230   24.9060 O.co2 390  ASP390     -0.2456
    105  N          8.1950   26.9710   31.7230 N.3   393  GLY393     -0.1225
    106  CA         9.0930   26.0550   31.0540 C.3   393  GLY393      0.1811
    107  C         10.5360   26.5100   31.1430 C.2   393  GLY393      0.2280
    108  O         11.4490   25.6920   31.2700 O.2   393  GLY393     -0.2866
    109  N         11.7210   25.5780   34.4700 N.3   396  HIS396     -0.1226
    110  CA        12.0260   24.1550   34.3660 C.3   396  HIS396      0.1752
    111  C         13.4210   23.9130   33.7890 C.2   396  HIS396      0.2595
    112  O         14.1830   23.0980   34.3190 O.2   396  HIS396     -0.2718
    113  CB        10.9770   23.4480   33.5050 C.3   396  HIS396      0.0759
    114  CG        11.3370   22.0400   33.1430 C.ar  396  HIS396      0.0818
    115  ND1       10.7230   20.9440   33.7210 N.ar  396  HIS396     -0.2268
    116  CD2       12.2220   21.5400   32.2490 C.ar  396  HIS396      0.1154
    117  CE1       11.2210   19.8410   33.2020 C.ar  396  HIS396      0.1986
    118  NE2       12.1380   20.1700   32.3060 N.ar  396  HIS396     -0.2212
    119  N         13.7520   24.6020   32.7000 N.am  397  GLU397     -0.1979
    120  CA        15.0670   24.4250   32.0960 C.3   397  GLU397      0.1602
    121  C         16.1430   24.9340   33.0460 C.2   397  GLU397      0.2287
    122  O         17.2010   24.3290   33.1800 O.2   397  GLU397     -0.2864
    123  CB        15.1700   25.1440   30.7480 C.3   397  GLU397      0.0415
    124  CG        14.0710   24.8130   29.7390 C.3   397  GLU397      0.1163
    125  CD        14.0060   23.3440   29.3380 C.2   397  GLU397      0.3649
    126  OE1       12.9930   22.9580   28.7210 O.co2 397  GLU397     -0.2457
    127  OE2       14.9480   22.5750   29.6240 O.co2 397  GLU397     -0.2457
    128  N         17.2710   22.4750   35.3570 N.3   400  HIS400     -0.1241
    129  CA        18.3240   21.6030   34.8490 C.3   400  HIS400      0.1621
    130  C         19.7090   22.2040   35.0660 C.2   400  HIS400      0.2264
    131  O         20.6580   21.4920   35.3950 O.2   400  HIS400     -0.2867
    132  CB        18.1160   21.3220   33.3670 C.3   400  HIS400      0.0745
    133  CG        17.1030   20.2500   33.0920 C.ar  400  HIS400      0.0817
    134  ND1       17.1550   19.0210   33.6940 N.ar  400  HIS400     -0.2268
    135  CD2       16.0340   20.2400   32.2670 C.ar  400  HIS400      0.1154
    136  CE1       16.1400   18.2830   33.2560 C.ar  400  HIS400      0.1986
    137  NE2       15.4540   18.9950   32.3950 N.ar  400  HIS400     -0.2212
    138  N          4.9790   14.0690   33.4740 N.3   438  TYR438     -0.1241
    139  CA         6.2660   14.1260   32.8050 C.3   438  TYR438      0.1605
    140  C          7.4200   14.0380   33.8000 C.2   438  TYR438      0.2264
    141  O          8.5420   13.6930   33.4300 O.2   438  TYR438     -0.2867
    142  CB         6.3980   15.4000   31.9730 C.3   438  TYR438      0.0534
    143  CG         7.6130   15.3360   31.0860 C.ar  438  TYR438     -0.0201
    144  CD1        7.6380   14.4860   29.9880 C.ar  438  TYR438     -0.0009
    145  CD2        8.7510   16.0760   31.3710 C.ar  438  TYR438     -0.0009
    146  CE1        8.7520   14.3960   29.1810 C.ar  438  TYR438      0.0417
    147  CE2        9.8720   15.9940   30.5680 C.ar  438  TYR438      0.0417
    148  CZ         9.8650   15.1520   29.4750 C.ar  438  TYR438      0.1957
    149  OH        10.9740   15.0560   28.6680 O.3   438  TYR438     -0.2866
    150  N         14.4490   15.0610   34.8880 N.3   445  GLU445     -0.1245
    151  CA        13.2100   15.7500   34.5780 C.3   445  GLU445      0.1567
    152  C         12.3420   15.8710   35.8250 C.2   445  GLU445      0.2260
    153  O         11.5940   16.8390   35.9820 O.2   445  GLU445     -0.2867
    154  CB        12.4610   15.0270   33.4540 C.3   445  GLU445      0.0388
    155  CG        13.1340   15.1230   32.0620 C.3   445  GLU445      0.1160
    156  CD        13.3080   16.5520   31.5680 C.2   445  GLU445      0.3649
    157  OE1       12.5200   17.4230   31.9910 O.co2 445  GLU445     -0.2457
    158  OE2       14.2120   16.8020   30.7400 O.co2 445  GLU445     -0.2457
    159  N         11.0140   19.4500   37.0770 N.3   449  GLU449     -0.1245
    160  CA         9.5990   19.6840   37.3510 C.3   449  GLU449      0.1567
    161  C          9.3720   20.1320   38.7990 C.2   449  GLU449      0.2260
    162  O          8.6760   21.1210   39.0550 O.2   449  GLU449     -0.2867
    163  CB         8.7820   18.4280   37.0460 C.3   449  GLU449      0.0388
    164  CG         8.5360   18.1920   35.5550 C.3   449  GLU449      0.1160
    165  CD         7.6340   19.2530   34.9360 C.2   449  GLU449      0.3649
    166  OE1        6.4580   18.9420   34.6450 O.co2 449  GLU449     -0.2457
    167  OE2        8.0970   20.3970   34.7370 O.co2 449  GLU449     -0.2457
@<TRIPOS>BOND
     1     7     8    1
     2     9    10    2
     3     9     8    1
     4     8    11    1
     5    14    15    1
     6    61    62    1
     7     6     5    1
     8    17    16    2
     9    11    13    1
    10    11    12    1
    11    15    16    1
    12    15    18    1
    13     5     2    1
    14    65    62    1
    15    65    66    1
    16    16    20   am
    17    62    63    1
    18    56    55    2
    19    67    66    1
    20    67    68    1
    21    64    63    2
    22    55    54    1
    23    20    21    1
    24    18    19    1
    25    28    27    1
    26    63    70   am
    27     4     3    2
    28    21    22    1
    29    21    24    1
    30     2     1    1
    31     2     3    1
    32    40    38    1
    33    68    69    1
    34    26    27    1
    35    26    25    1
    36    23    22    2
    37    22    29   am
    38    24    25    1
    39    53    54    1
    40    54    57    1
    41    70    71    1
    42    29    30    1
    43    38    37    1
    44    38    39    1
    45   104   102   ar
    46    37    34    1
    47    57    58    1
    48    71    72    1
    49    73    72    2
    50    30    31    1
    51    58    60    1
    52    58    59    1
    53    31    32    2
    54    31    33   am
    55    72    74   am
    56   102   103   ar
    57   102   101    1
    58    33    34    1
    59    34    35    1
    60    74    75    1
    61    36    35    2
    62   101    98    1
    63    35    41   am
    64    80    78    1
    65    75    78    1
    66    75    76    1
    67    41    42    1
    68    43    44    2
    69    43    42    1
    70    78    79    1
    71    98    97    1
    72    98    99    1
    73    42    45    1
    74    76    77    2
    75   149   148    1
    76    97    91   am
    77   126   125   ar
    78    84    83    2
    79   146   148   ar
    80   146   144   ar
    81   125   127   ar
    82   125   124    1
    83    91    90    1
    84    91    92    2
    85   148   147   ar
    86    90    93    1
    87    90    89    1
    88    99   100    2
    89   124   123    1
    90    81    82    1
    91   144   143   ar
    92    85    82    1
    93    85    86    1
    94    45    46    1
    95    93    94    1
    96    83    82    1
    97   147   145   ar
    98   158   156   ar
    99   123   120    1
   100    46    47   ar
   101    46    48   ar
   102    47    49   ar
   103   106   107    1
   104   106   105    1
   105   143   145   ar
   106   143   142    1
   107    87    86    1
   108   107   108    2
   109    86    88    1
   110    48    50   ar
   111    49    51   ar
   112   156   157   ar
   113   156   155    1
   114    94    95    2
   115    94    96   am
   116    51    50   ar
   117    51    52    1
   118   142   139    1
   119   155   154    1
   120   120   119    1
   121   120   121    1
   122   116   118   ar
   123   116   114   ar
   124   135   137   ar
   125   135   133   ar
   126   118   117   ar
   127   137   136   ar
   128   119   111   am
   129   139   138    1
   130   139   140    1
   131   121   122    2
   132   133   132    1
   133   133   134   ar
   134   114   113    1
   135   114   115   ar
   136   117   115   ar
   137   136   134   ar
   138   132   129    1
   139   141   140    2
   140   154   151    1
   141   113   110    1
   142   111   112    2
   143   111   110    1
   144   110   109    1
   145   151   150    1
   146   151   152    1
   147   166   165   ar
   148   167   165   ar
   149   129   130    1
   150   129   128    1
   151   165   164    1
   152   130   131    2
   153   164   163    1
   154   152   153    2
   155   163   160    1
   156   159   160    1
   157   160   161    1
   158   161   162    2
