@<TRIPOS>MOLECULE
tmp/4xm7A00.pdb
 167 157 0 0 0
SMALL
GASTEIGER

@<TRIPOS>ATOM
      1  N          8.1780   12.8200   23.2320 N.3    64  ASP64      -0.1239
      2  CA         8.3840   14.2370   23.5040 C.3    64  ASP64       0.1674
      3  C          9.2820   14.9240   22.4740 C.2    64  ASP64       0.2266
      4  O          9.3030   16.1520   22.3780 O.2    64  ASP64      -0.2867
      5  CB         8.9780   14.4120   24.9060 C.3    64  ASP64       0.1410
      6  CG        10.2410   13.5840   25.1210 C.2    64  ASP64       0.3668
      7  OD1       11.0770   13.4950   24.1970 O.co2  64  ASP64      -0.2456
      8  OD2       10.4010   13.0190   26.2250 O.co2  64  ASP64      -0.2456
      9  N          0.5170   27.7670   21.1580 N.3   182  THR182     -0.1218
     10  CA         0.0130   27.9600   22.5140 C.3   182  THR182      0.1862
     11  C         -1.1830   28.9150   22.5350 C.2   182  THR182      0.2287
     12  O         -2.2680   28.5410   22.9800 O.2   182  THR182     -0.2866
     13  CB         1.1070   28.4980   23.4630 C.3   182  THR182      0.1770
     14  OG1        1.1780   29.9250   23.3650 O.3   182  THR182     -0.2211
     15  CG2        2.4610   27.8950   23.1230 C.3   182  THR182      0.0375
     16  N         16.9750   16.6900   19.4010 N.3   386  VAL386     -0.1245
     17  CA        15.6520   16.7800   19.9990 C.3   386  VAL386      0.1561
     18  C         14.9350   18.0420   19.5590 C.2   386  VAL386      0.2260
     19  O         15.5090   19.1300   19.5880 O.2   386  VAL386     -0.2867
     20  CB        15.7300   16.7660   21.5480 C.3   386  VAL386      0.0252
     21  CG1       14.3520   16.9770   22.1630 C.3   386  VAL386      0.0019
     22  CG2       16.3530   15.4690   22.0530 C.3   386  VAL386      0.0019
     23  N         11.6100   20.1200   20.8010 N.3   388  SER388     -0.1202
     24  CA        10.6110   20.2820   21.8390 C.3   388  SER388      0.2020
     25  C         10.4810   21.7770   22.0720 C.2   388  SER388      0.2619
     26  O         11.2190   22.5540   21.4710 O.2   388  SER388     -0.2717
     27  CB        11.0130   19.5410   23.1140 C.3   388  SER388      0.2103
     28  OG        12.3270   19.8930   23.5110 O.3   388  SER388     -0.2182
     29  N          9.5510   22.1930   22.9230 N.am  389  LYS389     -0.1965
     30  CA         9.3730   23.6190   23.1540 C.3   389  LYS389      0.1728
     31  C         10.5980   24.2010   23.8490 C.2   389  LYS389      0.2617
     32  O         10.9530   25.3600   23.6330 O.2   389  LYS389     -0.2715
     33  CB         8.1100   23.8910   23.9720 C.3   389  LYS389      0.0311
     34  CG         7.9000   25.3630   24.2880 C.3   389  LYS389      0.0038
     35  CD         6.4320   25.7200   24.3870 C.3   389  LYS389      0.0206
     36  CE         6.2510   27.2240   24.5160 C.3   389  LYS389      0.1093
     37  NZ         6.7170   27.9380   23.2970 N.3   389  LYS389     -0.1314
     38  N         11.2550   23.3860   24.6670 N.am  390  GLY390     -0.1940
     39  CA        12.4180   23.8420   25.4060 C.3   390  GLY390      0.2014
     40  C         13.4050   22.7460   25.7450 C.2   390  GLY390      0.2639
     41  O         13.0990   21.5580   25.6460 O.2   390  GLY390     -0.2714
     42  N         14.5970   23.1570   26.1630 N.am  391  LEU391     -0.1963
     43  CA        15.6750   22.2240   26.4470 C.3   391  LEU391      0.1728
     44  C         16.7420   22.8780   27.3160 C.2   391  LEU391      0.2616
     45  O         16.9590   24.0870   27.2370 O.2   391  LEU391     -0.2715
     46  CB        16.2990   21.7250   25.1390 C.3   391  LEU391      0.0311
     47  CG        16.7830   20.2770   25.0590 C.3   391  LEU391      0.0022
     48  CD1       15.6200   19.3160   25.2640 C.3   391  LEU391      0.0001
     49  CD2       17.4690   20.0170   23.7230 C.3   391  LEU391      0.0001
     50  N         17.3960   22.0840   28.1560 N.am  392  TYR392     -0.1974
     51  CA        18.6310   22.5300   28.7910 C.3   392  TYR392      0.1639
     52  C         19.7730   21.6350   28.3350 C.2   392  TYR392      0.2290
     53  O         19.6970   20.4120   28.4510 O.2   392  TYR392     -0.2864
     54  CB        18.5310   22.5180   30.3190 C.3   392  TYR392      0.0560
     55  CG        19.8680   22.7920   30.9740 C.ar  392  TYR392     -0.0198
     56  CD1       20.4240   24.0640   30.9530 C.ar  392  TYR392     -0.0009
     57  CD2       20.5930   21.7710   31.5780 C.ar  392  TYR392     -0.0009
     58  CE1       21.6550   24.3170   31.5280 C.ar  392  TYR392      0.0417
     59  CE2       21.8260   22.0160   32.1590 C.ar  392  TYR392      0.0417
     60  CZ        22.3500   23.2920   32.1300 C.ar  392  TYR392      0.1957
     61  OH        23.5740   23.5480   32.7010 O.3   392  TYR392     -0.2866
     62  N         14.6740   27.8860   24.1440 N.3   401  LEU401     -0.1245
     63  CA        13.2250   28.0290   24.2120 C.3   401  LEU401      0.1561
     64  C         12.6270   28.3830   22.8560 C.2   401  LEU401      0.2260
     65  O         12.8740   29.4610   22.3200 O.2   401  LEU401     -0.2867
     66  CB        12.8370   29.0860   25.2460 C.3   401  LEU401      0.0270
     67  CG        11.4420   28.8800   25.8320 C.3   401  LEU401      0.0019
     68  CD1       11.4450   27.6260   26.6780 C.3   401  LEU401      0.0001
     69  CD2       10.9960   30.0790   26.6490 C.3   401  LEU401      0.0001
     70  N          3.5630   23.3200   24.4640 N.3   407  GLY407     -0.1210
     71  CA         4.1720   22.5040   25.4970 C.3   407  GLY407      0.1956
     72  C          3.3530   21.2880   25.8860 C.2   407  GLY407      0.2611
     73  O          2.1320   21.2690   25.7310 O.2   407  GLY407     -0.2717
     74  N          4.0390   20.2660   26.3880 N.am  408  VAL408     -0.1979
     75  CA         3.3740   19.0820   26.9120 C.3   408  VAL408      0.1595
     76  C          2.6670   19.4530   28.2110 C.2   408  VAL408      0.2287
     77  O          3.2920   19.5240   29.2740 O.2   408  VAL408     -0.2864
     78  CB         4.3670   17.9230   27.1510 C.3   408  VAL408      0.0276
     79  CG1        3.7060   16.7850   27.9260 C.3   408  VAL408      0.0022
     80  CG2        4.9240   17.4240   25.8260 C.3   408  VAL408      0.0022
     81  N          1.3850   22.3520   29.6690 N.3   410  LEU410     -0.1245
     82  CA         1.9940   23.3870   30.4890 C.3   410  LEU410      0.1561
     83  C          1.4150   24.7540   30.1460 C.2   410  LEU410      0.2260
     84  O          1.2190   25.0830   28.9760 O.2   410  LEU410     -0.2867
     85  CB         3.5120   23.3890   30.3170 C.3   410  LEU410      0.0270
     86  CG         4.2780   23.6290   31.6180 C.3   410  LEU410      0.0019
     87  CD1        4.0500   22.4610   32.5610 C.3   410  LEU410      0.0001
     88  CD2        5.7610   23.8390   31.3670 C.3   410  LEU410      0.0001
     89  N          2.2870   28.2290   30.3540 N.3   412  ASN412     -0.1225
     90  CA         2.8980   29.3500   29.6560 C.3   412  ASN412      0.1785
     91  C          4.3910   29.0970   29.4950 C.2   412  ASN412      0.2597
     92  O          4.9490   28.1900   30.1120 O.2   412  ASN412     -0.2718
     93  CB         2.6650   30.7380   30.2550 C.3   412  ASN412      0.1169
     94  CG         2.9550   30.7870   31.7440 C.2   412  ASN412      0.2627
     95  OD1        4.0260   30.3790   32.1940 O.2   412  ASN412     -0.2716
     96  ND2        1.9960   31.2810   32.5190 N.am  412  ASN412     -0.0877
     97  N          5.0280   29.9120   28.6580 N.am  413  ASP413     -0.1974
     98  CA         6.4640   29.8190   28.4230 C.3   413  ASP413      0.1709
     99  C          7.2540   30.0770   29.7010 C.2   413  ASP413      0.2293
    100  O          8.2830   29.4470   29.9420 O.2   413  ASP413     -0.2864
    101  CB         6.8950   30.8170   27.3420 C.3   413  ASP413      0.1436
    102  CG         6.1700   30.6070   26.0320 C.2   413  ASP413      0.3671
    103  OD1        5.0450   30.0630   26.0580 O.co2 413  ASP413     -0.2456
    104  OD2        6.7240   30.9870   24.9760 O.co2 413  ASP413     -0.2456
    105  N          7.7200   27.1470   31.8540 N.3   416  GLY416     -0.1225
    106  CA         8.6260   26.2200   31.2090 C.3   416  GLY416      0.1811
    107  C         10.0840   26.6320   31.3050 C.2   416  GLY416      0.2280
    108  O         10.9710   25.7800   31.3650 O.2   416  GLY416     -0.2866
    109  N         11.3330   25.6790   34.6850 N.3   419  HIS419     -0.1226
    110  CA        11.6190   24.2550   34.6100 C.3   419  HIS419      0.1752
    111  C         13.0200   24.0200   34.0530 C.2   419  HIS419      0.2595
    112  O         13.7900   23.2310   34.6020 O.2   419  HIS419     -0.2718
    113  CB        10.5660   23.5580   33.7490 C.3   419  HIS419      0.0759
    114  CG        10.9080   22.1440   33.3880 C.ar  419  HIS419      0.0818
    115  ND1       10.2290   21.0660   33.9120 N.ar  419  HIS419     -0.2268
    116  CD2       11.8290   21.6400   32.5390 C.ar  419  HIS419      0.1154
    117  CE1       10.7310   19.9510   33.4050 C.ar  419  HIS419      0.1986
    118  NE2       11.7020   20.2710   32.5750 N.ar  419  HIS419     -0.2212
    119  N         13.3460   24.7100   32.9630 N.am  420  GLU420     -0.1979
    120  CA        14.6610   24.5760   32.3450 C.3   420  GLU420      0.1602
    121  C         15.7570   25.0910   33.2680 C.2   420  GLU420      0.2287
    122  O         16.8280   24.5000   33.3610 O.2   420  GLU420     -0.2864
    123  CB        14.7150   25.3190   31.0090 C.3   420  GLU420      0.0415
    124  CG        13.6830   24.8640   29.9920 C.3   420  GLU420      0.1163
    125  CD        13.9140   23.4520   29.4990 C.2   420  GLU420      0.3649
    126  OE1       13.0510   22.9430   28.7550 O.co2 420  GLU420     -0.2457
    127  OE2       14.9520   22.8490   29.8420 O.co2 420  GLU420     -0.2457
    128  N         16.9210   22.6220   35.6240 N.3   423  HIS423     -0.1241
    129  CA        17.9460   21.7240   35.1100 C.3   423  HIS423      0.1621
    130  C         19.3390   22.2650   35.3930 C.2   423  HIS423      0.2264
    131  O         20.2350   21.5270   35.8040 O.2   423  HIS423     -0.2867
    132  CB        17.7780   21.5180   33.6110 C.3   423  HIS423      0.0745
    133  CG        16.7890   20.4570   33.2490 C.ar  423  HIS423      0.0817
    134  ND1       16.7740   19.2190   33.8600 N.ar  423  HIS423     -0.2268
    135  CD2       15.8040   20.4370   32.3290 C.ar  423  HIS423      0.1154
    136  CE1       15.8090   18.4890   33.3340 C.ar  423  HIS423      0.1986
    137  NE2       15.2050   19.2010   32.4020 N.ar  423  HIS423     -0.2212
    138  N          4.4880   14.0290   33.4060 N.3   461  TYR461     -0.1241
    139  CA         5.7410   14.0650   32.6640 C.3   461  TYR461      0.1605
    140  C          6.9490   13.9280   33.5800 C.2   461  TYR461      0.2264
    141  O          8.0140   13.4840   33.1500 O.2   461  TYR461     -0.2867
    142  CB         5.8670   15.3530   31.8490 C.3   461  TYR461      0.0534
    143  CG         7.1230   15.3560   31.0170 C.ar  461  TYR461     -0.0201
    144  CD1        7.2920   14.4390   29.9890 C.ar  461  TYR461     -0.0009
    145  CD2        8.1580   16.2440   31.2810 C.ar  461  TYR461     -0.0009
    146  CE1        8.4460   14.4170   29.2300 C.ar  461  TYR461      0.0417
    147  CE2        9.3170   16.2300   30.5270 C.ar  461  TYR461      0.0417
    148  CZ         9.4550   15.3140   29.5030 C.ar  461  TYR461      0.1957
    149  OH        10.6050   15.2910   28.7480 O.3   461  TYR461     -0.2866
    150  N         14.1690   14.9100   34.8530 N.3   468  GLU468     -0.1245
    151  CA        12.9010   15.5750   34.5710 C.3   468  GLU468      0.1567
    152  C         12.0940   15.7700   35.8470 C.2   468  GLU468      0.2260
    153  O         11.4470   16.8010   36.0320 O.2   468  GLU468     -0.2867
    154  CB        12.0800   14.7760   33.5510 C.3   468  GLU468      0.0388
    155  CG        12.8540   14.3030   32.3180 C.3   468  GLU468      0.1160
    156  CD        13.3170   15.4290   31.4050 C.2   468  GLU468      0.3649
    157  OE1       13.1850   16.6090   31.7770 O.co2 468  GLU468     -0.2457
    158  OE2       13.8240   15.1270   30.3040 O.co2 468  GLU468     -0.2457
    159  N         10.4830   19.3080   37.1960 N.3   472  GLU472     -0.1245
    160  CA         9.0610   19.5640   37.3990 C.3   472  GLU472      0.1567
    161  C          8.7740   19.9450   38.8450 C.2   472  GLU472      0.2260
    162  O          7.9510   20.8200   39.1130 O.2   472  GLU472     -0.2867
    163  CB         8.2290   18.3460   37.0000 C.3   472  GLU472      0.0388
    164  CG         8.0320   18.1970   35.5000 C.3   472  GLU472      0.1160
    165  CD         7.1710   19.3000   34.9120 C.2   472  GLU472      0.3649
    166  OE1        5.9770   19.0460   34.6420 O.co2 472  GLU472     -0.2457
    167  OE2        7.6860   20.4220   34.7130 O.co2 472  GLU472     -0.2457
@<TRIPOS>BOND
     1    16    17    1
     2    18    19    2
     3    18    17    1
     4    17    20    1
     5    23    24    1
     6     9    10    1
     7    26    25    2
     8    20    22    1
     9    20    21    1
    10    24    25    1
    11    24    27    1
    12    25    29   am
    13    65    64    2
    14     4     3    2
    15     3     2    1
    16    10    11    1
    17    10    13    1
    18    11    12    2
    19    64    63    1
    20    29    30    1
    21    27    28    1
    22    15    13    1
    23    30    31    1
    24    30    33    1
    25     1     2    1
    26    37    36    1
    27    14    13    1
    28     2     5    1
    29    32    31    2
    30    49    47    1
    31    31    38   am
    32    33    34    1
    33    62    63    1
    34     7     6   ar
    35    63    66    1
    36    34    35    1
    37    35    36    1
    38    70    71    1
    39    38    39    1
    40     5     6    1
    41   104   102   ar
    42    47    46    1
    43    47    48    1
    44     6     8   ar
    45    46    43    1
    46    66    67    1
    47    39    40    1
    48    71    72    1
    49    41    40    2
    50    73    72    2
    51    40    42   am
    52    80    78    1
    53    67    69    1
    54    67    68    1
    55    72    74   am
    56   102   103   ar
    57   102   101    1
    58    42    43    1
    59    74    75    1
    60    43    44    1
    61    75    78    1
    62    75    76    1
    63    78    79    1
    64    45    44    2
    65    44    50   am
    66   101    98    1
    67    50    51    1
    68    76    77    2
    69    52    53    2
    70    52    51    1
    71    98    97    1
    72    98    99    1
    73    97    91   am
    74   149   148    1
    75   126   125   ar
    76    51    54    1
    77    84    83    2
    78   146   148   ar
    79   146   144   ar
    80    91    90    1
    81    91    92    2
    82   125   127   ar
    83   125   124    1
    84   148   147   ar
    85    90    93    1
    86    90    89    1
    87    81    82    1
    88    99   100    2
    89   144   143   ar
    90   124   123    1
    91    83    82    1
    92    93    94    1
    93   158   156   ar
    94    85    82    1
    95    85    86    1
    96    54    55    1
    97   147   145   ar
    98    56    55   ar
    99    56    58   ar
   100    55    57   ar
   101   123   120    1
   102   143   145   ar
   103   143   142    1
   104   106   107    1
   105   106   105    1
   106   107   108    2
   107    88    86    1
   108   156   157   ar
   109   156   155    1
   110    58    60   ar
   111    57    59   ar
   112    86    87    1
   113    94    95    2
   114    94    96   am
   115   142   139    1
   116    60    59   ar
   117    60    61    1
   118   155   154    1
   119   135   137   ar
   120   135   133   ar
   121   120   119    1
   122   120   121    1
   123   137   136   ar
   124   116   118   ar
   125   116   114   ar
   126   118   117   ar
   127   139   138    1
   128   139   140    1
   129   119   111   am
   130   141   140    2
   131   133   132    1
   132   133   134   ar
   133   121   122    2
   134   136   134   ar
   135   114   113    1
   136   114   115   ar
   137   117   115   ar
   138   154   151    1
   139   132   129    1
   140   113   110    1
   141   111   112    2
   142   111   110    1
   143   151   150    1
   144   151   152    1
   145   110   109    1
   146   166   165   ar
   147   167   165   ar
   148   165   164    1
   149   129   130    1
   150   129   128    1
   151   130   131    2
   152   164   163    1
   153   152   153    2
   154   163   160    1
   155   159   160    1
   156   160   161    1
   157   161   162    2
