@<TRIPOS>MOLECULE
tmp/4xm8A00.pdb
 188 181 0 0 0
SMALL
GASTEIGER

@<TRIPOS>ATOM
      1  N          0.8790   28.0860   21.2380 N.3   173  THR173     -0.1218
      2  CA         0.5520   28.4080   22.6220 C.3   173  THR173      0.1862
      3  C         -0.6730   29.3200   22.7050 C.2   173  THR173      0.2287
      4  O         -1.6020   29.0580   23.4700 O.2   173  THR173     -0.2866
      5  CB         1.7380   29.0840   23.3370 C.3   173  THR173      0.1770
      6  OG1        2.0530   30.2820   22.6450 O.3   173  THR173     -0.2211
      7  CG2        2.9500   28.1750   23.4120 C.3   173  THR173      0.0375
      8  N         17.1840   16.4450   19.3430 N.3   377  VAL377     -0.1245
      9  CA        15.8360   16.5680   19.8760 C.3   377  VAL377      0.1561
     10  C         15.1800   17.8700   19.4510 C.2   377  VAL377      0.2260
     11  O         15.8020   18.9310   19.5040 O.2   377  VAL377     -0.2867
     12  CB        15.8390   16.4940   21.4210 C.3   377  VAL377      0.0252
     13  CG1       14.4260   16.5610   21.9610 C.3   377  VAL377      0.0019
     14  CG2       16.5340   15.2230   21.8950 C.3   377  VAL377      0.0019
     15  N         11.8230   20.0910   20.6030 N.3   379  SER379     -0.1202
     16  CA        10.8020   20.2400   21.6220 C.3   379  SER379      0.2020
     17  C         10.6450   21.7240   21.8930 C.2   379  SER379      0.2619
     18  O         11.2520   22.5440   21.2080 O.2   379  SER379     -0.2717
     19  CB        11.1720   19.4750   22.8950 C.3   379  SER379      0.2103
     20  OG        12.3910   19.9450   23.4440 O.3   379  SER379     -0.2182
     21  N          9.8330   22.0780   22.8810 N.am  380  LYS380     -0.1965
     22  CA         9.6080   23.4830   23.1770 C.3   380  LYS380      0.1728
     23  C         10.8290   24.0760   23.8540 C.2   380  LYS380      0.2617
     24  O         11.2020   25.2210   23.6020 O.2   380  LYS380     -0.2715
     25  CB         8.3720   23.6620   24.0590 C.3   380  LYS380      0.0311
     26  CG         8.0250   25.1110   24.3490 C.3   380  LYS380      0.0038
     27  CD         6.7260   25.5020   23.6820 C.3   380  LYS380      0.0206
     28  CE         6.4570   26.9860   23.8310 C.3   380  LYS380      0.1093
     29  NZ         7.5230   27.8150   23.2100 N.3   380  LYS380     -0.1314
     30  N         11.4560   23.2820   24.7130 N.am  381  GLY381     -0.1940
     31  CA        12.5850   23.7480   25.4890 C.3   381  GLY381      0.2014
     32  C         13.5990   22.6530   25.7360 C.2   381  GLY381      0.2639
     33  O         13.3060   21.4690   25.5800 O.2   381  GLY381     -0.2714
     34  N         14.7990   23.0540   26.1360 N.am  382  LEU382     -0.1963
     35  CA        15.8870   22.1100   26.3240 C.3   382  LEU382      0.1728
     36  C         16.9990   22.7310   27.1580 C.2   382  LEU382      0.2616
     37  O         17.2010   23.9450   27.1330 O.2   382  LEU382     -0.2715
     38  CB        16.4350   21.6610   24.9670 C.3   382  LEU382      0.0311
     39  CG        16.9820   20.2410   24.8420 C.3   382  LEU382      0.0022
     40  CD1       15.8550   19.2270   24.9690 C.3   382  LEU382      0.0001
     41  CD2       17.7150   20.0710   23.5170 C.3   382  LEU382      0.0001
     42  N         17.7040   21.8970   27.9130 N.am  383  TYR383     -0.1974
     43  CA        18.9460   22.3290   28.5360 C.3   383  TYR383      0.1639
     44  C         20.0910   21.4500   28.0570 C.2   383  TYR383      0.2290
     45  O         20.0300   20.2240   28.1540 O.2   383  TYR383     -0.2864
     46  CB        18.8590   22.2920   30.0620 C.3   383  TYR383      0.0560
     47  CG        20.1750   22.6670   30.7030 C.ar  383  TYR383     -0.0198
     48  CD1       20.6070   23.9870   30.7140 C.ar  383  TYR383     -0.0009
     49  CD2       21.0020   21.7020   31.2660 C.ar  383  TYR383     -0.0009
     50  CE1       21.8140   24.3380   31.2780 C.ar  383  TYR383      0.0417
     51  CE2       22.2130   22.0450   31.8340 C.ar  383  TYR383      0.0417
     52  CZ        22.6120   23.3650   31.8380 C.ar  383  TYR383      0.1957
     53  OH        23.8150   23.7230   32.3980 O.3   383  TYR383     -0.2866
     54  N         14.8580   27.7170   23.9490 N.3   392  LEU392     -0.1245
     55  CA        13.4070   27.8030   24.0090 C.3   392  LEU392      0.1561
     56  C         12.8140   28.0710   22.6370 C.2   392  LEU392      0.2260
     57  O         13.0870   29.1010   22.0230 O.2   392  LEU392     -0.2867
     58  CB        12.9730   28.8930   24.9830 C.3   392  LEU392      0.0270
     59  CG        11.5800   28.6830   25.5690 C.3   392  LEU392      0.0019
     60  CD1       11.5990   27.5070   26.5300 C.3   392  LEU392      0.0001
     61  CD2       11.0910   29.9390   26.2620 C.3   392  LEU392      0.0001
     62  N          3.9370   23.8400   20.6150 N.3   397  LYS397     -0.1231
     63  CA         3.1340   23.6410   21.8190 C.3   397  LYS397      0.1693
     64  C          3.8640   22.7150   22.7860 C.2   397  LYS397      0.2593
     65  O          4.4510   21.7140   22.3760 O.2   397  LYS397     -0.2718
     66  CB         1.7600   23.0640   21.4670 C.3   397  LYS397      0.0285
     67  CG         0.9580   22.6210   22.7020 C.3   397  LYS397      0.0035
     68  CD         0.2090   23.8650   23.1230 C.3   397  LYS397      0.0206
     69  CE        -0.6580   23.6590   24.3570 C.3   397  LYS397      0.1093
     70  NZ        -0.9600   25.0440   24.8740 N.3   397  LYS397     -0.1314
     71  N          3.8240   23.0500   24.0690 N.am  398  GLY398     -0.1942
     72  CA         4.5510   22.2860   25.0650 C.3   398  GLY398      0.2014
     73  C          3.7050   21.2660   25.8000 C.2   398  GLY398      0.2639
     74  O          2.4870   21.4090   25.9100 O.2   398  GLY398     -0.2714
     75  N          4.3620   20.2340   26.3150 N.am  399  VAL399     -0.1963
     76  CA         3.6780   19.1710   27.0390 C.3   399  VAL399      0.1727
     77  C          3.2890   19.6020   28.4520 C.2   399  VAL399      0.2616
     78  O          4.1460   19.9640   29.2610 O.2   399  VAL399     -0.2715
     79  CB         4.5500   17.9020   27.1230 C.3   399  VAL399      0.0290
     80  CG1        3.9730   16.9170   28.1330 C.3   399  VAL399      0.0023
     81  CG2        4.6890   17.2590   25.7470 C.3   399  VAL399      0.0023
     82  N          1.9850   19.5850   28.7210 N.am  400  GLU400     -0.1963
     83  CA         1.4290   19.7480   30.0670 C.3   400  GLU400      0.1733
     84  C          1.6840   21.1050   30.7330 C.2   400  GLU400      0.2616
     85  O          1.2000   21.3480   31.8400 O.2   400  GLU400     -0.2715
     86  CB         1.9550   18.6380   30.9850 C.3   400  GLU400      0.0429
     87  CG         1.1520   18.3340   32.1900 C.3   400  GLU400      0.1163
     88  CD         1.7800   17.2130   33.0470 C.2   400  GLU400      0.3649
     89  OE1        2.8510   16.6920   32.6290 O.co2 400  GLU400     -0.2457
     90  OE2        1.2130   16.8840   34.1340 O.co2 400  GLU400     -0.2457
     91  N          2.4300   21.9870   30.0770 N.am  401  LEU401     -0.1963
     92  CA         2.6930   23.3050   30.6470 C.3   401  LEU401      0.1728
     93  C          1.7720   24.3620   30.0530 C.2   401  LEU401      0.2616
     94  O          1.2890   24.2170   28.9310 O.2   401  LEU401     -0.2715
     95  CB         4.1510   23.7100   30.4350 C.3   401  LEU401      0.0311
     96  CG         5.2090   22.8240   31.0900 C.3   401  LEU401      0.0022
     97  CD1        6.5770   23.4830   31.0220 C.3   401  LEU401      0.0001
     98  CD2        4.8240   22.5210   32.5230 C.3   401  LEU401      0.0001
     99  N          1.5370   25.4260   30.8150 N.am  402  ARG402     -0.1963
    100  CA         0.6690   26.5130   30.3760 C.3   402  ARG402      0.1729
    101  C          1.4150   27.4880   29.4700 C.2   402  ARG402      0.2616
    102  O          1.2390   27.4770   28.2510 O.2   402  ARG402     -0.2715
    103  CB         0.0920   27.2570   31.5840 C.3   402  ARG402      0.0348
    104  CG        -0.9620   26.5200   32.3650 C.3   402  ARG402      0.0492
    105  CD        -1.7030   27.4830   33.2790 C.3   402  ARG402      0.2205
    106  NE        -0.7940   28.2710   34.1150 N.pl3 402  ARG402     -0.0865
    107  CZ        -0.2190   27.8280   35.2330 C.cat 402  ARG402      0.5346
    108  NH1       -0.4570   26.5960   35.6620 N.pl3 402  ARG402      0.1354
    109  NH2        0.5990   28.6150   35.9240 N.pl3 402  ARG402      0.1354
    110  N          2.2460   28.3290   30.0750 N.am  403  ASN403     -0.1958
    111  CA         2.9970   29.3290   29.3270 C.3   403  ASN403      0.1819
    112  C          4.4780   28.9790   29.2160 C.2   403  ASN403      0.2621
    113  O          4.9320   27.9680   29.7550 O.2   403  ASN403     -0.2715
    114  CB         2.8270   30.7060   29.9730 C.3   403  ASN403      0.1195
    115  CG         3.1720   30.7080   31.4530 C.2   403  ASN403      0.2630
    116  OD1        4.2310   30.2290   31.8600 O.2   403  ASN403     -0.2716
    117  ND2        2.2710   31.2460   32.2660 N.am  403  ASN403     -0.0877
    118  N          5.2290   29.8250   28.5160 N.am  404  ASP404     -0.1971
    119  CA         6.6530   29.5930   28.3110 C.3   404  ASP404      0.1709
    120  C          7.4650   29.9610   29.5510 C.2   404  ASP404      0.2293
    121  O          8.5920   29.4980   29.7200 O.2   404  ASP404     -0.2864
    122  CB         7.1550   30.3830   27.1010 C.3   404  ASP404      0.1436
    123  CG         6.3440   30.1090   25.8480 C.2   404  ASP404      0.3671
    124  OD1        5.4420   29.2490   25.9000 O.co2 404  ASP404     -0.2456
    125  OD2        6.6170   30.7470   24.8080 O.co2 404  ASP404     -0.2456
    126  N          8.0340   27.0550   31.4300 N.3   407  GLY407     -0.1225
    127  CA         8.9540   26.2400   30.6650 C.3   407  GLY407      0.1811
    128  C         10.4020   26.6010   30.9220 C.2   407  GLY407      0.2280
    129  O         11.2400   25.7220   31.1080 O.2   407  GLY407     -0.2866
    130  N         11.5900   25.6070   34.3690 N.3   410  HIS410     -0.1226
    131  CA        11.8410   24.1740   34.3120 C.3   410  HIS410      0.1752
    132  C         13.2340   23.8990   33.7510 C.2   410  HIS410      0.2595
    133  O         13.9890   23.0960   34.3030 O.2   410  HIS410     -0.2718
    134  CB        10.7690   23.4820   33.4640 C.3   410  HIS410      0.0759
    135  CG        11.1070   22.0740   33.0820 C.ar  410  HIS410      0.0818
    136  ND1       10.5080   20.9810   33.6690 N.ar  410  HIS410     -0.2268
    137  CD2       11.9690   21.5800   32.1610 C.ar  410  HIS410      0.1154
    138  CE1       10.9900   19.8750   33.1320 C.ar  410  HIS410      0.1986
    139  NE2       11.8790   20.2110   32.2160 N.ar  410  HIS410     -0.2212
    140  N         13.5690   24.5680   32.6510 N.am  411  GLU411     -0.1979
    141  CA        14.8890   24.4260   32.0480 C.3   411  GLU411      0.1602
    142  C         15.9830   24.9050   32.9950 C.2   411  GLU411      0.2287
    143  O         17.0650   24.3280   33.0460 O.2   411  GLU411     -0.2864
    144  CB        14.9750   25.2020   30.7330 C.3   411  GLU411      0.0415
    145  CG        13.9060   24.8530   29.7090 C.3   411  GLU411      0.1163
    146  CD        13.9800   23.4190   29.2390 C.2   411  GLU411      0.3649
    147  OE1       12.9890   22.9400   28.6510 O.co2 411  GLU411     -0.2457
    148  OE2       15.0250   22.7710   29.4540 O.co2 411  GLU411     -0.2457
    149  N         17.1450   22.4370   35.4060 N.3   414  HIS414     -0.1241
    150  CA        18.1610   21.5570   34.8500 C.3   414  HIS414      0.1621
    151  C         19.5590   22.1170   35.0710 C.2   414  HIS414      0.2264
    152  O         20.4980   21.3740   35.3500 O.2   414  HIS414     -0.2867
    153  CB        17.9170   21.3410   33.3620 C.3   414  HIS414      0.0745
    154  CG        17.0090   20.1940   33.0610 C.ar  414  HIS414      0.0817
    155  ND1       16.9820   19.0500   33.8270 N.ar  414  HIS414     -0.2268
    156  CD2       16.0960   20.0130   32.0780 C.ar  414  HIS414      0.1154
    157  CE1       16.0930   18.2110   33.3280 C.ar  414  HIS414      0.1986
    158  NE2       15.5430   18.7710   32.2660 N.ar  414  HIS414     -0.2212
    159  N          4.9340   13.9680   33.2370 N.3   452  TYR452     -0.1241
    160  CA         6.2160   14.0040   32.5460 C.3   452  TYR452      0.1605
    161  C          7.3730   13.9010   33.5340 C.2   452  TYR452      0.2264
    162  O          8.4820   13.5150   33.1660 O.2   452  TYR452     -0.2867
    163  CB         6.3580   15.2720   31.6990 C.3   452  TYR452      0.0534
    164  CG         7.6080   15.2480   30.8540 C.ar  452  TYR452     -0.0201
    165  CD1        7.6550   14.5110   29.6780 C.ar  452  TYR452     -0.0009
    166  CD2        8.7500   15.9320   31.2450 C.ar  452  TYR452     -0.0009
    167  CE1        8.8020   14.4670   28.9070 C.ar  452  TYR452      0.0417
    168  CE2        9.9020   15.8940   30.4820 C.ar  452  TYR452      0.0417
    169  CZ         9.9230   15.1610   29.3140 C.ar  452  TYR452      0.1957
    170  OH        11.0680   15.1180   28.5520 O.3   452  TYR452     -0.2866
    171  N         14.4080   14.7940   34.8250 N.3   459  GLU459     -0.1245
    172  CA        13.1080   15.3840   34.5270 C.3   459  GLU459      0.1567
    173  C         12.2840   15.6050   35.7870 C.2   459  GLU459      0.2260
    174  O         11.6440   16.6440   35.9460 O.2   459  GLU459     -0.2867
    175  CB        12.3310   14.5000   33.5490 C.3   459  GLU459      0.0388
    176  CG        13.0410   14.2620   32.2280 C.3   459  GLU459      0.1160
    177  CD        13.2230   15.5360   31.4330 C.2   459  GLU459      0.3649
    178  OE1       12.5830   16.5440   31.7900 O.co2 459  GLU459     -0.2457
    179  OE2       14.0000   15.5300   30.4540 O.co2 459  GLU459     -0.2457
    180  N         10.8350   19.2410   37.0030 N.3   463  GLU463     -0.1245
    181  CA         9.4160   19.4630   37.2740 C.3   463  GLU463      0.1567
    182  C          9.1800   19.8520   38.7320 C.2   463  GLU463      0.2260
    183  O          8.3970   20.7580   39.0210 O.2   463  GLU463     -0.2867
    184  CB         8.5990   18.2180   36.9240 C.3   463  GLU463      0.0388
    185  CG         8.4310   17.9890   35.4330 C.3   463  GLU463      0.1160
    186  CD         7.5330   19.0260   34.7840 C.2   463  GLU463      0.3649
    187  OE1        6.3520   18.7140   34.5240 O.co2 463  GLU463     -0.2457
    188  OE2        8.0050   20.1550   34.5350 O.co2 463  GLU463     -0.2457
@<TRIPOS>BOND
     1     8     9    1
     2    10    11    2
     3    10     9    1
     4     9    12    1
     5    15    16    1
     6    62    63    1
     7    18    17    2
     8     1     2    1
     9    12    14    1
    10    12    13    1
    11    66    63    1
    12    66    67    1
    13    16    17    1
    14    16    19    1
    15    63    64    1
    16    17    21   am
    17    57    56    2
    18    65    64    2
    19     2     3    1
    20     2     5    1
    21    56    55    1
    22     6     5    1
    23    67    68    1
    24     3     4    2
    25    64    71   am
    26    21    22    1
    27    19    20    1
    28    68    69    1
    29    22    23    1
    30    22    25    1
    31    29    28    1
    32     5     7    1
    33    41    39    1
    34    24    23    2
    35    27    28    1
    36    27    26    1
    37    23    30   am
    38    54    55    1
    39    55    58    1
    40    25    26    1
    41    71    72    1
    42    69    70    1
    43    30    31    1
    44   125   123   ar
    45    39    38    1
    46    39    40    1
    47    38    35    1
    48    58    59    1
    49    72    73    1
    50    31    32    1
    51    59    61    1
    52    59    60    1
    53    33    32    2
    54    32    34   am
    55    81    79    1
    56    73    74    2
    57    73    75   am
    58   123   124   ar
    59   123   122    1
    60    34    35    1
    61    75    76    1
    62    35    36    1
    63    76    79    1
    64    76    77    1
    65   122   119    1
    66    79    80    1
    67    37    36    2
    68    36    42   am
    69    42    43    1
    70    44    45    2
    71    44    43    1
    72   102   101    2
    73   119   118    1
    74   119   120    1
    75    77    82   am
    76    77    78    2
    77   118   112   am
    78    43    46    1
    79   170   169    1
    80   147   146   ar
    81    82    83    1
    82   167   169   ar
    83   167   165   ar
    84    94    93    2
    85   112   111    1
    86   112   113    2
    87   146   148   ar
    88   146   145    1
    89   169   168   ar
    90   111   114    1
    91   111   110    1
    92   101   110   am
    93   101   100    1
    94   120   121    2
    95   165   164   ar
    96   145   144    1
    97   114   115    1
    98    93    92    1
    99    93    99   am
   100    46    47    1
   101    83    84    1
   102    83    86    1
   103    91    92    1
   104    91    84   am
   105   100    99    1
   106   100   103    1
   107    95    92    1
   108    95    96    1
   109   179   177   ar
   110   168   166   ar
   111   127   128    1
   112   127   126    1
   113    47    48   ar
   114    47    49   ar
   115    48    50   ar
   116    84    85    2
   117   144   141    1
   118   164   166   ar
   119   164   163    1
   120   128   129    2
   121    86    87    1
   122    97    96    1
   123    96    98    1
   124    49    51   ar
   125    50    52   ar
   126   177   178   ar
   127   177   176    1
   128   115   116    2
   129   115   117   am
   130   103   104    1
   131   163   160    1
   132    51    52   ar
   133    52    53    1
   134   141   140    1
   135   141   142    1
   136   156   158   ar
   137   156   154   ar
   138   137   139   ar
   139   137   135   ar
   140    87    88    1
   141   139   138   ar
   142   176   175    1
   143   158   157   ar
   144   104   105    1
   145   160   159    1
   146   160   161    1
   147    89    88   ar
   148   140   132   am
   149   142   143    2
   150    88    90   ar
   151   154   153    1
   152   154   155   ar
   153   135   134    1
   154   135   136   ar
   155   138   136   ar
   156   162   161    2
   157   105   106    1
   158   157   155   ar
   159   153   150    1
   160   134   131    1
   161   175   172    1
   162   132   133    2
   163   132   131    1
   164   106   107    2
   165   131   130    1
   166   187   186   ar
   167   172   171    1
   168   172   173    1
   169   188   186   ar
   170   186   185    1
   171   150   151    1
   172   150   149    1
   173   151   152    2
   174   107   108    1
   175   107   109    1
   176   185   184    1
   177   173   174    2
   178   184   181    1
   179   180   181    1
   180   181   182    1
   181   182   183    2
