@<TRIPOS>MOLECULE
tmp/4xmaA00.pdb
 105 101 0 0 0
SMALL
GASTEIGER

@<TRIPOS>ATOM
      1  N          5.3600   25.8300  -29.9510 N.3   212  TYR212     -0.1227
      2  CA         6.6090   26.5540  -29.8740 C.3   212  TYR212      0.1736
      3  C          6.3220   28.0420  -29.6630 C.2   212  TYR212      0.2596
      4  O          5.4900   28.6280  -30.3500 O.2   212  TYR212     -0.2718
      5  CB         7.4230   26.3480  -31.1550 C.3   212  TYR212      0.0548
      6  CG         8.8980   26.7350  -31.0360 C.ar  212  TYR212     -0.0200
      7  CD1        9.2940   28.0640  -31.0610 C.ar  212  TYR212     -0.0009
      8  CD2        9.8870   25.7600  -30.8950 C.ar  212  TYR212     -0.0009
      9  CE1       10.6480   28.4240  -30.9620 C.ar  212  TYR212      0.0417
     10  CE2       11.2360   26.1040  -30.7870 C.ar  212  TYR212      0.0417
     11  CZ        11.6100   27.4420  -30.8240 C.ar  212  TYR212      0.1957
     12  OH        12.9390   27.7930  -30.7150 O.3   212  TYR212     -0.2866
     13  N          7.0210   28.6420  -28.7120 N.am  213  THR213     -0.1953
     14  CA         6.8220   30.0510  -28.3930 C.3   213  THR213      0.1897
     15  C          7.8630   30.9050  -29.1050 C.2   213  THR213      0.2313
     16  O          9.0580   30.7770  -28.8370 O.2   213  THR213     -0.2863
     17  CB         6.9170   30.2610  -26.8730 C.3   213  THR213      0.1794
     18  OG1        5.9400   29.4310  -26.2350 O.3   213  THR213     -0.2208
     19  CG2        6.6760   31.7400  -26.4960 C.3   213  THR213      0.0378
     20  N          9.5530   20.0560  -30.9510 N.3   456  GLN456     -0.1245
     21  CA        10.3620   21.2480  -31.1300 C.3   456  GLN456      0.1566
     22  C         11.7790   20.8700  -31.5290 C.2   456  GLN456      0.2260
     23  O         12.3360   19.8800  -31.0410 O.2   456  GLN456     -0.2867
     24  CB        10.4360   22.0430  -29.8280 C.3   456  GLN456      0.0367
     25  CG         9.1020   22.3580  -29.1700 C.3   456  GLN456      0.0905
     26  CD         9.2760   23.1750  -27.8850 C.2   456  GLN456      0.2608
     27  OE1       10.3740   23.2390  -27.3140 O.2   456  GLN456     -0.2717
     28  NE2        8.1930   23.8060  -27.4290 N.am  456  GLN456     -0.0878
     29  N         15.6880   22.6980  -31.3590 N.3   458  LEU458     -0.1231
     30  CA        16.3040   23.4660  -30.2850 C.3   458  LEU458      0.1693
     31  C         17.1490   24.5760  -30.8660 C.2   458  LEU458      0.2591
     32  O         17.9850   24.3460  -31.7370 O.2   458  LEU458     -0.2718
     33  CB        17.1660   22.5730  -29.3940 C.3   458  LEU458      0.0284
     34  CG        18.0090   23.2360  -28.2950 C.3   458  LEU458      0.0019
     35  CD1       17.1360   23.7920  -27.1630 C.3   458  LEU458      0.0001
     36  CD2       19.0280   22.2460  -27.7540 C.3   458  LEU458      0.0001
     37  N         16.8900   25.7890  -30.4040 N.am  459  ALA459     -0.1980
     38  CA        17.7160   26.9420  -30.7340 C.3   459  ALA459      0.1597
     39  C         18.6020   27.2440  -29.5330 C.2   459  ALA459      0.2287
     40  O         18.1070   27.5640  -28.4620 O.2   459  ALA459     -0.2864
     41  CB        16.8290   28.1490  -31.0600 C.3   459  ALA459      0.0319
     42  N         10.5820   20.8090  -21.8140 N.3   558  ILE558     -0.1231
     43  CA        11.0560   22.1840  -21.9230 C.3   558  ILE558      0.1692
     44  C         11.8670   22.6010  -20.7090 C.2   558  ILE558      0.2591
     45  O         11.7250   22.0280  -19.6300 O.2   558  ILE558     -0.2718
     46  CB         9.9020   23.1920  -22.0440 C.3   558  ILE558      0.0266
     47  CG1        9.0110   23.1030  -20.8000 C.3   558  ILE558      0.0019
     48  CG2        9.1390   22.9800  -23.3520 C.3   558  ILE558      0.0020
     49  CD1        7.8110   24.0530  -20.8100 C.3   558  ILE558      0.0001
     50  N         12.7050   23.6120  -20.9100 N.am  559  LYS559     -0.1980
     51  CA        13.3820   24.2940  -19.8220 C.3   559  LYS559      0.1596
     52  C         12.5300   25.5010  -19.4390 C.2   559  LYS559      0.2287
     53  O         12.2960   26.3880  -20.2610 O.2   559  LYS559     -0.2864
     54  CB        14.7800   24.7470  -20.2770 C.3   559  LYS559      0.0298
     55  CG        15.5100   25.6810  -19.3070 C.3   559  LYS559      0.0038
     56  CD        16.2420   24.8850  -18.2500 C.3   559  LYS559      0.0206
     57  CE        16.8670   25.8050  -17.2200 C.3   559  LYS559      0.1093
     58  NZ        17.9140   26.6630  -17.8270 N.3   559  LYS559     -0.1314
     59  N         11.5620   29.0600  -17.8130 N.3   561  SER561     -0.1217
     60  CA        12.3950   30.2770  -17.7360 C.3   561  SER561      0.1889
     61  C         12.6670   30.7680  -16.3080 C.2   561  SER561      0.2288
     62  O         13.6740   31.4440  -16.0690 O.2   561  SER561     -0.2866
     63  CB        11.7970   31.4290  -18.5570 C.3   561  SER561      0.2089
     64  OG        10.6900   32.0060  -17.8780 O.3   561  SER561     -0.2183
     65  N          4.6810   24.0780  -24.0730 N.3   619  THR619     -0.1203
     66  CA         5.5100   25.2590  -24.2340 C.3   619  THR619      0.1994
     67  C          5.2390   26.2490  -23.1100 C.2   619  THR619      0.2618
     68  O          4.1270   26.2970  -22.5680 O.2   619  THR619     -0.2717
     69  CB         5.3240   25.9240  -25.6270 C.3   619  THR619      0.1784
     70  OG1        6.4570   26.7590  -25.9250 O.3   619  THR619     -0.2211
     71  CG2        4.0300   26.7470  -25.6740 C.3   619  THR619      0.0376
     72  N          6.2750   26.9850  -22.7260 N.am  620  GLU620     -0.1965
     73  CA         6.1140   28.0900  -21.8050 C.3   620  GLU620      0.1733
     74  C          5.5470   29.2660  -22.5960 C.2   620  GLU620      0.2616
     75  O          6.1610   29.7460  -23.5620 O.2   620  GLU620     -0.2715
     76  CB         7.4430   28.4660  -21.1210 C.3   620  GLU620      0.0429
     77  CG         7.2650   29.5720  -20.0710 C.3   620  GLU620      0.1163
     78  CD         8.5540   29.9420  -19.3350 C.2   620  GLU620      0.3649
     79  OE1        9.5850   29.2500  -19.4910 O.co2 620  GLU620     -0.2457
     80  OE2        8.5300   30.9440  -18.5960 O.co2 620  GLU620     -0.2457
     81  N          4.3450   29.6840  -22.2170 N.am  621  LEU621     -0.1964
     82  CA         3.6850   30.8100  -22.8610 C.3   621  LEU621      0.1713
     83  C          4.4260   32.0820  -22.4570 C.2   621  LEU621      0.2458
     84  O          5.1570   32.0740  -21.4700 O.2   621  LEU621     -0.2730
     85  CB         2.2180   30.8480  -22.4320 C.3   621  LEU621      0.0310
     86  CG         1.5140   29.5130  -22.7880 C.3   621  LEU621      0.0022
     87  CD1        0.1600   29.3860  -22.1330 C.3   621  LEU621      0.0001
     88  CD2        1.3840   29.3390  -24.3000 C.3   621  LEU621      0.0001
     89  N          4.2510   33.1760  -23.2100 N.am  622  PRO622     -0.2727
     90  CA         4.9840   34.3970  -22.8480 C.3   622  PRO622      0.1402
     91  C          4.6420   34.9520  -21.4600 C.2   622  PRO622      0.2269
     92  O          5.4290   35.7370  -20.9240 O.2   622  PRO622     -0.2865
     93  CB         4.5600   35.3840  -23.9340 C.3   622  PRO622      0.0296
     94  CG         4.2300   34.5140  -25.1070 C.3   622  PRO622      0.0237
     95  CD         3.5730   33.3110  -24.5100 C.3   622  PRO622      0.0939
     96  N          4.3620   33.1290  -18.8330 N.3   624  HIS624     -0.1241
     97  CA         4.8730   32.0930  -17.9260 C.3   624  HIS624      0.1621
     98  C          3.8650   31.0150  -17.4910 C.2   624  HIS624      0.2264
     99  O          4.1650   30.2120  -16.6180 O.2   624  HIS624     -0.2867
    100  CB         5.6250   32.6960  -16.7180 C.3   624  HIS624      0.0745
    101  CG         6.6460   33.7230  -17.1010 C.ar  624  HIS624      0.0817
    102  ND1        7.6420   33.4710  -18.0200 N.ar  624  HIS624     -0.2268
    103  CD2        6.8140   35.0080  -16.7050 C.ar  624  HIS624      0.1154
    104  CE1        8.3850   34.5550  -18.1680 C.ar  624  HIS624      0.1986
    105  NE2        7.9040   35.5020  -17.3800 N.ar  624  HIS624     -0.2212
@<TRIPOS>BOND
     1    32    31    2
     2    22    21    1
     3    22    23    2
     4    29    30    1
     5     5     6    1
     6     5     2    1
     7    21    20    1
     8    21    24    1
     9     7     6   ar
    10     7     9   ar
    11    41    38    1
    12     6     8   ar
    13     9    11   ar
    14     8    10   ar
    15    31    37   am
    16    31    30    1
    17    11    10   ar
    18    11    12    1
    19    38    37    1
    20    38    39    1
    21     4     3    2
    22    30    33    1
    23     1     2    1
    24     2     3    1
    25    24    25    1
    26     3    13   am
    27    39    40    2
    28    33    34    1
    29    25    26    1
    30    15    16    2
    31    15    14    1
    32    13    14    1
    33    14    17    1
    34    34    36    1
    35    34    35    1
    36    26    28   am
    37    26    27    2
    38    17    19    1
    39    17    18    1
    40    70    69    1
    41    71    69    1
    42    69    66    1
    43    94    95    1
    44    94    93    1
    45    95    89    1
    46    88    86    1
    47    66    65    1
    48    66    67    1
    49    93    90    1
    50    75    74    2
    51    48    46    1
    52    89    90    1
    53    89    83   am
    54    67    72   am
    55    67    68    2
    56    82    83    1
    57    82    85    1
    58    82    81    1
    59    90    91    1
    60    86    85    1
    61    86    87    1
    62    72    73    1
    63    74    81   am
    64    74    73    1
    65    83    84    2
    66    46    43    1
    67    46    47    1
    68    43    42    1
    69    43    44    1
    70    73    76    1
    71    91    92    2
    72    76    77    1
    73    50    44   am
    74    50    51    1
    75    49    47    1
    76    44    45    2
    77    54    51    1
    78    54    55    1
    79    53    52    2
    80    77    78    1
    81    51    52    1
    82    79    78   ar
    83    78    80   ar
    84    55    56    1
    85    96    97    1
    86    63    64    1
    87    63    60    1
    88    56    57    1
    89   104   102   ar
    90   104   105   ar
    91   102   101   ar
    92    97    98    1
    93    97   100    1
    94    58    57    1
    95    59    60    1
    96    60    61    1
    97    98    99    2
    98   105   103   ar
    99   101   100    1
   100   101   103   ar
   101    61    62    2
