@<TRIPOS>MOLECULE
tmp/4xmbA00.pdb
 165 155 0 0 0
SMALL
GASTEIGER

@<TRIPOS>ATOM
      1  N          3.8790   10.0920  -21.5260 N.3    11  TYR11      -0.1241
      2  CA         5.2520    9.8540  -21.9490 C.3    11  TYR11       0.1605
      3  C          5.5690   10.3700  -23.3480 C.2    11  TYR11       0.2264
      4  O          4.8210   10.1400  -24.3000 O.2    11  TYR11      -0.2867
      5  CB         5.5910    8.3650  -21.8710 C.3    11  TYR11       0.0534
      6  CG         6.9770    8.0400  -22.3830 C.ar   11  TYR11      -0.0201
      7  CD1        8.0650    8.0000  -21.5210 C.ar   11  TYR11      -0.0009
      8  CD2        7.2000    7.7870  -23.7300 C.ar   11  TYR11      -0.0009
      9  CE1        9.3330    7.7100  -21.9840 C.ar   11  TYR11       0.0417
     10  CE2        8.4650    7.4950  -24.2010 C.ar   11  TYR11       0.0417
     11  CZ         9.5280    7.4580  -23.3240 C.ar   11  TYR11       0.1957
     12  OH        10.7910    7.1700  -23.7890 O.3    11  TYR11      -0.2866
     13  N          4.8610    8.3390  -16.1490 N.3    40  SER40      -0.1202
     14  CA         4.1240    7.7210  -17.2410 C.3    40  SER40       0.2020
     15  C          3.5380    6.4080  -16.7500 C.2    40  SER40       0.2619
     16  O          3.9650    5.8760  -15.7260 O.2    40  SER40      -0.2717
     17  CB         5.0390    7.4660  -18.4370 C.3    40  SER40       0.2103
     18  OG         6.0420    6.5210  -18.1110 O.3    40  SER40      -0.2182
     19  N          2.5610    5.8860  -17.4780 N.am   41  GLY41      -0.1956
     20  CA         1.9350    4.6340  -17.1020 C.3    41  GLY41       0.1869
     21  C          1.2910    4.7080  -15.7320 C.2    41  GLY41       0.2309
     22  O          1.2160    3.7070  -15.0190 O.2    41  GLY41      -0.2863
     23  N          5.6280    5.6300  -13.6080 N.3    57  ARG57      -0.1245
     24  CA         7.0790    5.5830  -13.7130 C.3    57  ARG57       0.1563
     25  C          7.6510    6.9890  -13.8520 C.2    57  ARG57       0.2260
     26  O          7.2930    7.7250  -14.7690 O.2    57  ARG57      -0.2867
     27  CB         7.5020    4.7270  -14.9070 C.3    57  ARG57       0.0307
     28  CG         9.0050    4.5090  -15.0110 C.3    57  ARG57       0.0489
     29  CD         9.3620    3.6930  -16.2410 C.3    57  ARG57       0.2205
     30  NE         9.1640    4.4530  -17.4710 N.pl3  57  ARG57      -0.0865
     31  CZ         9.2870    3.9430  -18.6920 C.cat  57  ARG57       0.5346
     32  NH1        9.6030    2.6650  -18.8510 N.pl3  57  ARG57       0.1354
     33  NH2        9.0890    4.7110  -19.7560 N.pl3  57  ARG57       0.1354
     34  N          4.0030    0.3360  -11.5010 N.3    91  ASN91      -0.1225
     35  CA         4.0310    0.9170  -12.8380 C.3    91  ASN91       0.1785
     36  C          3.0300    0.2120  -13.7420 C.2    91  ASN91       0.2597
     37  O          2.7230   -0.9610  -13.5350 O.2    91  ASN91      -0.2718
     38  CB         5.4340    0.8260  -13.4410 C.3    91  ASN91       0.1169
     39  CG         5.5280    1.5000  -14.7980 C.2    91  ASN91       0.2627
     40  OD1        4.8480    2.4940  -15.0600 O.2    91  ASN91      -0.2716
     41  ND2        6.3720    0.9570  -15.6710 N.am   91  ASN91      -0.0877
     42  N          2.5300    0.9250  -14.7450 N.am   92  ARG92      -0.1979
     43  CA         1.5160    0.3700  -15.6320 C.3    92  ARG92       0.1597
     44  C          0.3360   -0.0890  -14.7900 C.2    92  ARG92       0.2287
     45  O         -0.1200   -1.2280  -14.8850 O.2    92  ARG92      -0.2864
     46  CB         2.1020   -0.7720  -16.4600 C.3    92  ARG92       0.0334
     47  CG         3.2210   -0.3040  -17.3830 C.3    92  ARG92       0.0492
     48  CD         3.9130   -1.4490  -18.0930 C.3    92  ARG92       0.2205
     49  NE         5.0130   -0.9690  -18.9240 N.pl3  92  ARG92      -0.0865
     50  CZ         5.8730   -1.7600  -19.5570 C.cat  92  ARG92       0.5346
     51  NH1        5.7670   -3.0780  -19.4550 N.pl3  92  ARG92       0.1354
     52  NH2        6.8430   -1.2320  -20.2910 N.pl3  92  ARG92       0.1354
     53  N         -0.0760   -6.5450  -15.2730 N.3   138  ILE138     -0.1231
     54  CA         0.4810   -5.2130  -15.4770 C.3   138  ILE138      0.1692
     55  C         -0.0540   -4.6650  -16.7930 C.2   138  ILE138      0.2592
     56  O         -0.2070   -5.4050  -17.7630 O.2   138  ILE138     -0.2718
     57  CB         2.0260   -5.2040  -15.4920 C.3   138  ILE138      0.0266
     58  CG1        2.5540   -5.2340  -16.9270 C.3   138  ILE138      0.0019
     59  CG2        2.5800   -6.3510  -14.6600 C.3   138  ILE138      0.0020
     60  CD1        4.0360   -4.9810  -17.0280 C.3   138  ILE138      0.0001
     61  N         -0.3430   -3.3710  -16.8230 N.am  139  GLY139     -0.1957
     62  CA        -0.9900   -2.7780  -17.9780 C.3   139  GLY139      0.1869
     63  C         -2.4530   -3.1750  -17.9840 C.2   139  GLY139      0.2309
     64  O         -3.0980   -3.2390  -19.0320 O.2   139  GLY139     -0.2863
     65  N         -0.6800   -8.2440  -18.5570 N.3   155  PHE155     -0.1241
     66  CA         0.4650   -9.0900  -18.8550 C.3   155  PHE155      0.1605
     67  C          0.9510   -9.7270  -17.5590 C.2   155  PHE155      0.2264
     68  O          1.3570   -9.0270  -16.6310 O.2   155  PHE155     -0.2867
     69  CB         1.5710   -8.2520  -19.5000 C.3   155  PHE155      0.0534
     70  CG         2.7790   -9.0420  -19.9140 C.ar  155  PHE155     -0.0203
     71  CD1        2.6820  -10.0320  -20.8780 C.ar  155  PHE155     -0.0042
     72  CD2        4.0200   -8.7750  -19.3590 C.ar  155  PHE155     -0.0042
     73  CE1        3.7950  -10.7530  -21.2670 C.ar  155  PHE155     -0.0003
     74  CE2        5.1380   -9.4910  -19.7440 C.ar  155  PHE155     -0.0003
     75  CZ         5.0250  -10.4820  -20.6990 C.ar  155  PHE155     -0.0000
     76  N          0.4640  -12.2620  -22.5860 N.3   160  ARG160     -0.1245
     77  CA        -0.5460  -11.2180  -22.6070 C.3   160  ARG160      0.1563
     78  C         -1.9000  -11.8630  -22.3300 C.2   160  ARG160      0.2260
     79  O         -2.1360  -13.0100  -22.7090 O.2   160  ARG160     -0.2867
     80  CB        -0.5430  -10.5040  -23.9570 C.3   160  ARG160      0.0307
     81  CG        -0.8050   -9.0150  -23.8630 C.3   160  ARG160      0.0489
     82  CD        -0.0320   -8.2630  -24.9300 C.3   160  ARG160      0.2205
     83  NE         1.4030   -8.5210  -24.8470 N.pl3 160  ARG160     -0.0865
     84  CZ         2.2350   -7.8710  -24.0400 C.cat 160  ARG160      0.5346
     85  NH1        1.7770   -6.9240  -23.2330 N.pl3 160  ARG160      0.1354
     86  NH2        3.5250   -8.1730  -24.0340 N.pl3 160  ARG160      0.1354
     87  N         -3.2890   -5.7770  -23.4250 N.3   185  SER185     -0.1202
     88  CA        -2.5900   -5.1180  -22.3280 C.3   185  SER185      0.2020
     89  C         -2.4740   -3.6380  -22.6750 C.2   185  SER185      0.2619
     90  O         -2.4660   -3.2740  -23.8500 O.2   185  SER185     -0.2717
     91  CB        -1.2080   -5.7330  -22.0870 C.3   185  SER185      0.2103
     92  OG        -0.3190   -5.4520  -23.1540 O.3   185  SER185     -0.2182
     93  N         -2.3990   -2.7850  -21.6620 N.am  186  GLY186     -0.1956
     94  CA        -2.3520   -1.3540  -21.8980 C.3   186  GLY186      0.1869
     95  C         -3.5720   -0.8900  -22.6700 C.2   186  GLY186      0.2309
     96  O         -3.4770   -0.0600  -23.5740 O.2   186  GLY186     -0.2863
     97  N         -2.7670   -3.7010  -26.6680 N.3   202  TYR202     -0.1241
     98  CA        -1.7140   -4.3880  -27.3970 C.3   202  TYR202      0.1605
     99  C         -1.9140   -5.8880  -27.2460 C.2   202  TYR202      0.2264
    100  O         -1.9150   -6.4110  -26.1320 O.2   202  TYR202     -0.2867
    101  CB        -0.3560   -3.9670  -26.8410 C.3   202  TYR202      0.0534
    102  CG         0.8330   -4.6230  -27.4970 C.ar  202  TYR202     -0.0201
    103  CD1        1.2620   -4.2240  -28.7540 C.ar  202  TYR202     -0.0009
    104  CD2        1.5440   -5.6220  -26.8460 C.ar  202  TYR202     -0.0009
    105  CE1        2.3570   -4.8130  -29.3540 C.ar  202  TYR202      0.0417
    106  CE2        2.6400   -6.2170  -27.4370 C.ar  202  TYR202      0.0417
    107  CZ         3.0420   -5.8070  -28.6910 C.ar  202  TYR202      0.1957
    108  OH         4.1340   -6.3950  -29.2850 O.3   202  TYR202     -0.2866
    109  N         -0.7380   -2.9020  -32.0010 N.3   207  GLN207     -0.1245
    110  CA        -1.6430   -2.0230  -31.2740 C.3   207  GLN207      0.1566
    111  C         -3.0350   -2.1860  -31.8610 C.2   207  GLN207      0.2260
    112  O         -3.1830   -2.4550  -33.0530 O.2   207  GLN207     -0.2867
    113  CB        -1.1960   -0.5640  -31.3620 C.3   207  GLN207      0.0367
    114  CG        -0.2760   -0.1280  -30.2350 C.3   207  GLN207      0.0905
    115  CD         1.1340   -0.6460  -30.3990 C.2   207  GLN207      0.2608
    116  OE1        1.4930   -1.1860  -31.4460 O.2   207  GLN207     -0.2717
    117  NE2        1.9470   -0.4810  -29.3640 N.am  207  GLN207     -0.0878
    118  N         -2.2900    1.8840  -27.9420 N.3   232  SER232     -0.1202
    119  CA        -2.1150    1.2310  -26.6500 C.3   232  SER232      0.2020
    120  C         -1.5330    2.2320  -25.6630 C.2   232  SER232      0.2618
    121  O         -0.8880    3.2000  -26.0640 O.2   232  SER232     -0.2717
    122  CB        -1.1980    0.0100  -26.7660 C.3   232  SER232      0.2103
    123  OG         0.1280    0.3890  -27.0940 O.3   232  SER232     -0.2182
    124  N         -1.7630    1.9990  -24.3760 N.am  233  ALA233     -0.1979
    125  CA        -1.3260    2.9310  -23.3420 C.3   233  ALA233      0.1597
    126  C         -2.1080    4.2360  -23.4500 C.2   233  ALA233      0.2287
    127  O         -1.5740    5.3190  -23.2090 O.2   233  ALA233     -0.2864
    128  CB         0.1680    3.1910  -23.4550 C.3   233  ALA233      0.0319
    129  N          0.0710    4.9990  -28.0960 N.3   249  TYR249     -0.1241
    130  CA         1.1280    4.6790  -29.0420 C.3   249  TYR249      0.1605
    131  C          0.5600    3.7520  -30.1100 C.2   249  TYR249      0.2264
    132  O         -0.0570    2.7390  -29.7870 O.2   249  TYR249     -0.2867
    133  CB         2.2890    4.0110  -28.3030 C.3   249  TYR249      0.0534
    134  CG         3.5250    3.7770  -29.1380 C.ar  249  TYR249     -0.0201
    135  CD1        4.2780    4.8440  -29.6120 C.ar  249  TYR249     -0.0009
    136  CD2        3.9530    2.4880  -29.4330 C.ar  249  TYR249     -0.0009
    137  CE1        5.4150    4.6340  -30.3720 C.ar  249  TYR249      0.0417
    138  CE2        5.0920    2.2690  -30.1910 C.ar  249  TYR249      0.0417
    139  CZ         5.8170    3.3460  -30.6560 C.ar  249  TYR249      0.1957
    140  OH         6.9470    3.1350  -31.4090 O.3   249  TYR249     -0.2866
    141  N          2.3870    2.3710  -32.6130 N.3   251  GLY251     -0.1225
    142  CA         3.4170    1.4960  -33.1370 C.3   251  GLY251      0.1811
    143  C          4.6070    2.2730  -33.6590 C.2   251  GLY251      0.2280
    144  O          5.7410    1.7980  -33.5970 O.2   251  GLY251     -0.2866
    145  N          3.6330    8.5350  -31.0200 N.3   254  PHE254     -0.1241
    146  CA         2.9020    8.8580  -29.8060 C.3   254  PHE254      0.1605
    147  C          1.7750    9.8160  -30.1620 C.2   254  PHE254      0.2264
    148  O          2.0130   10.9540  -30.5550 O.2   254  PHE254     -0.2867
    149  CB         3.8380    9.4530  -28.7570 C.3   254  PHE254      0.0534
    150  CG         4.8600    8.4770  -28.2480 C.ar  254  PHE254     -0.0203
    151  CD1        4.5770    7.6600  -27.1660 C.ar  254  PHE254     -0.0042
    152  CD2        6.0920    8.3590  -28.8630 C.ar  254  PHE254     -0.0042
    153  CE1        5.5120    6.7530  -26.6990 C.ar  254  PHE254     -0.0003
    154  CE2        7.0300    7.4540  -28.4010 C.ar  254  PHE254     -0.0003
    155  CZ         6.7400    6.6520  -27.3180 C.ar  254  PHE254     -0.0000
    156  N          1.8010    9.1400  -24.4970 N.3   279  SER279     -0.1202
    157  CA         1.1780    7.8760  -24.1240 C.3   279  SER279      0.2020
    158  C          1.2230    7.6670  -22.6140 C.2   279  SER279      0.2619
    159  O          1.8510    8.4390  -21.8880 O.2   279  SER279     -0.2717
    160  CB         1.8540    6.7030  -24.8410 C.3   279  SER279      0.2103
    161  OG         3.1950    6.5430  -24.4130 O.3   279  SER279     -0.2182
    162  N          0.5410    6.6280  -22.1450 N.am  280  GLY280     -0.1956
    163  CA         0.5470    6.2760  -20.7360 C.3   280  GLY280      0.1869
    164  C          0.1050    7.3660  -19.7740 C.2   280  GLY280      0.2309
    165  O          0.6720    7.5040  -18.6910 O.2   280  GLY280     -0.2863
@<TRIPOS>BOND
     1   143   144    2
     2   143   142    1
     3   142   141    1
     4   112   111    2
     5   109   110    1
     6   111   110    1
     7   116   115    2
     8   140   139    1
     9   113   110    1
    10   113   114    1
    11   145   146    1
    12   139   137   ar
    13   139   138   ar
    14   148   147    2
    15   115   114    1
    16   115   117   am
    17   137   135   ar
    18   138   136   ar
    19   147   146    1
    20   131   132    2
    21   131   130    1
    22   146   149    1
    23   135   134   ar
    24   136   134   ar
    25   105   103   ar
    26   105   107   ar
    27   108   107    1
    28   134   133    1
    29   130   133    1
    30   130   129    1
    31   152   154   ar
    32   152   150   ar
    33   149   150    1
    34   103   102   ar
    35   107   106   ar
    36   154   155   ar
    37   150   151   ar
    38   118   119    1
    39   102   104   ar
    40   102   101    1
    41   106   104   ar
    42    98    99    1
    43    98   101    1
    44    98    97    1
    45   155   153   ar
    46    99   100    2
    47   151   153   ar
    48   123   122    1
    49   122   119    1
    50   119   120    1
    51   121   120    2
    52   120   124   am
    53    82    83    1
    54    82    81    1
    55    83    84    2
    56   160   161    1
    57   160   157    1
    58   156   157    1
    59   124   125    1
    60     4     3    2
    61    10     8   ar
    62    10    11   ar
    63   157   158    1
    64    84    86    1
    65    84    85    1
    66    80    81    1
    67    80    77    1
    68    90    89    2
    69    12    11    1
    70     8     6   ar
    71    96    95    2
    72   128   125    1
    73   126   125    1
    74   126   127    2
    75    87    88    1
    76     3     2    1
    77    11     9   ar
    78    92    91    1
    79    79    78    2
    80    89    88    1
    81    89    93   am
    82    95    94    1
    83   158   162   am
    84   158   159    2
    85    77    76    1
    86    77    78    1
    87     6     5    1
    88     6     7   ar
    89    88    91    1
    90   162   163    1
    91     9     7   ar
    92     2     5    1
    93     2     1    1
    94    94    93    1
    95    73    71   ar
    96    73    75   ar
    97    71    70   ar
    98   163   164    1
    99    75    74   ar
   100    52    50    1
   101    70    69    1
   102    70    72   ar
   103   164   165    2
   104    33    31    1
   105    74    72   ar
   106    50    51    1
   107    50    49    2
   108    69    66    1
   109    64    63    2
   110    49    48    1
   111    66    65    1
   112    66    67    1
   113    32    31    1
   114    31    30    2
   115    17    18    1
   116    17    14    1
   117    48    47    1
   118    63    62    1
   119    62    61    1
   120    56    55    2
   121    67    68    2
   122    19    20    1
   123    19    15   am
   124    30    29    1
   125    47    46    1
   126    14    15    1
   127    14    13    1
   128    20    21    1
   129    60    58    1
   130    58    57    1
   131    61    55   am
   132    55    54    1
   133    15    16    2
   134    46    43    1
   135    29    28    1
   136    21    22    2
   137    41    39   am
   138    43    44    1
   139    43    42    1
   140    57    54    1
   141    57    59    1
   142    54    53    1
   143    40    39    2
   144    28    27    1
   145    27    24    1
   146    45    44    2
   147    39    38    1
   148    26    25    2
   149    42    36   am
   150    25    24    1
   151    36    37    2
   152    36    35    1
   153    24    23    1
   154    38    35    1
   155    35    34    1
