@<TRIPOS>MOLECULE
tmp/4xmhA01.pdb
 201 187 0 0 0
SMALL
GASTEIGER

@<TRIPOS>ATOM
      1  N         14.6730    1.9390    8.8550 N.3    27  GLU27      -0.1245
      2  CA        14.8750    1.4240   10.1960 C.3    27  GLU27       0.1567
      3  C         16.3630    1.4810   10.5400 C.2    27  GLU27       0.2260
      4  O         17.2030    1.0580    9.7480 O.2    27  GLU27      -0.2867
      5  CB        14.3360   -0.0070   10.2740 C.3    27  GLU27       0.0388
      6  CG        15.0000   -0.8930   11.3090 C.3    27  GLU27       0.1160
      7  CD        16.2930   -1.5110   10.7950 C.2    27  GLU27       0.3649
      8  OE1       16.3050   -2.0250    9.6530 O.co2  27  GLU27      -0.2457
      9  OE2       17.3030   -1.4420   11.5290 O.co2  27  GLU27      -0.2457
     10  N         15.8380   -1.9220   15.8050 N.3    30  TYR30      -0.1241
     11  CA        14.5380   -2.5280   16.0350 C.3    30  TYR30       0.1605
     12  C         14.5680   -3.4920   17.2040 C.2    30  TYR30       0.2264
     13  O         15.6150   -4.0250   17.5650 O.2    30  TYR30      -0.2867
     14  CB        13.9960   -3.2190   14.7750 C.3    30  TYR30       0.0534
     15  CG        14.8110   -4.3950   14.2810 C.ar   30  TYR30      -0.0201
     16  CD1       14.5830   -5.6830   14.7720 C.ar   30  TYR30      -0.0009
     17  CD2       15.8020   -4.2270   13.3220 C.ar   30  TYR30      -0.0009
     18  CE1       15.3160   -6.7750   14.3090 C.ar   30  TYR30       0.0417
     19  CE2       16.5390   -5.3100   12.8610 C.ar   30  TYR30       0.0417
     20  CZ        16.2970   -6.5770   13.3580 C.ar   30  TYR30       0.1957
     21  OH        17.0310   -7.6470   12.8900 O.3    30  TYR30      -0.2866
     22  N         16.4040  -13.5360   13.6900 N.3    39  GLU39      -0.1245
     23  CA        16.7640  -13.3310   12.2890 C.3    39  GLU39       0.1567
     24  C         17.1310  -11.8660   12.0780 C.2    39  GLU39       0.2260
     25  O         16.4430  -10.9820   12.5680 O.2    39  GLU39      -0.2867
     26  CB        15.5880  -13.6730   11.3690 C.3    39  GLU39       0.0388
     27  CG        15.2480  -15.1480   11.2530 C.3    39  GLU39       0.1160
     28  CD        14.1420  -15.4040   10.2370 C.2    39  GLU39       0.3649
     29  OE1       12.9620  -15.1200   10.5490 O.co2  39  GLU39      -0.2457
     30  OE2       14.4550  -15.8810    9.1230 O.co2  39  GLU39      -0.2457
     31  N         17.3050   -8.5620    9.8640 N.3    41  PHE41      -0.1241
     32  CA        16.6160   -7.9710    8.7240 C.3    41  PHE41       0.1605
     33  C         16.8940   -6.4810    8.6300 C.2    41  PHE41       0.2264
     34  O         17.1970   -5.8290    9.6330 O.2    41  PHE41      -0.2867
     35  CB        15.1030   -8.1730    8.8520 C.3    41  PHE41       0.0534
     36  CG        14.6090   -9.4650    8.2780 C.ar   41  PHE41      -0.0203
     37  CD1       14.8840  -10.6710    8.9030 C.ar   41  PHE41      -0.0042
     38  CD2       13.8510   -9.4760    7.1190 C.ar   41  PHE41      -0.0042
     39  CE1       14.4240  -11.8670    8.3690 C.ar   41  PHE41      -0.0003
     40  CE2       13.3880  -10.6660    6.5850 C.ar   41  PHE41      -0.0003
     41  CZ        13.6720  -11.8600    7.2110 C.ar   41  PHE41      -0.0000
     42  N         14.9390   -2.9200    6.9830 N.3    43  PHE43      -0.1241
     43  CA        13.5940   -2.4820    6.6130 C.3    43  PHE43       0.1605
     44  C         13.5980   -1.0150    6.2000 C.2    43  PHE43       0.2264
     45  O         14.2880   -0.1820    6.8000 O.2    43  PHE43      -0.2867
     46  CB        12.6270   -2.6850    7.7850 C.3    43  PHE43       0.0534
     47  CG        11.2550   -2.1030    7.5640 C.ar   43  PHE43      -0.0203
     48  CD1       10.2720   -2.8300    6.9060 C.ar   43  PHE43      -0.0042
     49  CD2       10.9400   -0.8310    8.0310 C.ar   43  PHE43      -0.0042
     50  CE1        9.0000   -2.2950    6.7060 C.ar   43  PHE43      -0.0003
     51  CE2        9.6740   -0.2950    7.8280 C.ar   43  PHE43      -0.0003
     52  CZ         8.6970   -1.0250    7.1680 C.ar   43  PHE43      -0.0000
     53  N         10.5690    1.9850    4.3310 N.3    45  PHE45      -0.1241
     54  CA         9.2230    2.1540    3.7870 C.3    45  PHE45       0.1605
     55  C          8.9320    3.5870    3.3760 C.2    45  PHE45       0.2264
     56  O          9.6580    4.5110    3.7460 O.2    45  PHE45      -0.2867
     57  CB         8.1140    1.5790    4.6970 C.3    45  PHE45       0.0534
     58  CG         7.7500    2.4070    5.9030 C.ar   45  PHE45      -0.0203
     59  CD1        6.4120    2.5470    6.2630 C.ar   45  PHE45      -0.0042
     60  CD2        8.7140    2.9470    6.7430 C.ar   45  PHE45      -0.0042
     61  CE1        6.0340    3.2660    7.4050 C.ar   45  PHE45      -0.0003
     62  CE2        8.3400    3.6640    7.8850 C.ar   45  PHE45      -0.0003
     63  CZ         7.0070    3.8150    8.2210 C.ar   45  PHE45      -0.0000
     64  N          1.0220    2.7230    1.8360 N.3    56  GLU56      -0.1245
     65  CA         2.4600    2.6800    2.0290 C.3    56  GLU56       0.1567
     66  C          3.0970    1.5480    1.2340 C.2    56  GLU56       0.2260
     67  O          2.4690    0.5160    0.9850 O.2    56  GLU56      -0.2867
     68  CB         2.8000    2.5700    3.5200 C.3    56  GLU56       0.0388
     69  CG         2.2450    1.3460    4.2300 C.3    56  GLU56       0.1160
     70  CD         2.4350    1.4280    5.7430 C.2    56  GLU56       0.3649
     71  OE1        2.9280    2.4760    6.2310 O.co2  56  GLU56      -0.2457
     72  OE2        2.0800    0.4560    6.4460 O.co2  56  GLU56      -0.2457
     73  N          6.3710   -1.0260    1.3260 N.3    58  LEU58      -0.1245
     74  CA         7.2870   -1.6070    2.2990 C.3    58  LEU58       0.1561
     75  C          8.4040   -2.3910    1.6140 C.2    58  LEU58       0.2260
     76  O          8.1790   -3.0250    0.5920 O.2    58  LEU58      -0.2867
     77  CB         6.5390   -2.5550    3.2390 C.3    58  LEU58       0.0270
     78  CG         5.2100   -2.1210    3.8560 C.3    58  LEU58       0.0019
     79  CD1        4.6610   -3.2200    4.7450 C.3    58  LEU58       0.0001
     80  CD2        5.3770   -0.8600    4.6750 C.3    58  LEU58       0.0001
     81  N         11.6100   -5.1380    2.7890 N.3    60  HIS60      -0.1241
     82  CA        12.3790   -5.8950    3.7820 C.3    60  HIS60       0.1621
     83  C         13.5190   -6.6260    3.0950 C.2    60  HIS60       0.2264
     84  O         13.3620   -7.1000    1.9610 O.2    60  HIS60      -0.2867
     85  CB        11.5480   -6.9920    4.4270 C.3    60  HIS60       0.0745
     86  CG        10.4530   -6.5240    5.3290 C.ar   60  HIS60       0.0817
     87  ND1        9.2920   -5.9400    4.8670 N.ar   60  HIS60      -0.2268
     88  CD2       10.3000   -6.6520    6.6660 C.ar   60  HIS60       0.1154
     89  CE1        8.4850   -5.7020    5.8820 C.ar   60  HIS60       0.1986
     90  NE2        9.0780   -6.1180    6.9820 N.ar   60  HIS60      -0.2212
     91  N         16.2400   -9.7740    4.0260 N.3    62  ASN62      -0.1240
     92  CA        16.7090  -10.8260    4.9130 C.3    62  ASN62       0.1653
     93  C         18.2190  -10.9110    4.7700 C.2    62  ASN62       0.2266
     94  O         18.7220  -11.3310    3.7270 O.2    62  ASN62      -0.2867
     95  CB        16.0430  -12.1480    4.5100 C.3    62  ASN62       0.1155
     96  CG        16.4140  -13.3070    5.4180 C.2    62  ASN62       0.2627
     97  OD1       17.5600  -13.4530    5.8330 O.2    62  ASN62      -0.2716
     98  ND2       15.4340  -14.1540    5.7160 N.am   62  ASN62      -0.0877
     99  N         11.8870   -8.7420    0.0070 N.3    69  PHE69      -0.1241
    100  CA        10.4880   -8.8030   -0.3760 C.3    69  PHE69       0.1605
    101  C          9.8130   -7.4490   -0.2640 C.2    69  PHE69       0.2264
    102  O         10.2210   -6.5970    0.5340 O.2    69  PHE69      -0.2867
    103  CB         9.7120   -9.9320    0.3320 C.3    69  PHE69       0.0534
    104  CG         9.6760   -9.8340    1.8390 C.ar   69  PHE69      -0.0203
    105  CD1        8.6390   -9.1700    2.4870 C.ar   69  PHE69      -0.0042
    106  CD2       10.6410  -10.4690    2.6090 C.ar   69  PHE69      -0.0042
    107  CE1        8.5880   -9.1060    3.8770 C.ar   69  PHE69      -0.0003
    108  CE2       10.5960  -10.4100    4.0030 C.ar   69  PHE69      -0.0003
    109  CZ         9.5690   -9.7260    4.6390 C.ar   69  PHE69      -0.0000
    110  N          6.0750   -5.2240   -0.2080 N.3    71  ASN71      -0.1240
    111  CA         4.6510   -5.2510    0.0940 C.3    71  ASN71       0.1653
    112  C          4.0670   -3.8680   -0.0800 C.2    71  ASN71       0.2266
    113  O          4.8020   -2.8780   -0.0860 O.2    71  ASN71      -0.2867
    114  CB         4.3980   -5.6980    1.5370 C.3    71  ASN71       0.1155
    115  CG         4.8770   -7.1030    1.8020 C.2    71  ASN71       0.2627
    116  OD1        4.1750   -8.0820    1.5240 O.2    71  ASN71      -0.2716
    117  ND2        6.0720   -7.2140    2.3580 N.am   71  ASN71      -0.0877
    118  N         -2.5150   -5.8230    3.5850 N.3    88  PHE88      -0.1241
    119  CA        -1.3200   -5.7570    2.7580 C.3    88  PHE88       0.1605
    120  C         -1.2680   -6.8550    1.7100 C.2    88  PHE88       0.2264
    121  O         -1.7700   -7.9660    1.9190 O.2    88  PHE88      -0.2867
    122  CB        -0.0550   -5.8060    3.6250 C.3    88  PHE88       0.0534
    123  CG         0.0740   -7.0670    4.4350 C.ar   88  PHE88      -0.0203
    124  CD1       -0.4680   -7.1450    5.7110 C.ar   88  PHE88      -0.0042
    125  CD2        0.7220   -8.1840    3.9170 C.ar   88  PHE88      -0.0042
    126  CE1       -0.3640   -8.3080    6.4570 C.ar   88  PHE88      -0.0003
    127  CE2        0.8330   -9.3480    4.6630 C.ar   88  PHE88      -0.0003
    128  CZ         0.2910   -9.4030    5.9350 C.ar   88  PHE88      -0.0000
    129  N          1.4790   -8.4510   -1.6440 N.3    90  THR90      -0.1218
    130  CA         2.8730   -8.6660   -1.9930 C.3    90  THR90       0.1862
    131  C          3.0720   -8.2200   -3.4330 C.2    90  THR90       0.2287
    132  O          2.2920   -8.5780   -4.3120 O.2    90  THR90      -0.2866
    133  CB         3.2520  -10.1540   -1.8620 C.3    90  THR90       0.1770
    134  OG1        2.8620  -10.6300   -0.5660 O.3    90  THR90      -0.2211
    135  CG2        4.7520  -10.3460   -2.0510 C.3    90  THR90       0.0375
    136  N          1.1960  -11.4690   -5.1110 N.3    99  LYS99      -0.1245
    137  CA         0.3500  -12.2390   -4.2160 C.3    99  LYS99       0.1561
    138  C         -0.6810  -11.2960   -3.6240 C.2    99  LYS99       0.2260
    139  O         -0.3280  -10.2280   -3.1420 O.2    99  LYS99      -0.2867
    140  CB         1.1810  -12.8790   -3.1030 C.3    99  LYS99       0.0271
    141  CG         0.3930  -13.8020   -2.1820 C.3    99  LYS99       0.0035
    142  CD         1.2020  -14.1560   -0.9410 C.3    99  LYS99       0.0206
    143  CE         0.3680  -14.9080    0.0860 C.3    99  LYS99       0.1093
    144  NZ         1.0540  -14.9730    1.4100 N.3    99  LYS99      -0.1314
    145  N         -1.9960   -5.3670   10.0760 N.3   107  TYR107     -0.1241
    146  CA        -1.0670   -4.8380   11.0570 C.3   107  TYR107      0.1605
    147  C         -1.4950   -3.4510   11.4830 C.2   107  TYR107      0.2264
    148  O         -2.1580   -2.7300   10.7320 O.2   107  TYR107     -0.2867
    149  CB         0.3890   -4.8520   10.5540 C.3   107  TYR107      0.0534
    150  CG         0.6470   -4.0570    9.2950 C.ar  107  TYR107     -0.0201
    151  CD1        0.7040   -4.6810    8.0530 C.ar  107  TYR107     -0.0009
    152  CD2        0.8540   -2.6900    9.3480 C.ar  107  TYR107     -0.0009
    153  CE1        0.9470   -3.9630    6.9000 C.ar  107  TYR107      0.0417
    154  CE2        1.0960   -1.9590    8.1910 C.ar  107  TYR107      0.0417
    155  CZ         1.1390   -2.6030    6.9700 C.ar  107  TYR107      0.1957
    156  OH         1.3830   -1.8840    5.8190 O.3   107  TYR107     -0.2866
    157  N          0.0760    0.0720   12.8910 N.3   109  VAL109     -0.1245
    158  CA         1.2300    0.9160   13.1520 C.3   109  VAL109      0.1561
    159  C          0.8490    2.0880   14.0490 C.2   109  VAL109      0.2260
    160  O         -0.1250    2.7940   13.7770 O.2   109  VAL109     -0.2867
    161  CB         1.8110    1.4880   11.8370 C.3   109  VAL109      0.0252
    162  CG1        2.9180    2.4960   12.1390 C.3   109  VAL109      0.0019
    163  CG2        2.3150    0.3700   10.9380 C.3   109  VAL109      0.0019
    164  N          8.3420    4.0280   15.8180 N.3   121  ILE121     -0.1245
    165  CA         7.0640    3.3900   15.5460 C.3   121  ILE121      0.1561
    166  C          6.9580    2.0470   16.2350 C.2   121  ILE121      0.2260
    167  O          7.9550    1.4580   16.6720 O.2   121  ILE121     -0.2867
    168  CB         6.7820    3.2210   14.0300 C.3   121  ILE121      0.0252
    169  CG1        7.8130    2.3050   13.3690 C.3   121  ILE121      0.0019
    170  CG2        6.7640    4.5750   13.3480 C.3   121  ILE121      0.0019
    171  CD1        7.3960    1.8460   11.9820 C.3   121  ILE121      0.0001
    172  N          4.7090   -1.7110   15.6730 N.3   123  ILE123     -0.1245
    173  CA         3.7940   -2.4610   14.8330 C.3   123  ILE123      0.1561
    174  C          3.2650   -3.6840   15.5740 C.2   123  ILE123      0.2260
    175  O          4.0320   -4.4270   16.1880 O.2   123  ILE123     -0.2867
    176  CB         4.4310   -2.8670   13.4910 C.3   123  ILE123      0.0252
    177  CG1        3.4370   -3.7030   12.6820 C.3   123  ILE123      0.0019
    178  CG2        5.7490   -3.5920   13.6710 C.3   123  ILE123      0.0019
    179  CD1        3.9080   -4.0740   11.2980 C.3   123  ILE123      0.0001
    180  N          1.1920   -7.0220   14.7250 N.3   125  LEU125     -0.1245
    181  CA         0.6680   -7.8590   13.6620 C.3   125  LEU125      0.1561
    182  C         -0.4670   -8.6940   14.2350 C.2   125  LEU125      0.2260
    183  O         -0.3890   -9.1570   15.3770 O.2   125  LEU125     -0.2867
    184  CB         1.7740   -8.7410   13.0710 C.3   125  LEU125      0.0270
    185  CG         2.3540   -8.2600   11.7310 C.3   125  LEU125      0.0019
    186  CD1        3.6350   -8.9950   11.3900 C.3   125  LEU125      0.0001
    187  CD2        1.3270   -8.4430   10.6150 C.3   125  LEU125      0.0001
    188  N          6.6230   -5.3600   17.3940 N.3   135  LEU135     -0.1245
    189  CA         7.9870   -4.9100   17.2120 C.3   135  LEU135      0.1561
    190  C          8.0250   -3.3930   17.3170 C.2   135  LEU135      0.2260
    191  O          7.1010   -2.7110   16.8680 O.2   135  LEU135     -0.2867
    192  CB         8.4990   -5.3670   15.8380 C.3   135  LEU135      0.0270
    193  CG         9.8680   -4.9000   15.3260 C.3   135  LEU135      0.0019
    194  CD1       10.5730   -6.0040   14.5190 C.3   135  LEU135      0.0001
    195  CD2        9.7340   -3.6330   14.4850 C.3   135  LEU135      0.0001
    196  N         10.4070   -0.0000   16.1990 N.3   137  SER137     -0.1217
    197  CA        11.4910    0.3960   15.3070 C.3   137  SER137      0.1889
    198  C         11.7980    1.8660   15.4200 C.2   137  SER137      0.2288
    199  O         10.8940    2.7090   15.4230 O.2   137  SER137     -0.2866
    200  CB        11.1560    0.1040   13.8530 C.3   137  SER137      0.2089
    201  OG        12.2820    0.3820   13.0270 O.3   137  SER137     -0.2183
@<TRIPOS>BOND
     1   136   137    1
     2   132   131    2
     3   137   138    1
     4   137   140    1
     5   138   139    2
     6   131   130    1
     7   140   141    1
     8   141   142    1
     9   135   133    1
    10   130   133    1
    11   130   129    1
    12   133   134    1
    13   142   143    1
    14   100   101    1
    15   100    99    1
    16   100   103    1
    17   101   102    2
    18   110   111    1
    19   113   112    2
    20   112   111    1
    21   143   144    1
    22   111   114    1
    23   103   104    1
    24    76    75    2
    25    67    66    2
    26    66    65    1
    27    73    74    1
    28   116   115    2
    29   114   115    1
    30    75    74    1
    31   120   121    2
    32   120   119    1
    33   115   117   am
    34    64    65    1
    35   104   105   ar
    36   104   106   ar
    37    84    83    2
    38    65    68    1
    39    74    77    1
    40   105   107   ar
    41   106   108   ar
    42   119   118    1
    43   119   122    1
    44    81    82    1
    45    83    82    1
    46    77    78    1
    47    55    56    2
    48    55    54    1
    49    68    69    1
    50   122   123    1
    51    94    93    2
    52    82    85    1
    53    54    53    1
    54    54    57    1
    55    78    80    1
    56    78    79    1
    57   107   109   ar
    58   125   123   ar
    59   125   127   ar
    60   108   109   ar
    61    91    92    1
    62    69    70    1
    63    85    86    1
    64   123   124   ar
    65    95    92    1
    66    95    96    1
    67   127   128   ar
    68    57    58    1
    69    93    92    1
    70    87    86   ar
    71    87    89   ar
    72    86    88   ar
    73    96    98   am
    74    96    97    2
    75   124   126   ar
    76    70    71   ar
    77    70    72   ar
    78   156   155    1
    79    89    90   ar
    80    58    59   ar
    81    58    60   ar
    82   128   126   ar
    83    44    43    1
    84    44    45    2
    85    59    61   ar
    86    40    38   ar
    87    40    41   ar
    88    43    42    1
    89    43    46    1
    90    88    90   ar
    91    50    48   ar
    92    50    52   ar
    93    60    62   ar
    94   153   155   ar
    95   153   151   ar
    96    48    47   ar
    97   155   154   ar
    98    38    36   ar
    99    52    51   ar
   100    41    39   ar
   101    61    63   ar
   102    47    46    1
   103    47    49   ar
   104    51    49   ar
   105    62    63   ar
   106   151   150   ar
   107   154   152   ar
   108    36    35    1
   109    36    37   ar
   110    39    37   ar
   111    33    32    1
   112    33    34    2
   113    32    35    1
   114    32    31    1
   115     1     2    1
   116    30    28   ar
   117   150   152   ar
   118   150   149    1
   119     8     7   ar
   120     4     3    2
   121   145   146    1
   122     2     5    1
   123     2     3    1
   124    28    29   ar
   125    28    27    1
   126     5     6    1
   127   149   146    1
   128   187   185    1
   129   148   147    2
   130     7     6    1
   131     7     9   ar
   132   163   161    1
   133   146   147    1
   134    27    26    1
   135   179   177    1
   136    26    23    1
   137   186   185    1
   138   185   184    1
   139   161   162    1
   140   161   158    1
   141   171   169    1
   142    24    23    1
   143    24    25    2
   144    23    22    1
   145   177   176    1
   146    19    17   ar
   147    19    20   ar
   148    21    20    1
   149   157   158    1
   150   201   200    1
   151   184   181    1
   152   158   159    1
   153    17    15   ar
   154   170   168    1
   155    20    18   ar
   156   169   168    1
   157   176   178    1
   158   176   173    1
   159   181   182    1
   160   181   180    1
   161   160   159    2
   162   200   197    1
   163   168   165    1
   164   182   183    2
   165    15    16   ar
   166    15    14    1
   167    18    16   ar
   168   195   193    1
   169   194   193    1
   170    14    11    1
   171   173   174    1
   172   173   172    1
   173   197   198    1
   174   197   196    1
   175   193   192    1
   176   198   199    2
   177   165   164    1
   178   165   166    1
   179   174   175    2
   180    10    11    1
   181   192   189    1
   182    11    12    1
   183   166   167    2
   184   191   190    2
   185    12    13    2
   186   189   190    1
   187   189   188    1
