@<TRIPOS>MOLECULE
tmp/4xmoA00.pdb
 181 171 0 0 0
SMALL
GASTEIGER

@<TRIPOS>ATOM
      1  N         22.8730   40.6980   54.8250 N.3    34  ILE34      -0.1231
      2  CA        22.7190   40.2370   56.2090 C.3    34  ILE34       0.1692
      3  C         23.5080   38.9530   56.4860 C.2    34  ILE34       0.2593
      4  O         23.7800   38.6390   57.6450 O.2    34  ILE34      -0.2718
      5  CB        21.2360   40.0490   56.6050 C.3    34  ILE34       0.0266
      6  CG1       20.5820   38.9010   55.8280 C.3    34  ILE34       0.0019
      7  CG2       20.4770   41.3500   56.4000 C.3    34  ILE34       0.0020
      8  CD1       19.1690   38.5910   56.2690 C.3    34  ILE34       0.0001
      9  N         23.8720   38.2200   55.4300 N.am   35  GLY35      -0.1942
     10  CA        24.6280   36.9690   55.5660 C.3    35  GLY35       0.2014
     11  C         25.4240   36.6170   54.3200 C.2    35  GLY35       0.2638
     12  O         25.1290   37.1020   53.2320 O.2    35  GLY35      -0.2714
     13  N         26.4400   35.7730   54.4890 N.am   36  ARG36      -0.1977
     14  CA        27.3180   35.3660   53.3870 C.3    36  ARG36       0.1597
     15  C         27.6290   33.8820   53.4350 C.2    36  ARG36       0.2287
     16  O         27.9540   33.3430   54.4930 O.2    36  ARG36      -0.2864
     17  CB        28.6520   36.1160   53.4560 C.3    36  ARG36       0.0334
     18  CG        28.5430   37.6020   53.1990 C.3    36  ARG36       0.0492
     19  CD        29.8510   38.3180   53.4830 C.3    36  ARG36       0.2205
     20  NE        29.6950   39.7510   53.2530 N.pl3  36  ARG36      -0.0865
     21  CZ        29.7700   40.3480   52.0650 C.cat  36  ARG36       0.5346
     22  NH1       30.0220   39.6540   50.9540 N.pl3  36  ARG36       0.1354
     23  NH2       29.5960   41.6640   51.9880 N.pl3  36  ARG36       0.1354
     24  N         23.0760   36.8220   51.3610 N.3    42  VAL42      -0.1245
     25  CA        21.6750   36.7600   51.7430 C.3    42  VAL42       0.1561
     26  C         21.2060   38.1440   52.1970 C.2    42  VAL42       0.2260
     27  O         21.9990   38.9530   52.7090 O.2    42  VAL42      -0.2867
     28  CB        21.3820   35.6060   52.7500 C.3    42  VAL42       0.0252
     29  CG1       22.6560   34.8520   53.1330 C.3    42  VAL42       0.0019
     30  CG2       20.6080   36.0950   53.9680 C.3    42  VAL42       0.0019
     31  N         14.5600   35.5450   54.7540 N.3    52  ALA52      -0.1245
     32  CA        15.9590   35.6810   54.3640 C.3    52  ALA52       0.1562
     33  C         16.0540   35.1410   52.9480 C.2    52  ALA52       0.2260
     34  O         15.6630   34.0060   52.6840 O.2    52  ALA52      -0.2867
     35  CB        16.8700   34.8870   55.2960 C.3    52  ALA52       0.0290
     36  N         18.3970   34.2380   49.8060 N.3    54  LYS54      -0.1245
     37  CA        19.7680   33.8940   49.4670 C.3    54  LYS54       0.1561
     38  C         19.9780   33.8620   47.9590 C.2    54  LYS54       0.2260
     39  O         19.2740   33.1560   47.2340 O.2    54  LYS54      -0.2867
     40  CB        20.1540   32.5350   50.0420 C.3    54  LYS54       0.0271
     41  CG        21.5160   32.0710   49.5450 C.3    54  LYS54       0.0035
     42  CD        22.2420   31.1990   50.5390 C.3    54  LYS54       0.0206
     43  CE        23.7000   31.0240   50.1310 C.3    54  LYS54       0.1093
     44  NZ        24.2000   29.7100   50.5950 N.3    54  LYS54      -0.1314
     45  N         14.9810   23.8670   59.4910 N.3    84  LEU84      -0.1245
     46  CA        14.7260   25.1010   58.7320 C.3    84  LEU84       0.1561
     47  C         13.8450   24.7740   57.5240 C.2    84  LEU84       0.2260
     48  O         14.1170   23.8300   56.7830 O.2    84  LEU84      -0.2867
     49  CB        16.0300   25.7790   58.2750 C.3    84  LEU84       0.0270
     50  CG        15.8880   27.1610   57.6280 C.3    84  LEU84       0.0019
     51  CD1       15.3950   28.1960   58.6260 C.3    84  LEU84       0.0001
     52  CD2       17.1930   27.6300   56.9900 C.3    84  LEU84       0.0001
     53  N         14.0040   31.6590   52.5570 N.3   101  LEU101     -0.1231
     54  CA        13.9700   30.9600   53.8390 C.3   101  LEU101      0.1678
     55  C         13.2970   31.8460   54.8880 C.2   101  LEU101      0.2434
     56  O         13.3420   33.0740   54.7840 O.2   101  LEU101     -0.2733
     57  CB        15.3980   30.6520   54.3070 C.3   101  LEU101      0.0284
     58  CG        16.3550   29.7610   53.5090 C.3   101  LEU101      0.0019
     59  CD1       15.7100   28.4520   53.0670 C.3   101  LEU101      0.0001
     60  CD2       16.9600   30.5140   52.3320 C.3   101  LEU101      0.0001
     61  N         12.7000   31.2310   55.9340 N.am  102  PRO102     -0.2718
     62  CA        12.2290   32.0660   57.0360 C.3   102  PRO102      0.1535
     63  C         13.3820   32.8340   57.6550 C.2   102  PRO102      0.2599
     64  O         14.5090   32.3300   57.7010 O.2   102  PRO102     -0.2715
     65  CB        11.6380   31.0680   58.0430 C.3   102  PRO102      0.0310
     66  CG        12.0470   29.7150   57.5980 C.3   102  PRO102      0.0237
     67  CD        12.5040   29.7910   56.1720 C.3   102  PRO102      0.0939
     68  N         13.1070   34.0550   58.0990 N.am  103  TYR103     -0.1960
     69  CA        14.0970   34.8860   58.7520 C.3   103  TYR103      0.1771
     70  C         14.4130   34.3010   60.1310 C.2   103  TYR103      0.2619
     71  O         13.5060   34.0220   60.9080 O.2   103  TYR103     -0.2715
     72  CB        13.5790   36.3200   58.8920 C.3   103  TYR103      0.0574
     73  CG        14.5910   37.2970   59.4320 C.ar  103  TYR103     -0.0198
     74  CD1       15.6280   37.7670   58.6330 C.ar  103  TYR103     -0.0009
     75  CD2       14.5160   37.7520   60.7460 C.ar  103  TYR103     -0.0009
     76  CE1       16.5630   38.6590   59.1260 C.ar  103  TYR103      0.0417
     77  CE2       15.4430   38.6470   61.2480 C.ar  103  TYR103      0.0417
     78  CZ        16.4640   39.0960   60.4360 C.ar  103  TYR103      0.1957
     79  OH        17.3870   39.9830   60.9330 O.3   103  TYR103     -0.2866
     80  N         15.6960   34.1170   60.4110 N.am  104  MET104     -0.1963
     81  CA        16.1620   33.5970   61.6990 C.3   104  MET104      0.1736
     82  C         16.8350   34.7200   62.4870 C.2   104  MET104      0.2616
     83  O         18.0290   34.9780   62.3420 O.2   104  MET104     -0.2715
     84  CB        17.1200   32.4200   61.4670 C.3   104  MET104      0.0427
     85  CG        16.4620   31.2290   60.7900 C.3   104  MET104      0.0599
     86  SD        15.3280   30.3600   61.8910 S.3   104  MET104     -0.1393
     87  CE        13.8100   30.3310   60.9590 C.3   104  MET104      0.0692
     88  N         16.0490   35.3780   63.3340 N.am  105  LYS105     -0.1977
     89  CA        16.4770   36.5750   64.0720 C.3   105  LYS105      0.1596
     90  C         17.8390   36.4760   64.7500 C.2   105  LYS105      0.2287
     91  O         18.6220   37.4160   64.6970 O.2   105  LYS105     -0.2864
     92  CB        15.4260   36.9250   65.1290 C.3   105  LYS105      0.0298
     93  CG        15.6710   38.2190   65.9000 C.3   105  LYS105      0.0038
     94  CD        14.6290   38.3580   66.9970 C.3   105  LYS105      0.0206
     95  CE        14.7650   39.6530   67.7810 C.3   105  LYS105      0.1093
     96  NZ        13.7180   39.7110   68.8390 N.3   105  LYS105     -0.1314
     97  N         20.3330   34.2310   64.3190 N.3   107  GLY107     -0.1210
     98  CA        21.4730   33.7710   63.5330 C.3   107  GLY107      0.1956
     99  C         21.8550   32.3380   63.8390 C.2   107  GLY107      0.2611
    100  O         21.0110   31.5380   64.2590 O.2   107  GLY107     -0.2717
    101  N         23.1290   32.0130   63.6230 N.am  108  ASP108     -0.1973
    102  CA        23.6000   30.6450   63.8220 C.3   108  ASP108      0.1709
    103  C         23.8670   30.3580   65.3010 C.2   108  ASP108      0.2293
    104  O         24.2140   31.2500   66.0850 O.2   108  ASP108     -0.2864
    105  CB        24.8350   30.3280   62.9630 C.3   108  ASP108      0.1436
    106  CG        26.0640   31.0760   63.4010 C.2   108  ASP108      0.3671
    107  OD1       26.1770   32.2790   63.0810 O.co2 108  ASP108     -0.2456
    108  OD2       26.9240   30.4560   64.0660 O.co2 108  ASP108     -0.2456
    109  N         27.4860   31.2860   66.8630 N.3   111  ASN111     -0.1240
    110  CA        27.6500   32.7010   67.1790 C.3   111  ASN111      0.1653
    111  C         26.7540   33.1280   68.3370 C.2   111  ASN111      0.2266
    112  O         27.1480   33.9680   69.1450 O.2   111  ASN111     -0.2867
    113  CB        27.4190   33.5720   65.9400 C.3   111  ASN111      0.1155
    114  CG        28.6720   33.7170   65.0920 C.2   111  ASN111      0.2627
    115  OD1       29.7650   33.9280   65.6190 O.2   111  ASN111     -0.2716
    116  ND2       28.5220   33.6040   63.7760 N.am  111  ASN111     -0.0877
    117  N         27.5450   25.9340   63.8650 N.3   152  ARG152     -0.1231
    118  CA        27.5030   27.0000   62.8410 C.3   152  ARG152      0.1694
    119  C         26.3850   26.7970   61.8130 C.2   152  ARG152      0.2592
    120  O         26.0050   27.7460   61.1170 O.2   152  ARG152     -0.2718
    121  CB        28.8560   27.0960   62.1010 C.3   152  ARG152      0.0321
    122  CG        29.2190   25.8470   61.3220 C.3   152  ARG152      0.0489
    123  CD        30.5100   25.9510   60.5050 C.3   152  ARG152      0.2205
    124  NE        30.7690   24.6510   59.8970 N.pl3 152  ARG152     -0.0865
    125  CZ        31.4290   23.6490   60.4800 C.cat 152  ARG152      0.5346
    126  NH1       31.5540   22.4910   59.8520 N.pl3 152  ARG152      0.1354
    127  NH2       31.9810   23.7980   61.6770 N.pl3 152  ARG152      0.1354
    128  N         25.9010   25.5560   61.7110 N.am  153  ASN153     -0.1974
    129  CA        24.9400   25.1100   60.6870 C.3   153  ASN153      0.1688
    130  C         23.5110   24.8740   61.2080 C.2   153  ASN153      0.2292
    131  O         22.6860   24.2480   60.5430 O.2   153  ASN153     -0.2864
    132  CB        25.4920   23.8710   59.9880 C.3   153  ASN153      0.1181
    133  CG        26.6690   24.2030   59.0890 C.2   153  ASN153      0.2629
    134  OD1       26.7360   25.3030   58.5530 O.2   153  ASN153     -0.2716
    135  ND2       27.5830   23.2640   58.9110 N.am  153  ASN153     -0.0877
    136  N         20.3680   27.2920   63.2080 N.3   155  MET155     -0.1245
    137  CA        19.9710   28.6670   63.4440 C.3   155  MET155      0.1570
    138  C         18.8480   28.7910   64.4770 C.2   155  MET155      0.2261
    139  O         18.1920   27.8030   64.8050 O.2   155  MET155     -0.2867
    140  CB        19.5860   29.3150   62.1210 C.3   155  MET155      0.0387
    141  CG        20.7410   29.3010   61.1250 C.3   155  MET155      0.0595
    142  SD        20.3630   30.2880   59.6870 S.3   155  MET155     -0.1393
    143  CE        20.7630   31.9040   60.3170 C.3   155  MET155      0.0692
    144  N         19.8000   23.5800   59.9650 N.3   165  ALA165     -0.1231
    145  CA        19.7860   24.3970   58.7500 C.3   165  ALA165      0.1694
    146  C         20.8870   23.8980   57.8110 C.2   165  ALA165      0.2592
    147  O         21.2890   22.7430   57.8930 O.2   165  ALA165     -0.2718
    148  CB        19.9600   25.8510   59.1020 C.3   165  ALA165      0.0304
    149  N         21.3390   24.7360   56.8860 N.am  166  ASP166     -0.1974
    150  CA        22.4240   24.3480   55.9970 C.3   166  ASP166      0.1709
    151  C         22.1940   23.0010   55.3090 C.2   166  ASP166      0.2293
    152  O         23.0590   22.1450   55.3360 O.2   166  ASP166     -0.2864
    153  CB        23.7420   24.3130   56.7880 C.3   166  ASP166      0.1436
    154  CG        24.9350   23.9580   55.9250 C.2   166  ASP166      0.3671
    155  OD1       25.1130   24.6260   54.8840 O.co2 166  ASP166     -0.2456
    156  OD2       25.6740   23.0120   56.2880 O.co2 166  ASP166     -0.2456
    157  N         19.7820   25.5210   50.8620 N.3   170  ALA170     -0.1245
    158  CA        20.4970   26.4020   51.8000 C.3   170  ALA170      0.1562
    159  C         21.9070   25.8860   52.1570 C.2   170  ALA170      0.2260
    160  O         22.6240   26.5390   52.9100 O.2   170  ALA170     -0.2867
    161  CB        19.6740   26.5960   53.0710 C.3   170  ALA170      0.0290
    162  N         29.4890   28.3000   55.3800 N.3   174  TYR174     -0.1227
    163  CA        29.2340   29.5880   56.0190 C.3   174  TYR174      0.1736
    164  C         30.3700   30.0340   56.9440 C.2   174  TYR174      0.2595
    165  O         30.3660   31.1550   57.4310 O.2   174  TYR174     -0.2718
    166  CB        27.9030   29.5480   56.7890 C.3   174  TYR174      0.0548
    167  CG        26.6940   29.3860   55.8930 C.ar  174  TYR174     -0.0200
    168  CD1       26.2230   30.4540   55.1320 C.ar  174  TYR174     -0.0009
    169  CD2       26.0360   28.1630   55.7770 C.ar  174  TYR174     -0.0009
    170  CE1       25.1260   30.3210   54.3010 C.ar  174  TYR174      0.0417
    171  CE2       24.9280   28.0210   54.9500 C.ar  174  TYR174      0.0417
    172  CZ        24.4770   29.1070   54.2150 C.ar  174  TYR174      0.1957
    173  OH        23.3880   28.9670   53.3820 O.3   174  TYR174     -0.2866
    174  N         31.3370   29.1540   57.1930 N.am  175  ASP175     -0.1974
    175  CA        32.5780   29.5430   57.8740 C.3   175  ASP175      0.1709
    176  C         33.7130   28.7260   57.2880 C.2   175  ASP175      0.2293
    177  O         33.9540   27.5840   57.6910 O.2   175  ASP175     -0.2864
    178  CB        32.4850   29.3510   59.3980 C.3   175  ASP175      0.1436
    179  CG        33.6760   29.9670   60.1470 C.2   175  ASP175      0.3671
    180  OD1       34.7500   30.1660   59.5270 O.co2 175  ASP175     -0.2456
    181  OD2       33.5420   30.2650   61.3560 O.co2 175  ASP175     -0.2456
@<TRIPOS>BOND
     1    39    38    2
     2    38    37    1
     3    37    36    1
     4    37    40    1
     5    41    40    1
     6    41    42    1
     7    43    42    1
     8    43    44    1
     9   157   158    1
    10    22    21    1
    11    24    25    1
    12    25    26    1
    13    25    28    1
    14   158   159    1
    15   158   161    1
    16    23    21    1
    17    21    20    2
    18   159   160    2
    19    26    27    2
    20    60    58    1
    21    53    54    1
    22    34    33    2
    23    28    29    1
    24    28    30    1
    25    33    32    1
    26    59    58    1
    27    18    17    1
    28    18    19    1
    29    12    11    2
    30    20    19    1
    31   173   172    1
    32    14    15    1
    33    14    17    1
    34    14    13    1
    35    15    16    2
    36    58    57    1
    37    54    57    1
    38    54    55    1
    39   172   170   ar
    40   172   171   ar
    41   170   168   ar
    42    11    13   am
    43    11    10    1
    44    32    31    1
    45    32    35    1
    46    56    55    2
    47     1     2    1
    48   155   154   ar
    49    55    61   am
    50   171   169   ar
    51   168   167   ar
    52   151   152    2
    53   151   150    1
    54   162   163    1
    55     9    10    1
    56     9     3   am
    57   169   167   ar
    58     6     8    1
    59     6     5    1
    60   167   166    1
    61   154   156   ar
    62   154   153    1
    63    61    67    1
    64    61    62    1
    65   150   153    1
    66   150   149    1
    67   163   166    1
    68   163   164    1
    69    67    66    1
    70     2     3    1
    71     2     5    1
    72     7     5    1
    73     3     4    2
    74    48    47    2
    75   149   146   am
    76   164   174   am
    77   164   165    2
    78    52    50    1
    79    62    63    1
    80    62    65    1
    81   174   175    1
    82   176   177    2
    83   176   175    1
    84    47    46    1
    85    66    65    1
    86    50    49    1
    87    50    51    1
    88    63    64    2
    89    63    68   am
    90   146   147    2
    91   146   145    1
    92   175   178    1
    93    68    69    1
    94    49    46    1
    95   134   133    2
    96    74    76   ar
    97    74    73   ar
    98    46    45    1
    99   145   148    1
   100   145   144    1
   101    69    72    1
   102    69    70    1
   103    72    73    1
   104   135   133   am
   105   133   132    1
   106    76    78   ar
   107   178   179    1
   108    73    75   ar
   109   180   179   ar
   110   142   143    1
   111   142   141    1
   112   126   125    1
   113   124   125    2
   114   124   123    1
   115   132   129    1
   116    70    80   am
   117    70    71    2
   118   179   181   ar
   119    80    81    1
   120    78    79    1
   121    78    77   ar
   122   125   127    1
   123   123   122    1
   124   131   130    2
   125   129   130    1
   126   129   128    1
   127    75    77   ar
   128    85    84    1
   129    85    86    1
   130    87    86    1
   131   120   119    2
   132   141   140    1
   133   122   121    1
   134    84    81    1
   135    81    82    1
   136   128   119   am
   137   119   118    1
   138   121   118    1
   139   140   137    1
   140    83    82    2
   141    82    88   am
   142   118   117    1
   143   105   106    1
   144   105   102    1
   145   107   106   ar
   146   136   137    1
   147    88    89    1
   148   106   108   ar
   149   137   138    1
   150    98    99    1
   151    98    97    1
   152   101   102    1
   153   101    99   am
   154   116   114   am
   155   102   103    1
   156    99   100    2
   157    89    90    1
   158    89    92    1
   159   138   139    2
   160    91    90    2
   161   114   115    2
   162   114   113    1
   163    92    93    1
   164   103   104    2
   165    93    94    1
   166   113   110    1
   167   109   110    1
   168    94    95    1
   169   110   111    1
   170    95    96    1
   171   111   112    2
