@<TRIPOS>MOLECULE
tmp/4xmrB00.pdb
 123 115 0 0 0
SMALL
GASTEIGER

@<TRIPOS>ATOM
      1  N        -19.8450  -19.8390  -10.8300 N.3    80  ASN80      -0.1240
      2  CA       -21.1110  -20.4800  -10.5100 C.3    80  ASN80       0.1653
      3  C        -22.0070  -20.3460  -11.7300 C.2    80  ASN80       0.2266
      4  O        -22.0210  -19.2950  -12.3860 O.2    80  ASN80      -0.2867
      5  CB       -21.8380  -19.7510   -9.3690 C.3    80  ASN80       0.1155
      6  CG       -21.1010  -19.7960   -8.0480 C.2    80  ASN80       0.2627
      7  OD1      -20.7200  -20.8580   -7.5530 O.2    80  ASN80      -0.2716
      8  ND2      -20.9610  -18.6370   -7.4350 N.am   80  ASN80      -0.0877
      9  N        -26.1830  -21.3590  -12.5040 N.3    82  TYR82      -0.1241
     10  CA       -27.3080  -21.8120  -11.7050 C.3    82  TYR82       0.1605
     11  C        -28.6560  -21.4400  -12.2820 C.2    82  TYR82       0.2264
     12  O        -28.7770  -20.5000  -13.0780 O.2    82  TYR82      -0.2867
     13  CB       -27.1980  -21.2890  -10.2650 C.3    82  TYR82       0.0534
     14  CG       -26.8550  -19.8270  -10.1460 C.ar   82  TYR82      -0.0201
     15  CD1      -25.5270  -19.4180  -10.1390 C.ar   82  TYR82      -0.0009
     16  CD2      -27.8470  -18.8550  -10.0210 C.ar   82  TYR82      -0.0009
     17  CE1      -25.1900  -18.0790  -10.0200 C.ar   82  TYR82       0.0417
     18  CE2      -27.5230  -17.5130   -9.8960 C.ar   82  TYR82       0.0417
     19  CZ       -26.1930  -17.1340   -9.8950 C.ar   82  TYR82       0.1957
     20  OH       -25.8890  -15.7970   -9.7590 O.3    82  TYR82      -0.2866
     21  N        -32.4530  -23.3380   -5.6830 N.3    90  VAL90      -0.1245
     22  CA       -31.5720  -23.0290   -6.7970 C.3    90  VAL90       0.1561
     23  C        -30.7400  -24.2510   -7.1580 C.2    90  VAL90       0.2260
     24  O        -30.1770  -24.9050   -6.2840 O.2    90  VAL90      -0.2867
     25  CB       -30.6890  -21.7980   -6.5010 C.3    90  VAL90       0.0252
     26  CG1      -29.8550  -22.0160   -5.2590 C.3    90  VAL90       0.0019
     27  CG2      -29.7950  -21.4860   -7.6800 C.3    90  VAL90       0.0019
     28  N        -27.4930  -25.4150   -8.4760 N.3    92  LEU92      -0.1245
     29  CA       -26.1970  -24.7360   -8.4820 C.3    92  LEU92       0.1561
     30  C        -25.0570  -25.6210   -8.9660 C.2    92  LEU92       0.2260
     31  O        -24.7970  -26.6740   -8.3820 O.2    92  LEU92      -0.2867
     32  CB       -25.8830  -24.2140   -7.0760 C.3    92  LEU92       0.0270
     33  CG       -24.5100  -23.5720   -6.8540 C.3    92  LEU92       0.0019
     34  CD1      -24.2950  -22.3580   -7.7680 C.3    92  LEU92       0.0001
     35  CD2      -24.3540  -23.1800   -5.3970 C.3    92  LEU92       0.0001
     36  N        -30.4860  -19.9980   -0.0200 N.3   106  LEU106     -0.1245
     37  CA       -29.7030  -18.9030   -0.5890 C.3   106  LEU106      0.1561
     38  C        -30.4740  -17.5940   -0.7880 C.2   106  LEU106      0.2260
     39  O        -29.9390  -16.6460   -1.3660 O.2   106  LEU106     -0.2867
     40  CB       -29.0230  -19.3460   -1.8880 C.3   106  LEU106      0.0270
     41  CG       -27.9380  -20.4000   -1.6640 C.3   106  LEU106      0.0019
     42  CD1      -27.3110  -20.8610   -2.9730 C.3   106  LEU106      0.0001
     43  CD2      -26.8710  -19.8590   -0.7210 C.3   106  LEU106      0.0001
     44  N        -32.9690  -16.3390   -2.6750 N.3   108  ILE108     -0.1245
     45  CA       -32.8120  -15.7830   -4.0140 C.3   108  ILE108      0.1561
     46  C        -33.8910  -14.8000   -4.4550 C.2   108  ILE108      0.2260
     47  O        -33.6010  -13.8790   -5.2150 O.2   108  ILE108     -0.2867
     48  CB       -32.6820  -16.8810   -5.0680 C.3   108  ILE108      0.0252
     49  CG1      -34.0080  -17.6260   -5.2270 C.3   108  ILE108      0.0019
     50  CG2      -31.5470  -17.8050   -4.6840 C.3   108  ILE108      0.0019
     51  CD1      -34.0620  -18.5210   -6.4270 C.3   108  ILE108      0.0001
     52  N        -33.1800  -11.1380   -4.3050 N.3   111  LYS111     -0.1245
     53  CA       -31.9040  -10.6890   -4.8570 C.3   111  LYS111      0.1561
     54  C        -32.0550  -10.0010   -6.2040 C.2   111  LYS111      0.2260
     55  O        -32.9530  -10.3240   -6.9780 O.2   111  LYS111     -0.2867
     56  CB       -30.9100  -11.8480   -4.9480 C.3   111  LYS111      0.0271
     57  CG       -30.4000  -12.2470   -3.5830 C.3   111  LYS111      0.0035
     58  CD       -29.3390  -13.3150   -3.6480 C.3   111  LYS111      0.0206
     59  CE       -28.8070  -13.6360   -2.2550 C.3   111  LYS111      0.1093
     60  NZ       -27.7950  -14.7330   -2.2600 N.3   111  LYS111     -0.1314
     61  N        -30.1790   -9.9790   -8.9820 N.3   113  TRP113     -0.1241
     62  CA       -29.9960  -10.7850  -10.1880 C.3   113  TRP113      0.1605
     63  C        -31.2680  -11.5490  -10.5120 C.2   113  TRP113      0.2264
     64  O        -31.5810  -11.7880  -11.6770 O.2   113  TRP113     -0.2867
     65  CB       -28.7850  -11.7330  -10.0960 C.3   113  TRP113      0.0550
     66  CG       -28.8530  -12.8130   -9.0360 C.ar  113  TRP113      0.0003
     67  CD1      -28.2180  -12.8070   -7.8240 C.ar  113  TRP113      0.0946
     68  CD2      -29.5510  -14.0670   -9.1140 C.ar  113  TRP113      0.0152
     69  NE1      -28.4950  -13.9600   -7.1360 N.ar  113  TRP113     -0.2442
     70  CE2      -29.3160  -14.7480   -7.9040 C.ar  113  TRP113      0.0810
     71  CE3      -30.3700  -14.6700  -10.0800 C.ar  113  TRP113      0.0012
     72  CZ2      -29.8570  -16.0040   -7.6370 C.ar  113  TRP113      0.0191
     73  CZ3      -30.9030  -15.9170   -9.8140 C.ar  113  TRP113      0.0001
     74  CH2      -30.6470  -16.5700   -8.6030 C.ar  113  TRP113      0.0015
     75  N        -20.3280   -7.8200   -6.6960 N.3   129  TYR129     -0.1241
     76  CA       -20.6830   -8.0280   -5.3000 C.3   129  TYR129      0.1605
     77  C        -20.0470   -9.3180   -4.7940 C.2   129  TYR129      0.2264
     78  O        -19.6050  -10.1610   -5.5750 O.2   129  TYR129     -0.2867
     79  CB       -22.2050   -8.0950   -5.1340 C.3   129  TYR129      0.0534
     80  CG       -22.8090   -9.3170   -5.7870 C.ar  129  TYR129     -0.0201
     81  CD1      -23.0820   -9.3310   -7.1500 C.ar  129  TYR129     -0.0009
     82  CD2      -23.0880  -10.4640   -5.0430 C.ar  129  TYR129     -0.0009
     83  CE1      -23.6220  -10.4510   -7.7570 C.ar  129  TYR129      0.0417
     84  CE2      -23.6290  -11.5860   -5.6370 C.ar  129  TYR129      0.0417
     85  CZ       -23.8930  -11.5740   -6.9970 C.ar  129  TYR129      0.1957
     86  OH       -24.4270  -12.6980   -7.5920 O.3   129  TYR129     -0.2866
     87  N        -19.9530  -12.8440   -3.7780 N.3   131  ASP131     -0.1225
     88  CA       -20.7260  -14.0820   -3.9190 C.3   131  ASP131      0.1805
     89  C        -21.1250  -14.6730   -2.5690 C.2   131  ASP131      0.2598
     90  O        -20.2880  -14.8270   -1.6870 O.2   131  ASP131     -0.2718
     91  CB       -19.9330  -15.1310   -4.7060 C.3   131  ASP131      0.1424
     92  CG       -20.6890  -16.4380   -4.8470 C.2   131  ASP131      0.3668
     93  OD1      -21.9170  -16.3790   -5.0180 O.co2 131  ASP131     -0.2456
     94  OD2      -20.0640  -17.5140   -4.7860 O.co2 131  ASP131     -0.2456
     95  N        -22.4050  -15.0040   -2.4210 N.am  132  THR132     -0.1939
     96  CA       -22.9260  -15.5700   -1.1820 C.3   132  THR132      0.2028
     97  C        -22.2020  -16.8460   -0.7670 C.2   132  THR132      0.2642
     98  O        -21.9200  -17.0560    0.4140 O.2   132  THR132     -0.2714
     99  CB       -24.4380  -15.8840   -1.3070 C.3   132  THR132      0.1808
    100  OG1      -25.1460  -14.6810   -1.6240 O.3   132  THR132     -0.2208
    101  CG2      -24.9850  -16.4710   -0.0110 C.3   132  THR132      0.0379
    102  N        -21.8920  -17.7000   -1.7360 N.am  133  VAL133     -0.1977
    103  CA       -21.3280  -19.0050   -1.4010 C.3   133  VAL133      0.1596
    104  C        -19.8010  -18.9940   -1.3200 C.2   133  VAL133      0.2287
    105  O        -19.2280  -19.2910   -0.2720 O.2   133  VAL133     -0.2864
    106  CB       -21.7860  -20.0970   -2.3850 C.3   133  VAL133      0.0276
    107  CG1      -21.2960  -21.4600   -1.9160 C.3   133  VAL133      0.0022
    108  CG2      -23.3020  -20.0950   -2.5080 C.3   133  VAL133      0.0022
    109  N        -17.9630  -11.1240   -7.6910 N.3   138  VAL138     -0.1245
    110  CA       -18.4240  -11.5970   -8.9860 C.3   138  VAL138      0.1561
    111  C        -19.3010  -10.5650   -9.6740 C.2   138  VAL138      0.2260
    112  O        -19.9150   -9.6990   -9.0320 O.2   138  VAL138     -0.2867
    113  CB       -19.2320  -12.9200   -8.8800 C.3   138  VAL138      0.0252
    114  CG1      -18.3640  -14.0500   -8.3480 C.3   138  VAL138      0.0019
    115  CG2      -20.4620  -12.7190   -8.0020 C.3   138  VAL138      0.0019
    116  N        -22.0540  -16.4740  -12.8060 N.3   158  ASP158     -0.1239
    117  CA       -21.1500  -15.6290  -12.0340 C.3   158  ASP158      0.1674
    118  C        -19.7450  -15.7310  -12.5990 C.2   158  ASP158      0.2266
    119  O        -19.1680  -16.8310  -12.6730 O.2   158  ASP158     -0.2867
    120  CB       -21.0730  -16.0480  -10.5580 C.3   158  ASP158      0.1410
    121  CG       -22.3840  -15.9020   -9.8060 C.2   158  ASP158      0.3668
    122  OD1      -23.3230  -15.2480  -10.2980 O.co2 158  ASP158     -0.2456
    123  OD2      -22.4540  -16.4560   -8.6890 O.co2 158  ASP158     -0.2456
@<TRIPOS>BOND
     1    12    11    2
     2   116   117    1
     3   119   118    2
     4   118   117    1
     5     9    10    1
     6     4     3    2
     7    11    10    1
     8   117   120    1
     9     3     2    1
    10    10    13    1
    11    64    63    2
    12     1     2    1
    13   120   121    1
    14    63    62    1
    15     2     5    1
    16   122   121   ar
    17    13    14    1
    18    62    65    1
    19    62    61    1
    20    14    15   ar
    21    14    16   ar
    22    15    17   ar
    23    65    66    1
    24    71    73   ar
    25    71    68   ar
    26    16    18   ar
    27    17    19   ar
    28    18    19   ar
    29    19    20    1
    30    73    74   ar
    31   121   123   ar
    32   111   112    2
    33   111   110    1
    34     5     6    1
    35    68    66   ar
    36    68    70   ar
    37    66    67   ar
    38   110   113    1
    39   110   109    1
    40    30    29    1
    41    30    31    2
    42   113   114    1
    43   113   115    1
    44    74    72   ar
    45    29    28    1
    46    29    32    1
    47     6     7    2
    48     6     8   am
    49    70    72   ar
    50    70    69   ar
    51    67    69   ar
    52    34    33    1
    53    83    81   ar
    54    83    85   ar
    55    27    25    1
    56    86    85    1
    57    23    22    1
    58    23    24    2
    59    81    80   ar
    60    32    33    1
    61    85    84   ar
    62    55    54    2
    63    33    35    1
    64    22    25    1
    65    22    21    1
    66    75    76    1
    67    25    26    1
    68    51    49    1
    69    54    53    1
    70    80    79    1
    71    80    82   ar
    72    84    82   ar
    73    78    77    2
    74    76    79    1
    75    76    77    1
    76    49    48    1
    77    47    46    2
    78    48    50    1
    79    48    45    1
    80    93    92   ar
    81    56    53    1
    82    56    57    1
    83    53    52    1
    84    92    94   ar
    85    92    91    1
    86    91    88    1
    87    46    45    1
    88    45    44    1
    89    88    87    1
    90    88    89    1
    91    58    57    1
    92    58    59    1
    93    42    41    1
    94    89    95   am
    95    89    90    2
    96   108   106    1
    97    95    96    1
    98   106   107    1
    99   106   103    1
   100    60    59    1
   101    40    41    1
   102    40    37    1
   103   102   103    1
   104   102    97   am
   105    41    43    1
   106   100    99    1
   107   103   104    1
   108    39    38    2
   109   104   105    2
   110    99    96    1
   111    99   101    1
   112    96    97    1
   113    38    37    1
   114    97    98    2
   115    37    36    1
