@<TRIPOS>MOLECULE
tmp/4xmvA02.pdb
 151 144 0 0 0
SMALL
GASTEIGER

@<TRIPOS>ATOM
      1  N         78.3980  -25.2590  -12.2420 N.3   102  LEU102     -0.1245
      2  CA        77.2750  -25.5980  -11.3700 C.3   102  LEU102      0.1561
      3  C         75.9290  -25.4060  -12.0560 C.2   102  LEU102      0.2260
      4  O         74.9660  -24.9760  -11.4100 O.2   102  LEU102     -0.2867
      5  CB        77.3550  -24.8770  -10.0040 C.3   102  LEU102      0.0270
      6  CG        78.7160  -24.8560   -9.2580 C.3   102  LEU102      0.0019
      7  CD1       78.5990  -24.1390   -7.9160 C.3   102  LEU102      0.0001
      8  CD2       79.3320  -26.2350   -9.0430 C.3   102  LEU102      0.0001
      9  N         71.1280  -28.3420  -10.8370 N.3   115  GLN115     -0.1245
     10  CA        70.4170  -27.0940  -11.1130 C.3   115  GLN115      0.1566
     11  C         70.0650  -27.0080  -12.6090 C.2   115  GLN115      0.2260
     12  O         70.9430  -27.0440  -13.4760 O.2   115  GLN115     -0.2867
     13  CB        71.2190  -25.8830  -10.6490 C.3   115  GLN115      0.0367
     14  CG        70.5080  -24.5700  -10.8440 C.3   115  GLN115      0.0905
     15  CD        69.1430  -24.5160  -10.1860 C.2   115  GLN115      0.2608
     16  OE1       68.9270  -25.0910   -9.1060 O.2   115  GLN115     -0.2717
     17  NE2       68.2060  -23.8170  -10.8280 N.am  115  GLN115     -0.0878
     18  N         67.1580  -24.8920  -13.8380 N.3   117  GLU117     -0.1245
     19  CA        66.6680  -23.5740  -14.2360 C.3   117  GLU117      0.1567
     20  C         67.9070  -22.7210  -14.5450 C.2   117  GLU117      0.2260
     21  O         68.8740  -22.7430  -13.7760 O.2   117  GLU117     -0.2867
     22  CB        65.7410  -22.9170  -13.1770 C.3   117  GLU117      0.0388
     23  CG        65.0740  -21.6500  -13.7050 C.3   117  GLU117      0.1160
     24  CD        64.0730  -20.9870  -12.7670 C.2   117  GLU117      0.3649
     25  OE1       63.9710  -21.3890  -11.6000 O.co2 117  GLU117     -0.2457
     26  OE2       63.3760  -20.0310  -13.2010 O.co2 117  GLU117     -0.2457
     27  N         76.3720  -23.7330   -4.5040 N.3   254  PHE254     -0.1227
     28  CA        75.1900  -23.2810   -5.2350 C.3   254  PHE254      0.1736
     29  C         75.3650  -21.8470   -5.6960 C.2   254  PHE254      0.2595
     30  O         75.8420  -21.0030   -4.9600 O.2   254  PHE254     -0.2718
     31  CB        73.9980  -23.3590   -4.3180 C.3   254  PHE254      0.0547
     32  CG        72.7100  -23.5470   -5.0210 C.ar  254  PHE254     -0.0202
     33  CD1       72.3730  -24.7870   -5.5320 C.ar  254  PHE254     -0.0042
     34  CD2       71.8080  -22.4990   -5.1260 C.ar  254  PHE254     -0.0042
     35  CE1       71.1660  -24.9820   -6.1660 C.ar  254  PHE254     -0.0003
     36  CE2       70.6040  -22.6850   -5.7600 C.ar  254  PHE254     -0.0003
     37  CZ        70.2780  -23.9360   -6.2770 C.ar  254  PHE254     -0.0000
     38  N         74.9770  -21.5630   -6.9190 N.am  255  ASN255     -0.1960
     39  CA        75.1670  -20.2370   -7.4340 C.3   255  ASN255      0.1819
     40  C         74.2200  -19.1960   -6.8470 C.2   255  ASN255      0.2621
     41  O         74.6590  -18.0810   -6.4680 O.2   255  ASN255     -0.2715
     42  CB        75.0880  -20.2710   -8.9440 C.3   255  ASN255      0.1195
     43  CG        76.2900  -20.9440   -9.5440 C.2   255  ASN255      0.2630
     44  OD1       77.3390  -20.9830   -8.9270 O.2   255  ASN255     -0.2716
     45  ND2       76.1520  -21.4660  -10.7510 N.am  255  ASN255     -0.0877
     46  N         72.9430  -19.5360   -6.7590 N.am  256  ALA256     -0.1977
     47  CA        71.9560  -18.5970   -6.2210 C.3   256  ALA256      0.1597
     48  C         71.4490  -19.0140   -4.8330 C.2   256  ALA256      0.2287
     49  O         72.2560  -19.3810   -3.9690 O.2   256  ALA256     -0.2864
     50  CB        70.8020  -18.4090   -7.2030 C.3   256  ALA256      0.0319
     51  N         67.9510  -20.6770   -3.7960 N.3   258  ALA258     -0.1231
     52  CA        67.2920  -21.9590   -3.7250 C.3   258  ALA258      0.1694
     53  C         66.5540  -22.2200   -5.0530 C.2   258  ALA258      0.2592
     54  O         66.5910  -21.3960   -5.9660 O.2   258  ALA258     -0.2718
     55  CB        66.3510  -22.0030   -2.5300 C.3   258  ALA258      0.0304
     56  N         65.9420  -23.3950   -5.1690 N.am  259  MET259     -0.1965
     57  CA        65.2560  -23.7950   -6.3670 C.3   259  MET259      0.1736
     58  C         64.0180  -24.6300   -6.0280 C.2   259  MET259      0.2616
     59  O         64.0770  -25.5470   -5.2170 O.2   259  MET259     -0.2715
     60  CB        66.2370  -24.5500   -7.2440 C.3   259  MET259      0.0427
     61  CG        65.6810  -24.9680   -8.5970 C.3   259  MET259      0.0599
     62  SD        65.1750  -23.6100   -9.6670 S.3   259  MET259     -0.1393
     63  CE        63.6770  -24.2380  -10.3960 C.3   259  MET259      0.0692
     64  N         62.9200  -24.3300   -6.7180 N.am  260  GLU260     -0.1977
     65  CA        61.5760  -24.8800   -6.4500 C.3   260  GLU260      0.1602
     66  C         61.2920  -26.2070   -7.1300 C.2   260  GLU260      0.2287
     67  O         60.1370  -26.4980   -7.4150 O.2   260  GLU260     -0.2864
     68  CB        60.4620  -23.9440   -6.9730 C.3   260  GLU260      0.0415
     69  CG        60.8960  -22.5420   -7.4160 C.3   260  GLU260      0.1163
     70  CD        60.9230  -22.2930   -8.9210 C.2   260  GLU260      0.3649
     71  OE1       61.9800  -21.7740   -9.3010 O.co2 260  GLU260     -0.2457
     72  OE2       59.9270  -22.5570   -9.6790 O.co2 260  GLU260     -0.2457
     73  N         59.3490  -18.6700   -0.0830 N.3   293  HIS293     -0.1226
     74  CA        59.4220  -18.3150   -1.4970 C.3   293  HIS293      0.1752
     75  C         59.3540  -19.5730   -2.3070 C.2   293  HIS293      0.2595
     76  O         58.5020  -19.6620   -3.1620 O.2   293  HIS293     -0.2718
     77  CB        60.7110  -17.5470   -1.8250 C.3   293  HIS293      0.0759
     78  CG        60.8080  -17.0890   -3.2630 C.ar  293  HIS293      0.0818
     79  ND1       60.3190  -15.8700   -3.7000 N.ar  293  HIS293     -0.2268
     80  CD2       61.3450  -17.6860   -4.3580 C.ar  293  HIS293      0.1154
     81  CE1       60.5330  -15.7500   -4.9980 C.ar  293  HIS293      0.1986
     82  NE2       61.1430  -16.8410   -5.4220 N.ar  293  HIS293     -0.2212
     83  N         60.2180  -20.5560   -2.0300 N.am  294  GLU294     -0.1979
     84  CA        60.2630  -21.7650   -2.8530 C.3   294  GLU294      0.1602
     85  C         59.0150  -22.6250   -2.6560 C.2   294  GLU294      0.2287
     86  O         58.5750  -23.3670   -3.5540 O.2   294  GLU294     -0.2864
     87  CB        61.5110  -22.6120   -2.5590 C.3   294  GLU294      0.0415
     88  CG        62.8830  -21.9460   -2.7490 C.3   294  GLU294      0.1163
     89  CD        62.9990  -21.1180   -4.0140 C.2   294  GLU294      0.3649
     90  OE1       62.1940  -21.3220   -4.9470 O.co2 294  GLU294     -0.2457
     91  OE2       63.8860  -20.2490   -4.0720 O.co2 294  GLU294     -0.2457
     92  N         56.1940  -21.1540   -4.7840 N.3   297  HIS297     -0.1241
     93  CA        56.3770  -21.4950   -6.1940 C.3   297  HIS297      0.1621
     94  C         55.6080  -22.7450   -6.6180 C.2   297  HIS297      0.2264
     95  O         55.3750  -22.9630   -7.8070 O.2   297  HIS297     -0.2867
     96  CB        57.8690  -21.6920   -6.5150 C.3   297  HIS297      0.0745
     97  CG        58.5340  -20.4710   -7.0760 C.ar  297  HIS297      0.0817
     98  ND1       58.1250  -19.8860   -8.2490 N.ar  297  HIS297     -0.2268
     99  CD2       59.5850  -19.7400   -6.6380 C.ar  297  HIS297      0.1154
    100  CE1       58.8850  -18.8420   -8.5080 C.ar  297  HIS297      0.1986
    101  NE2       59.7780  -18.7310   -7.5460 N.ar  297  HIS297     -0.2212
    102  N         58.2300  -15.1900  -10.7630 N.3   316  GLU316     -0.1245
    103  CA        59.0530  -14.5290   -9.7750 C.3   316  GLU316      0.1567
    104  C         58.4310  -13.2500   -9.2260 C.2   316  GLU316      0.2260
    105  O         58.5500  -12.9320   -8.0570 O.2   316  GLU316     -0.2867
    106  CB        60.4170  -14.2120  -10.3630 C.3   316  GLU316      0.0388
    107  CG        61.2220  -15.4280  -10.7860 C.3   316  GLU316      0.1160
    108  CD        61.4010  -16.4730   -9.6890 C.2   316  GLU316      0.3649
    109  OE1       60.9880  -16.2570   -8.5290 O.co2 316  GLU316     -0.2457
    110  OE2       61.9820  -17.5260   -9.9950 O.co2 316  GLU316     -0.2457
    111  N         70.3900  -16.4170  -17.5520 N.3   369  ASN369     -0.1240
    112  CA        70.6300  -16.2000  -16.1220 C.3   369  ASN369      0.1653
    113  C         70.8110  -14.7510  -15.8570 C.2   369  ASN369      0.2266
    114  O         70.6270  -14.3120  -14.7280 O.2   369  ASN369     -0.2867
    115  CB        71.8180  -16.9330  -15.5680 C.3   369  ASN369      0.1155
    116  CG        71.5540  -18.3900  -15.4450 C.2   369  ASN369      0.2627
    117  OD1       72.2500  -19.1790  -16.0790 O.2   369  ASN369     -0.2716
    118  ND2       70.5140  -18.7730  -14.6700 N.am  369  ASN369     -0.0877
    119  N         67.7520  -12.8800  -14.0280 N.3   372  TYR372     -0.1241
    120  CA        67.2980  -13.2330  -12.6870 C.3   372  TYR372      0.1605
    121  C         67.6230  -12.0580  -11.7930 C.2   372  TYR372      0.2264
    122  O         68.4310  -12.1350  -10.8900 O.2   372  TYR372     -0.2867
    123  CB        67.9180  -14.5740  -12.2460 C.3   372  TYR372      0.0534
    124  CG        67.1850  -15.7380  -12.9110 C.ar  372  TYR372     -0.0201
    125  CD1       67.4960  -16.1280  -14.1980 C.ar  372  TYR372     -0.0009
    126  CD2       66.1160  -16.3710  -12.2720 C.ar  372  TYR372     -0.0009
    127  CE1       66.7970  -17.1330  -14.8270 C.ar  372  TYR372      0.0417
    128  CE2       65.4030  -17.3760  -12.8970 C.ar  372  TYR372      0.0417
    129  CZ        65.7570  -17.7600  -14.1710 C.ar  372  TYR372      0.1957
    130  OH        65.0600  -18.7590  -14.7940 O.3   372  TYR372     -0.2866
    131  N         62.4220   -9.7140  -10.3970 N.3   377  TYR377     -0.1241
    132  CA        61.9920  -10.1480   -9.0670 C.3   377  TYR377      0.1605
    133  C         61.2540   -9.0430   -8.3160 C.2   377  TYR377      0.2264
    134  O         60.0500   -9.1220   -8.1340 O.2   377  TYR377     -0.2867
    135  CB        63.1740  -10.6540   -8.2310 C.3   377  TYR377      0.0534
    136  CG        63.5720  -12.0970   -8.4930 C.ar  377  TYR377     -0.0201
    137  CD1       64.1150  -12.4730   -9.6940 C.ar  377  TYR377     -0.0009
    138  CD2       63.4310  -13.0790   -7.5050 C.ar  377  TYR377     -0.0009
    139  CE1       64.5150  -13.7790   -9.9220 C.ar  377  TYR377      0.0417
    140  CE2       63.8180  -14.4030   -7.7180 C.ar  377  TYR377      0.0417
    141  CZ        64.3540  -14.7500   -8.9380 C.ar  377  TYR377      0.1957
    142  OH        64.7450  -16.0460   -9.1900 O.3   377  TYR377     -0.2866
    143  N         78.1300  -17.6800  -14.3990 N.3   817  GLN817     -0.1245
    144  CA        76.9950  -17.0830  -13.6890 C.3   817  GLN817      0.1566
    145  C         77.4420  -16.2220  -12.5120 C.2   817  GLN817      0.2260
    146  O         76.9120  -15.1180  -12.2900 O.2   817  GLN817     -0.2867
    147  CB        76.0790  -18.1540  -13.1550 C.3   817  GLN817      0.0367
    148  CG        75.4440  -19.0230  -14.2240 C.3   817  GLN817      0.0905
    149  CD        74.3040  -19.8520  -13.6650 C.2   817  GLN817      0.2608
    150  OE1       73.7900  -19.5820  -12.5750 O.2   817  GLN817     -0.2717
    151  NE2       73.8920  -20.8460  -14.4070 N.am  817  GLN817     -0.0878
@<TRIPOS>BOND
     1   111   112    1
     2   112   113    1
     3   112   115    1
     4   117   116    2
     5   113   114    2
     6   115   116    1
     7   116   118   am
     8   127   125   ar
     9   127   129   ar
    10   130   129    1
    11    20    19    1
    12    20    21    2
    13   151   149   am
    14   143   144    1
    15    19    18    1
    16    19    22    1
    17   148   149    1
    18   148   147    1
    19   125   124   ar
    20   129   128   ar
    21   119   120    1
    22    23    22    1
    23    23    24    1
    24   144   147    1
    25   144   145    1
    26   149   150    2
    27    12    11    2
    28    26    24   ar
    29   124   126   ar
    30   124   123    1
    31   128   126   ar
    32    24    25   ar
    33   120   123    1
    34   120   121    1
    35    11    10    1
    36   145   146    2
    37     1     2    1
    38     3     4    2
    39     3     2    1
    40   121   122    2
    41     2     5    1
    42    10     9    1
    43    10    13    1
    44    14    13    1
    45    14    15    1
    46    17    15   am
    47   107   106    1
    48   107   108    1
    49   102   103    1
    50    45    43   am
    51   131   132    1
    52    63    62    1
    53   106   103    1
    54    15    16    2
    55     5     6    1
    56   110   108   ar
    57   139   137   ar
    58   139   141   ar
    59   103   104    1
    60   137   136   ar
    61   108   109   ar
    62    72    70   ar
    63    62    61    1
    64    43    42    1
    65    43    44    2
    66    71    70   ar
    67     6     8    1
    68     6     7    1
    69   104   105    2
    70   142   141    1
    71   132   133    1
    72   132   135    1
    73    42    39    1
    74   141   140   ar
    75    70    69    1
    76    61    60    1
    77   100    98   ar
    78   100   101   ar
    79   136   135    1
    80   136   138   ar
    81   133   134    2
    82    98    97   ar
    83    95    94    2
    84   140   138   ar
    85   101    99   ar
    86    39    38    1
    87    39    40    1
    88    69    68    1
    89    67    66    2
    90    60    57    1
    91    50    47    1
    92    66    65    1
    93    97    99   ar
    94    97    96    1
    95    68    65    1
    96    38    29   am
    97    40    46   am
    98    40    41    2
    99    46    47    1
   100    64    65    1
   101    64    58   am
   102    94    93    1
   103    96    93    1
   104    57    58    1
   105    57    56    1
   106    37    35   ar
   107    37    36   ar
   108    47    48    1
   109    93    92    1
   110    35    33   ar
   111    58    59    2
   112    54    53    2
   113    36    34   ar
   114    29    28    1
   115    29    30    2
   116    33    32   ar
   117    82    81   ar
   118    82    80   ar
   119    28    27    1
   120    28    31    1
   121    56    53   am
   122    34    32   ar
   123    53    52    1
   124    32    31    1
   125    81    79   ar
   126    90    89   ar
   127    48    49    2
   128    80    78   ar
   129    91    89   ar
   130    89    88    1
   131    51    52    1
   132    52    55    1
   133    79    78   ar
   134    86    85    2
   135    78    77    1
   136    76    75    2
   137    84    85    1
   138    84    87    1
   139    84    83    1
   140    88    87    1
   141    75    83   am
   142    75    74    1
   143    77    74    1
   144    74    73    1
