@<TRIPOS>MOLECULE
tmp/4xmwA00.pdb
 112 107 0 0 0
SMALL
GASTEIGER

@<TRIPOS>ATOM
      1  N        -60.1190   47.0340   10.9690 N.3   116  GLN116     -0.1245
      2  CA       -58.6560   47.0960   11.1360 C.3   116  GLN116      0.1566
      3  C        -58.3870   46.8110   12.5840 C.2   116  GLN116      0.2260
      4  O        -58.7890   47.6050   13.4180 O.2   116  GLN116     -0.2867
      5  CB       -58.0930   48.4600   10.7450 C.3   116  GLN116      0.0367
      6  CG       -56.6070   48.6010   11.0970 C.3   116  GLN116      0.0905
      7  CD       -55.7660   47.5450   10.4150 C.2   116  GLN116      0.2608
      8  OE1      -56.1240   47.0400    9.3620 O.2   116  GLN116     -0.2717
      9  NE2      -54.6740   47.1720   11.0500 N.am  116  GLN116     -0.0878
     10  N        -55.1660   45.4090   13.8240 N.3   118  GLU118     -0.1245
     11  CA       -53.7840   45.6100   14.3450 C.3   118  GLU118      0.1567
     12  C        -53.5990   47.0900   14.6620 C.2   118  GLU118      0.2260
     13  O        -54.0470   47.9610   13.9050 O.2   118  GLU118     -0.2867
     14  CB       -52.6970   45.1490   13.3850 C.3   118  GLU118      0.0388
     15  CG       -51.2610   45.3460   13.8750 C.3   118  GLU118      0.1160
     16  CD       -50.2240   44.8320   12.9060 C.2   118  GLU118      0.3649
     17  OE1      -50.5380   44.7090   11.7030 O.co2 118  GLU118     -0.2457
     18  OE2      -49.1050   44.5360   13.3140 O.co2 118  GLU118     -0.2457
     19  N        -53.3510   52.6570    6.9770 N.3   257  ALA257     -0.1231
     20  CA       -52.0180   52.2810    6.4500 C.3   257  ALA257      0.1694
     21  C        -52.0930   51.8140    4.9370 C.2   257  ALA257      0.2593
     22  O        -52.9430   52.2830    4.1880 O.2   257  ALA257     -0.2718
     23  CB       -51.3630   51.2920    7.3570 C.3   257  ALA257      0.0304
     24  N        -51.1210   51.0540    4.4560 N.am  258  GLY258     -0.1942
     25  CA       -51.1440   50.5610    3.1160 C.3   258  GLY258      0.2014
     26  C        -52.0200   49.3140    2.9570 C.2   258  GLY258      0.2639
     27  O        -52.7660   49.1450    1.9530 O.2   258  GLY258     -0.2714
     28  N        -51.9110   48.4240    3.9040 N.am  259  ALA259     -0.1963
     29  CA       -52.6950   47.2180    3.8010 C.3   259  ALA259      0.1728
     30  C        -52.5740   46.4210    5.0820 C.2   259  ALA259      0.2616
     31  O        -51.8290   46.8150    5.9750 O.2   259  ALA259     -0.2715
     32  CB       -52.1990   46.3990    2.6100 C.3   259  ALA259      0.0334
     33  N        -53.2570   45.2820    5.1730 N.am  260  MET260     -0.1963
     34  CA       -53.2040   44.4900    6.4050 C.3   260  MET260      0.1736
     35  C        -53.2980   43.0100    6.1080 C.2   260  MET260      0.2616
     36  O        -54.1820   42.5680    5.3220 O.2   260  MET260     -0.2715
     37  CB       -54.3480   44.9290    7.3050 C.3   260  MET260      0.0427
     38  CG       -54.4310   44.1300    8.6060 C.3   260  MET260      0.0599
     39  SD       -52.9080   44.4290    9.5240 S.3   260  MET260     -0.1393
     40  CE       -52.8800   42.9010   10.4320 C.3   260  MET260      0.0692
     41  N        -52.4310   42.2390    6.7280 N.am  261  GLU261     -0.1977
     42  CA       -52.3110   40.7930    6.4220 C.3   261  GLU261      0.1602
     43  C        -53.3130   39.8050    7.0710 C.2   261  GLU261      0.2287
     44  O        -52.9780   38.6490    7.4070 O.2   261  GLU261     -0.2864
     45  CB       -50.9120   40.3320    6.7950 C.3   261  GLU261      0.0415
     46  CG       -50.6710   40.3110    8.2800 C.3   261  GLU261      0.1163
     47  CD       -49.9690   41.5770    8.8260 C.2   261  GLU261      0.3649
     48  OE1      -50.0870   42.6840    8.2070 O.co2 261  GLU261     -0.2457
     49  OE2      -49.2790   41.4510    9.8560 O.co2 261  GLU261     -0.2457
     50  N        -45.8220   41.8420    0.1100 N.3   294  HIS294     -0.1226
     51  CA       -45.5890   42.0010    1.5630 C.3   294  HIS294      0.1752
     52  C        -46.7070   41.3140    2.3780 C.2   294  HIS294      0.2595
     53  O        -46.4280   40.5480    3.2740 O.2   294  HIS294     -0.2718
     54  CB       -45.4670   43.5020    1.8950 C.3   294  HIS294      0.0759
     55  CG       -45.2450   43.8300    3.3430 C.ar  294  HIS294      0.0818
     56  ND1      -44.0060   44.0910    3.8770 N.ar  294  HIS294     -0.2268
     57  CD2      -46.1360   44.0650    4.3300 C.ar  294  HIS294      0.1154
     58  CE1      -44.1370   44.3630    5.1530 C.ar  294  HIS294      0.1986
     59  NE2      -45.4290   44.3410    5.4510 N.ar  294  HIS294     -0.2212
     60  N        -47.9580   41.6210    2.0880 N.am  295  GLU295     -0.1979
     61  CA       -49.0500   41.0850    2.8510 C.3   295  GLU295      0.1602
     62  C        -49.1200   39.5600    2.6410 C.2   295  GLU295      0.2287
     63  O        -49.3710   38.7980    3.5760 O.2   295  GLU295     -0.2864
     64  CB       -50.3300   41.7250    2.4260 C.3   295  GLU295      0.0415
     65  CG       -50.4620   43.2490    2.6100 C.3   295  GLU295      0.1163
     66  CD       -49.9600   43.7180    3.9450 C.2   295  GLU295      0.3649
     67  OE1      -50.1570   42.9670    4.9140 O.co2 295  GLU295     -0.2457
     68  OE2      -49.3620   44.8140    3.9750 O.co2 295  GLU295     -0.2457
     69  N        -42.1970   42.4790   10.9730 N.3   317  GLU317     -0.1245
     70  CA       -42.1170   43.5670    9.9670 C.3   317  GLU317      0.1567
     71  C        -40.7680   43.7150    9.2770 C.2   317  GLU317      0.2260
     72  O        -40.6880   43.9500    8.0410 O.2   317  GLU317     -0.2867
     73  CB       -42.5640   44.8440   10.5440 C.3   317  GLU317      0.0388
     74  CG       -43.9920   44.8730   11.0010 C.3   317  GLU317      0.1160
     75  CD       -44.9370   44.5440    9.8780 C.2   317  GLU317      0.3649
     76  OE1      -44.5170   44.5780    8.6740 O.co2 317  GLU317     -0.2457
     77  OE2      -46.1030   44.2650   10.2160 O.co2 317  GLU317     -0.2457
     78  N        -45.1550   51.7580   14.2450 N.3   373  TYR373     -0.1241
     79  CA       -45.1830   51.1470   12.9080 C.3   373  TYR373      0.1605
     80  C        -44.2330   52.0430   12.0410 C.2   373  TYR373      0.2264
     81  O        -44.6690   52.7520   11.1650 O.2   373  TYR373     -0.2867
     82  CB       -46.6830   51.0470   12.3530 C.3   373  TYR373      0.0534
     83  CG       -47.3420   49.8810   13.0690 C.ar  373  TYR373     -0.0201
     84  CD1      -47.7140   49.9750   14.4240 C.ar  373  TYR373     -0.0009
     85  CD2      -47.4590   48.6610   12.4510 C.ar  373  TYR373     -0.0009
     86  CE1      -48.1770   48.8770   15.1050 C.ar  373  TYR373      0.0417
     87  CE2      -47.9390   47.5590   13.1170 C.ar  373  TYR373      0.0417
     88  CZ       -48.3320   47.6720   14.4470 C.ar  373  TYR373      0.1957
     89  OH       -48.7350   46.5510   15.0940 O.3   373  TYR373     -0.2866
     90  N        -39.5280   48.8300   10.5420 N.3   378  TYR378     -0.1241
     91  CA       -39.7260   48.2620    9.1850 C.3   378  TYR378      0.1605
     92  C        -38.4090   48.2350    8.3910 C.2   378  TYR378      0.2264
     93  O        -37.8640   47.1740    8.0840 O.2   378  TYR378     -0.2867
     94  CB       -40.7760   49.0650    8.4160 C.3   378  TYR378      0.0534
     95  CG       -42.2260   48.6970    8.7040 C.ar  378  TYR378     -0.0201
     96  CD1      -43.0660   48.1700    7.7050 C.ar  378  TYR378     -0.0009
     97  CD2      -42.7610   48.8550    9.9670 C.ar  378  TYR378     -0.0009
     98  CE1      -44.4090   47.7730    7.9820 C.ar  378  TYR378      0.0417
     99  CE2      -44.0660   48.5040   10.2310 C.ar  378  TYR378      0.0417
    100  CZ       -44.8960   47.9610    9.2410 C.ar  378  TYR378      0.1957
    101  OH       -46.1930   47.5700    9.6150 O.3   378  TYR378     -0.2866
    102  N        -48.9690   60.8260   12.2430 N.3   822  ARG822     -0.1245
    103  CA       -48.0910   60.7910   11.0440 C.3   822  ARG822      0.1563
    104  C        -47.7020   62.2090   10.6770 C.2   822  ARG822      0.2260
    105  O        -46.5710   62.5050   10.3600 O.2   822  ARG822     -0.2867
    106  CB       -48.8310   60.2450    9.8080 C.3   822  ARG822      0.0307
    107  CG       -48.8750   58.7690    9.6490 C.3   822  ARG822      0.0489
    108  CD       -49.4880   58.3260    8.2810 C.3   822  ARG822      0.2205
    109  NE       -48.5190   57.3560    7.7700 N.pl3 822  ARG822     -0.0865
    110  CZ       -48.6560   56.0360    7.7740 C.cat 822  ARG822      0.5346
    111  NH1      -49.8010   55.4410    8.1460 N.pl3 822  ARG822      0.1354
    112  NH2      -47.6350   55.3090    7.3270 N.pl3 822  ARG822      0.1354
@<TRIPOS>BOND
     1    50    51    1
     2    51    54    1
     3    51    52    1
     4    54    55    1
     5    27    26    2
     6    60    52   am
     7    60    61    1
     8    52    53    2
     9    64    65    1
    10    64    61    1
    11    65    66    1
    12    32    29    1
    13    62    61    1
    14    62    63    2
    15    26    25    1
    16    26    28   am
    17    25    24    1
    18    55    56   ar
    19    55    57   ar
    20    29    28    1
    21    29    30    1
    22    56    58   ar
    23    66    68   ar
    24    66    67   ar
    25    22    21    2
    26    57    59   ar
    27    24    21   am
    28    21    20    1
    29    30    33   am
    30    30    31    2
    31    58    59   ar
    32    33    34    1
    33    36    35    2
    34    35    34    1
    35    35    41   am
    36    34    37    1
    37    42    41    1
    38    42    45    1
    39    42    43    1
    40    20    19    1
    41    20    23    1
    42    45    46    1
    43    43    44    2
    44    37    38    1
    45   112   110    1
    46    96    98   ar
    47    96    95   ar
    48   109   110    2
    49   109   108    1
    50   110   111    1
    51    98   100   ar
    52    72    71    2
    53    93    92    2
    54    48    47   ar
    55    46    47    1
    56   108   107    1
    57    92    91    1
    58    94    95    1
    59    94    91    1
    60    38    39    1
    61    76    75   ar
    62    95    97   ar
    63    47    49   ar
    64    91    90    1
    65   100   101    1
    66   100    99   ar
    67    71    70    1
    68     8     7    2
    69    39    40    1
    70   107   106    1
    71   106   103    1
    72    75    77   ar
    73    75    74    1
    74    70    73    1
    75    70    69    1
    76    97    99   ar
    77   105   104    2
    78     7     9   am
    79     7     6    1
    80    73    74    1
    81   104   103    1
    82     5     6    1
    83     5     2    1
    84     1     2    1
    85   103   102    1
    86     2     3    1
    87    81    80    2
    88    17    16   ar
    89    80    79    1
    90    82    79    1
    91    82    83    1
    92    85    83   ar
    93    85    87   ar
    94     3     4    2
    95    16    18   ar
    96    16    15    1
    97    79    78    1
    98    83    84   ar
    99    87    88   ar
   100    14    15    1
   101    14    11    1
   102    10    11    1
   103    13    12    2
   104    11    12    1
   105    84    86   ar
   106    88    89    1
   107    88    86   ar
