@<TRIPOS>MOLECULE
tmp/4xmxA07.pdb
 91 91 0 0 0
SMALL
GASTEIGER

@<TRIPOS>ATOM
      1  N         51.2100   21.4860   -5.7230 N.3   448  ASP448     -0.1225
      2  CA        49.9380   21.7100   -5.0220 C.3   448  ASP448      0.1805
      3  C         49.6010   23.1410   -4.7790 C.2   448  ASP448      0.2598
      4  O         50.4290   24.0490   -4.8740 O.2   448  ASP448     -0.2718
      5  CB        49.8650   20.9330   -3.7270 C.3   448  ASP448      0.1424
      6  CG        51.0110   21.2260   -2.7430 C.2   448  ASP448      0.3668
      7  OD1       51.9290   22.0160   -3.0510 O.co2 448  ASP448     -0.2456
      8  OD2       50.9860   20.6040   -1.6360 O.co2 448  ASP448     -0.2456
      9  N         48.3270   23.3310   -4.5370 N.am  449  ASP449     -0.1960
     10  CA        47.8010   24.6240   -4.2170 C.3   449  ASP449      0.1840
     11  C         46.6890   24.4930   -3.1880 C.2   449  ASP449      0.2622
     12  O         45.9080   23.5770   -3.2510 O.2   449  ASP449     -0.2715
     13  CB        47.2660   25.3640   -5.4540 C.3   449  ASP449      0.1450
     14  CG        46.6780   26.7100   -5.0580 C.2   449  ASP449      0.3671
     15  OD1       47.4650   27.6460   -4.7410 O.co2 449  ASP449     -0.2456
     16  OD2       45.4580   26.7440   -4.8920 O.co2 449  ASP449     -0.2456
     17  N         46.6570   25.4120   -2.2370 N.am  450  TYR450     -0.1974
     18  CA        45.5480   25.5240   -1.3060 C.3   450  TYR450      0.1639
     19  C         44.8530   26.8490   -1.4730 C.2   450  TYR450      0.2290
     20  O         45.5080   27.9150   -1.4890 O.2   450  TYR450     -0.2864
     21  CB        45.9450   25.3670    0.1620 C.3   450  TYR450      0.0560
     22  CG        44.7740   25.3460    1.1500 C.ar  450  TYR450     -0.0198
     23  CD1       43.8170   24.3400    1.1040 C.ar  450  TYR450     -0.0009
     24  CD2       44.6370   26.3260    2.1370 C.ar  450  TYR450     -0.0009
     25  CE1       42.7590   24.3080    1.9960 C.ar  450  TYR450      0.0417
     26  CE2       43.5730   26.3060    3.0560 C.ar  450  TYR450      0.0417
     27  CZ        42.6340   25.3070    2.9660 C.ar  450  TYR450      0.1957
     28  OH        41.5990   25.2430    3.8450 O.3   450  TYR450     -0.2866
     29  N         41.9370   21.9490   -2.2210 N.3   457  TYR457     -0.1241
     30  CA        43.3280   21.5980   -2.4190 C.3   457  TYR457      0.1605
     31  C         43.4290   20.9760   -3.7720 C.2   457  TYR457      0.2264
     32  O         42.7310   20.0170   -4.0790 O.2   457  TYR457     -0.2867
     33  CB        43.7370   20.6200   -1.3360 C.3   457  TYR457      0.0534
     34  CG        45.1700   20.1410   -1.3640 C.ar  457  TYR457     -0.0201
     35  CD1       46.2210   20.9690   -1.0260 C.ar  457  TYR457     -0.0009
     36  CD2       45.4670   18.8340   -1.7020 C.ar  457  TYR457     -0.0009
     37  CE1       47.5240   20.5060   -1.0110 C.ar  457  TYR457      0.0417
     38  CE2       46.7700   18.3620   -1.6900 C.ar  457  TYR457      0.0417
     39  CZ        47.7870   19.1930   -1.3230 C.ar  457  TYR457      0.1957
     40  OH        49.0610   18.6910   -1.3340 O.3   457  TYR457     -0.2866
     41  N         44.8710   24.1380    5.6310 N.3   523  GLN523     -0.1231
     42  CA        45.9340   23.8880    4.6920 C.3   523  GLN523      0.1683
     43  C         46.6370   22.5990    5.0850 C.2   523  GLN523      0.2434
     44  O         47.1220   22.4850    6.1780 O.2   523  GLN523     -0.2733
     45  CB        46.9200   25.0340    4.7190 C.3   523  GLN523      0.0380
     46  CG        47.9450   24.9730    3.6340 C.3   523  GLN523      0.0905
     47  CD        48.7650   26.2590    3.5560 C.2   523  GLN523      0.2608
     48  OE1       48.2440   27.3490    3.3890 O.2   523  GLN523     -0.2717
     49  NE2       50.0340   26.1250    3.7040 N.am  523  GLN523     -0.0878
     50  N         46.6270   21.5990    4.2100 N.am  524  PRO524     -0.2718
     51  CA        47.0690   20.2730    4.5930 C.3   524  PRO524      0.1535
     52  C         48.5560   20.0060    4.4520 C.2   524  PRO524      0.2598
     53  O         49.2130   20.5890    3.6100 O.2   524  PRO524     -0.2715
     54  CB        46.3410   19.3860    3.6000 C.3   524  PRO524      0.0310
     55  CG        46.2430   20.2250    2.3990 C.3   524  PRO524      0.0237
     56  CD        46.1720   21.6510    2.8270 C.3   524  PRO524      0.0939
     57  N         49.0870   19.1700    5.3190 N.am  525  VAL525     -0.1964
     58  CA        50.3550   18.4940    5.0240 C.3   525  VAL525      0.1712
     59  C         50.0100   17.1630    4.3430 C.2   525  VAL525      0.2458
     60  O         49.3610   16.3150    4.9320 O.2   525  VAL525     -0.2730
     61  CB        51.1790   18.1910    6.2450 C.3   525  VAL525      0.0289
     62  CG1       52.5510   17.6990    5.7970 C.3   525  VAL525      0.0023
     63  CG2       51.3210   19.4340    7.1680 C.3   525  VAL525      0.0023
     64  N         50.4150   17.0030    3.0720 N.am  526  PRO526     -0.2727
     65  CA        50.1880   15.7810    2.3470 C.3   526  PRO526      0.1402
     66  C         51.2120   14.6850    2.6550 C.2   526  PRO526      0.2269
     67  O         52.4080   14.9600    2.7880 O.2   526  PRO526     -0.2865
     68  CB        50.3380   16.2150    0.8870 C.3   526  PRO526      0.0296
     69  CG        51.3840   17.2470    0.9550 C.3   526  PRO526      0.0237
     70  CD        51.1640   17.9810    2.2730 C.3   526  PRO526      0.0939
     71  N         58.7240   16.3680   -5.2540 N.3   540  TYR540     -0.1241
     72  CA        57.8210   17.3010   -4.5920 C.3   540  TYR540      0.1605
     73  C         58.6500   18.0690   -3.6030 C.2   540  TYR540      0.2264
     74  O         59.4560   17.5090   -2.9060 O.2   540  TYR540     -0.2867
     75  CB        56.7410   16.5970   -3.8460 C.3   540  TYR540      0.0534
     76  CG        55.8260   17.5020   -2.9870 C.ar  540  TYR540     -0.0201
     77  CD1       54.7270   18.1360   -3.5400 C.ar  540  TYR540     -0.0009
     78  CD2       56.0620   17.6810   -1.6360 C.ar  540  TYR540     -0.0009
     79  CE1       53.8780   18.9380   -2.7800 C.ar  540  TYR540      0.0417
     80  CE2       55.2670   18.5120   -0.8810 C.ar  540  TYR540      0.0417
     81  CZ        54.1480   19.1220   -1.4480 C.ar  540  TYR540      0.1957
     82  OH        53.3160   19.9240   -0.6940 O.3   540  TYR540     -0.2866
     83  N         57.2090   20.1240    7.1830 N.3   546  GLN546     -0.1245
     84  CA        56.2890   19.0960    6.6750 C.3   546  GLN546      0.1566
     85  C         56.8160   17.6730    6.9700 C.2   546  GLN546      0.2260
     86  O         56.0390   16.8020    7.4090 O.2   546  GLN546     -0.2867
     87  CB        56.1320   19.2270    5.2050 C.3   546  GLN546      0.0367
     88  CG        55.3060   20.4430    4.7870 C.3   546  GLN546      0.0905
     89  CD        55.1510   20.5780    3.2800 C.2   546  GLN546      0.2608
     90  OE1       56.1010   20.4740    2.5200 O.2   546  GLN546     -0.2717
     91  NE2       53.9350   20.8020    2.8430 N.am  546  GLN546     -0.0878
@<TRIPOS>BOND
     1     1     2    1
     2    13    14    1
     3    13    10    1
     4    71    72    1
     5    14    16   ar
     6    14    15   ar
     7     2     3    1
     8     2     5    1
     9     4     3    2
    10     3     9   am
    11    72    75    1
    12    72    73    1
    13     9    10    1
    14    10    11    1
    15    32    31    2
    16    75    76    1
    17    31    30    1
    18     5     6    1
    19    73    74    2
    20    77    76   ar
    21    77    79   ar
    22    12    11    2
    23    11    17   am
    24     7     6   ar
    25    76    78   ar
    26    79    81   ar
    27     6     8   ar
    28    30    29    1
    29    30    33    1
    30    17    18    1
    31    36    38   ar
    32    36    34   ar
    33    38    39   ar
    34    78    80   ar
    35    20    19    2
    36    19    18    1
    37    81    80   ar
    38    81    82    1
    39    34    33    1
    40    34    35   ar
    41    40    39    1
    42    39    37   ar
    43    18    21    1
    44    35    37   ar
    45    21    22    1
    46    68    69    1
    47    68    65    1
    48    69    70    1
    49    23    22   ar
    50    23    25   ar
    51    22    24   ar
    52    25    27   ar
    53    24    26   ar
    54    70    64    1
    55    65    66    1
    56    65    64    1
    57    55    56    1
    58    55    54    1
    59    90    89    2
    60    66    67    2
    61    56    50    1
    62    91    89   am
    63    27    26   ar
    64    27    28    1
    65    64    59   am
    66    89    88    1
    67    48    47    2
    68    47    46    1
    69    47    49   am
    70    54    51    1
    71    53    52    2
    72    46    45    1
    73    50    51    1
    74    50    43   am
    75    59    60    2
    76    59    58    1
    77    52    51    1
    78    52    57   am
    79    42    45    1
    80    42    43    1
    81    42    41    1
    82    88    87    1
    83    58    57    1
    84    58    61    1
    85    43    44    2
    86    87    84    1
    87    62    61    1
    88    61    63    1
    89    84    85    1
    90    84    83    1
    91    85    86    2
