@<TRIPOS>MOLECULE
tmp/4xmxA03.pdb
 76 69 0 0 0
SMALL
GASTEIGER

@<TRIPOS>ATOM
      1  N         72.1890  -14.9120   12.5180 N.3   280  THR280     -0.1203
      2  CA        71.5820  -13.6700   13.0470 C.3   280  THR280      0.1994
      3  C         70.0450  -13.6550   12.8480 C.2   280  THR280      0.2617
      4  O         69.5140  -14.4470   12.0560 O.2   280  THR280     -0.2717
      5  CB        72.1220  -12.4540   12.2690 C.3   280  THR280      0.1784
      6  OG1       71.7900  -12.5820   10.8790 O.3   280  THR280     -0.2211
      7  CG2       73.6600  -12.3630   12.3570 C.3   280  THR280      0.0376
      8  N         69.3720  -12.6770   13.4770 N.am  281  ASP281     -0.1973
      9  CA        67.9390  -12.4440   13.3000 C.3   281  ASP281      0.1709
     10  C         67.6750  -12.3970   11.7840 C.2   281  ASP281      0.2293
     11  O         66.8160  -13.0420   11.2910 O.2   281  ASP281     -0.2864
     12  CB        67.5230  -11.1330   13.9080 C.3   281  ASP281      0.1436
     13  CG        67.5580  -11.1450   15.4780 C.2   281  ASP281      0.3671
     14  OD1       67.4040  -12.2270   16.0920 O.co2 281  ASP281     -0.2456
     15  OD2       67.7310  -10.0540   16.0770 O.co2 281  ASP281     -0.2456
     16  N         68.4390    3.9620   11.0130 N.3   614  THR614     -0.1218
     17  CA        69.3470    3.2600   10.1770 C.3   614  THR614      0.1862
     18  C         69.5230    4.1440    8.9830 C.2   614  THR614      0.2287
     19  O         68.5810    4.3320    8.2080 O.2   614  THR614     -0.2866
     20  CB        68.7660    1.9380    9.7690 C.3   614  THR614      0.1770
     21  OG1       68.7140    1.1360   10.9290 O.3   614  THR614     -0.2211
     22  CG2       69.6760    1.2380    8.7420 C.3   614  THR614      0.0375
     23  N         66.0830   -5.6800   19.7240 N.3   674  ARG674     -0.1231
     24  CA        67.4790   -5.9360   19.5230 C.3   674  ARG674      0.1694
     25  C         68.0050   -5.1460   18.2880 C.2   674  ARG674      0.2592
     26  O         69.1630   -4.6580   18.2850 O.2   674  ARG674     -0.2718
     27  CB        67.6960   -7.4130   19.4190 C.3   674  ARG674      0.0321
     28  CG        69.0930   -7.8180   19.0200 C.3   674  ARG674      0.0489
     29  CD        69.3960   -9.3340   19.2220 C.3   674  ARG674      0.2205
     30  NE        68.3240  -10.1890   18.7060 N.pl3 674  ARG674     -0.0865
     31  CZ        67.4030  -10.7820   19.4450 C.cat 674  ARG674      0.5346
     32  NH1       67.4010  -10.6740   20.7750 N.pl3 674  ARG674      0.1354
     33  NH2       66.4660  -11.5080   18.8670 N.pl3 674  ARG674      0.1354
     34  N         67.1580   -4.9650   17.2830 N.am  675  THR675     -0.1953
     35  CA        67.6160   -4.3010   16.0610 C.3   675  THR675      0.1897
     36  C         67.8460   -2.8030   16.4320 C.2   675  THR675      0.2313
     37  O         68.7840   -2.1740   15.9620 O.2   675  THR675     -0.2863
     38  CB        66.5800   -4.4390   14.9170 C.3   675  THR675      0.1794
     39  OG1       66.3110   -5.8340   14.6660 O.3   675  THR675     -0.2208
     40  CG2       67.0410   -3.7450   13.6210 C.3   675  THR675      0.0378
     41  N         71.0650   -2.4180   18.5840 N.3   678  ASN678     -0.1225
     42  CA        72.3000   -2.4790   17.8280 C.3   678  ASN678      0.1785
     43  C         72.4510   -1.3060   16.8540 C.2   678  ASN678      0.2597
     44  O         73.5560   -0.9690   16.4400 O.2   678  ASN678     -0.2718
     45  CB        72.3840   -3.8130   17.1400 C.3   678  ASN678      0.1169
     46  CG        72.6460   -4.9250   18.1190 C.2   678  ASN678      0.2627
     47  OD1       73.2870   -4.7220   19.1380 O.2   678  ASN678     -0.2716
     48  ND2       72.1500   -6.0970   17.8140 N.am  678  ASN678     -0.0877
     49  N         71.3500   -0.6550   16.5390 N.am  679  ALA679     -0.1979
     50  CA        71.4490    0.5610   15.7680 C.3   679  ALA679      0.1597
     51  C         72.0810    1.6230   16.6610 C.2   679  ALA679      0.2287
     52  O         72.9880    2.3600   16.1990 O.2   679  ALA679     -0.2864
     53  CB        70.1030    0.9950   15.2790 C.3   679  ALA679      0.0319
     54  N         75.6630    1.1340   16.9680 N.3   682  ARG682     -0.1245
     55  CA        76.4050    1.4530   15.7910 C.3   682  ARG682      0.1563
     56  C         76.8090    2.9520   15.8620 C.2   682  ARG682      0.2260
     57  O         77.9640    3.2770   15.6440 O.2   682  ARG682     -0.2867
     58  CB        75.5440    1.1600   14.5400 C.3   682  ARG682      0.0307
     59  CG        76.2330    1.4870   13.2570 C.3   682  ARG682      0.0489
     60  CD        77.3880    0.5680   13.0720 C.3   682  ARG682      0.2205
     61  NE        77.7470    0.5580   11.6630 N.pl3 682  ARG682     -0.0865
     62  CZ        78.0990   -0.5120   10.9700 C.cat 682  ARG682      0.5346
     63  NH1       78.1380   -1.7050   11.5450 N.pl3 682  ARG682      0.1354
     64  NH2       78.4530   -0.3770    9.6940 N.pl3 682  ARG682      0.1354
     65  N         73.6680  -12.4820   16.5340 N.3   707  THR707     -0.1218
     66  CA        73.2100  -11.1880   16.1270 C.3   707  THR707      0.1862
     67  C         74.0060  -10.1060   16.8800 C.2   707  THR707      0.2287
     68  O         74.5580   -9.1630   16.2780 O.2   707  THR707     -0.2866
     69  CB        71.7460  -11.0370   16.4230 C.3   707  THR707      0.1770
     70  OG1       70.9910  -12.0260   15.7270 O.3   707  THR707     -0.2211
     71  CG2       71.2500   -9.7240   16.0200 C.3   707  THR707      0.0375
     72  N         77.0290   -7.6720   15.4290 N.3   711  ALA711     -0.1245
     73  CA        76.7660   -6.2320   15.3310 C.3   711  ALA711      0.1562
     74  C         77.9520   -5.5120   16.0140 C.2   711  ALA711      0.2260
     75  O         78.4210   -4.5160   15.5620 O.2   711  ALA711     -0.2867
     76  CB        75.4540   -5.9120   16.0290 C.3   711  ALA711      0.0290
@<TRIPOS>BOND
     1    19    18    2
     2    22    20    1
     3    18    17    1
     4    64    62    1
     5    20    17    1
     6    20    21    1
     7    17    16    1
     8     6     5    1
     9    62    63    1
    10    62    61    2
    11    11    10    2
    12    61    60    1
    13    10     9    1
    14     4     3    2
    15     5     7    1
    16     5     2    1
    17     1     2    1
    18     3     2    1
    19     3     8   am
    20    60    59    1
    21    59    58    1
    22     9     8    1
    23     9    12    1
    24    40    38    1
    25    12    13    1
    26    58    55    1
    27    39    38    1
    28    38    35    1
    29    53    50    1
    30    73    72    1
    31    73    74    1
    32    73    76    1
    33    13    15   ar
    34    13    14   ar
    35    75    74    2
    36    57    56    2
    37    70    69    1
    38    50    49    1
    39    50    51    1
    40    55    56    1
    41    55    54    1
    42    37    36    2
    43    71    69    1
    44    35    36    1
    45    35    34    1
    46    66    69    1
    47    66    65    1
    48    66    67    1
    49    52    51    2
    50    68    67    2
    51    44    43    2
    52    49    43   am
    53    43    42    1
    54    45    42    1
    55    45    46    1
    56    34    25   am
    57    48    46   am
    58    42    41    1
    59    46    47    2
    60    26    25    2
    61    25    24    1
    62    30    29    1
    63    30    31    2
    64    33    31    1
    65    28    29    1
    66    28    27    1
    67    27    24    1
    68    31    32    1
    69    24    23    1
