@<TRIPOS>MOLECULE
tmp/4xmzA00.pdb
 131 126 0 0 0
SMALL
GASTEIGER

@<TRIPOS>ATOM
      1  N         49.6400  -28.7140  -39.6480 N.3   116  GLN116     -0.1245
      2  CA        48.8870  -29.9520  -39.8350 C.3   116  GLN116      0.1566
      3  C         48.9340  -30.3750  -41.3150 C.2   116  GLN116      0.2260
      4  O         48.3970  -29.6630  -42.1720 O.2   116  GLN116     -0.2867
      5  CB        47.4480  -29.8240  -39.3350 C.3   116  GLN116      0.0367
      6  CG        46.5510  -31.0290  -39.6440 C.3   116  GLN116      0.0905
      7  CD        47.0500  -32.2910  -38.9730 C.2   116  GLN116      0.2608
      8  OE1       47.6210  -32.2320  -37.8740 O.2   116  GLN116     -0.2717
      9  NE2       46.8420  -33.4300  -39.6150 N.am  116  GLN116     -0.0878
     10  N         48.4650  -33.9220  -42.5150 N.3   118  GLU118     -0.1245
     11  CA        47.6030  -35.0170  -42.9650 C.3   118  GLU118      0.1567
     12  C         46.2090  -34.4870  -43.2840 C.2   118  GLU118      0.2260
     13  O         45.6580  -33.7160  -42.4930 O.2   118  GLU118     -0.2867
     14  CB        47.4660  -36.1480  -41.9290 C.3   118  GLU118      0.0388
     15  CG        46.6920  -37.3220  -42.4830 C.3   118  GLU118      0.1160
     16  CD        46.6000  -38.5350  -41.5630 C.2   118  GLU118      0.3649
     17  OE1       47.0360  -38.4240  -40.4210 O.co2 118  GLU118     -0.2457
     18  OE2       46.1200  -39.6030  -41.9860 O.co2 118  GLU118     -0.2457
     19  N         41.5440  -31.7870  -35.8330 N.3   257  ALA257     -0.1231
     20  CA        41.4410  -33.1630  -35.3250 C.3   257  ALA257      0.1694
     21  C         41.5130  -33.2170  -33.7630 C.2   257  ALA257      0.2593
     22  O         41.3480  -32.1850  -33.0200 O.2   257  ALA257     -0.2718
     23  CB        42.5730  -33.9910  -35.9380 C.3   257  ALA257      0.0304
     24  N         41.7000  -34.4200  -33.2550 N.am  258  GLY258     -0.1942
     25  CA        42.0330  -34.6640  -31.9000 C.3   258  GLY258      0.2014
     26  C         43.5440  -34.5230  -31.7410 C.2   258  GLY258      0.2639
     27  O         44.0110  -33.8330  -30.8160 O.2   258  GLY258     -0.2714
     28  N         44.2740  -35.1870  -32.6060 N.am  259  ALA259     -0.1963
     29  CA        45.7030  -35.2030  -32.4690 C.3   259  ALA259      0.1728
     30  C         46.3790  -35.8380  -33.6850 C.2   259  ALA259      0.2616
     31  O         45.7080  -36.4050  -34.5380 O.2   259  ALA259     -0.2715
     32  CB        46.0840  -35.9560  -31.2020 C.3   259  ALA259      0.0334
     33  N         47.7050  -35.7370  -33.7500 N.am  260  MET260     -0.1963
     34  CA        48.4020  -36.1260  -34.9370 C.3   260  MET260      0.1736
     35  C         49.7490  -36.7350  -34.6160 C.2   260  MET260      0.2616
     36  O         50.5680  -36.1470  -33.8700 O.2   260  MET260     -0.2715
     37  CB        48.5950  -34.9260  -35.8210 C.3   260  MET260      0.0427
     38  CG        49.3200  -35.2330  -37.1210 C.3   260  MET260      0.0599
     39  SD        48.3110  -36.3250  -38.1590 S.3   260  MET260     -0.1393
     40  CE        49.6470  -37.1610  -39.0170 C.3   260  MET260      0.0692
     41  N         50.0220  -37.8400  -35.2830 N.am  261  GLU261     -0.1977
     42  CA        51.1830  -38.6790  -34.9810 C.3   261  GLU261      0.1602
     43  C         52.5140  -38.3280  -35.6460 C.2   261  GLU261      0.2287
     44  O         53.3600  -39.2120  -35.9760 O.2   261  GLU261     -0.2864
     45  CB        50.8110  -40.1180  -35.3330 C.3   261  GLU261      0.0415
     46  CG        50.6630  -40.4080  -36.8210 C.3   261  GLU261      0.1163
     47  CD        49.2480  -40.2860  -37.3560 C.2   261  GLU261      0.3649
     48  OE1       48.3930  -39.5930  -36.7490 O.co2 261  GLU261     -0.2457
     49  OE2       49.0110  -40.8800  -38.4260 O.co2 261  GLU261     -0.2457
     50  N         47.0730  -43.7770  -28.7270 N.3   294  HIS294     -0.1226
     51  CA        46.7920  -43.8770  -30.1380 C.3   294  HIS294      0.1752
     52  C         47.9040  -43.2380  -30.9740 C.2   294  HIS294      0.2595
     53  O         48.4280  -43.9070  -31.8320 O.2   294  HIS294     -0.2718
     54  CB        45.4100  -43.2190  -30.4130 C.3   294  HIS294      0.0759
     55  CG        44.9870  -43.2530  -31.8450 C.ar  294  HIS294      0.0818
     56  ND1       44.1130  -44.1930  -32.3510 N.ar  294  HIS294     -0.2268
     57  CD2       45.3660  -42.4890  -32.8880 C.ar  294  HIS294      0.1154
     58  CE1       43.9470  -43.9750  -33.6290 C.ar  294  HIS294      0.1986
     59  NE2       44.7320  -42.9750  -33.9830 N.ar  294  HIS294     -0.2212
     60  N         48.2800  -41.9850  -30.6950 N.am  295  GLU295     -0.1979
     61  CA        49.2930  -41.3190  -31.4790 C.3   295  GLU295      0.1602
     62  C         50.6400  -42.0300  -31.2510 C.2   295  GLU295      0.2287
     63  O         51.3490  -42.2140  -32.1700 O.2   295  GLU295     -0.2864
     64  CB        49.3920  -39.8420  -31.1670 C.3   295  GLU295      0.0415
     65  CG        48.0730  -39.0460  -31.2400 C.3   295  GLU295      0.1163
     66  CD        47.2020  -39.3240  -32.4960 C.2   295  GLU295      0.3649
     67  OE1       47.7720  -39.7790  -33.5270 O.co2 295  GLU295     -0.2457
     68  OE2       45.9390  -39.1510  -32.4160 O.co2 295  GLU295     -0.2457
     69  N         50.7880  -45.2370  -33.3800 N.3   298  HIS298     -0.1241
     70  CA        51.0660  -44.9250  -34.7790 C.3   298  HIS298      0.1621
     71  C         52.5580  -44.9520  -35.1500 C.2   298  HIS298      0.2264
     72  O         52.8850  -45.0320  -36.3340 O.2   298  HIS298     -0.2867
     73  CB        50.5200  -43.5440  -35.1720 C.3   298  HIS298      0.0745
     74  CG        49.1330  -43.5430  -35.7110 C.ar  298  HIS298      0.0817
     75  ND1       48.7460  -44.3310  -36.7840 N.ar  298  HIS298     -0.2268
     76  CD2       48.0570  -42.7850  -35.3700 C.ar  298  HIS298      0.1154
     77  CE1       47.4820  -44.0850  -37.0450 C.ar  298  HIS298      0.1986
     78  NE2       47.0430  -43.1610  -36.2010 N.ar  298  HIS298     -0.2212
     79  N         46.2710  -48.0140  -41.3130 N.3   316  LYS316     -0.1231
     80  CA        46.8640  -47.4510  -40.1240 C.3   316  LYS316      0.1693
     81  C         45.8210  -47.1060  -39.0640 C.2   316  LYS316      0.2591
     82  O         46.0550  -47.3280  -37.8730 O.2   316  LYS316     -0.2718
     83  CB        47.8130  -46.2570  -40.4220 C.3   316  LYS316      0.0285
     84  CG        47.1670  -44.9490  -40.8740 C.3   316  LYS316      0.0035
     85  CD        48.2450  -43.9180  -41.1070 C.3   316  LYS316      0.0206
     86  CE        47.7630  -42.5640  -41.5700 C.3   316  LYS316      0.1093
     87  NZ        47.0880  -41.7190  -40.5710 N.3   316  LYS316     -0.1314
     88  N         44.6450  -46.6740  -39.4750 N.am  317  GLU317     -0.1979
     89  CA        43.6620  -46.2340  -38.4840 C.3   317  GLU317      0.1602
     90  C         42.8360  -47.3570  -37.8410 C.2   317  GLU317      0.2287
     91  O         42.5760  -47.3470  -36.6010 O.2   317  GLU317     -0.2864
     92  CB        42.7560  -45.1630  -39.0740 C.3   317  GLU317      0.0415
     93  CG        43.4500  -43.9070  -39.5660 C.3   317  GLU317      0.1163
     94  CD        44.2180  -43.2520  -38.4610 C.2   317  GLU317      0.3649
     95  OE1       43.8690  -43.5180  -37.2620 O.co2 317  GLU317     -0.2457
     96  OE2       45.1220  -42.4430  -38.7700 O.co2 317  GLU317     -0.2457
     97  N         38.0200  -39.5210  -42.7400 N.3   373  TYR373     -0.1241
     98  CA        38.5410  -39.7890  -41.4300 C.3   373  TYR373      0.1605
     99  C         37.3030  -40.1840  -40.6020 C.2   373  TYR373      0.2264
    100  O         36.8850  -39.4410  -39.7160 O.2   373  TYR373     -0.2867
    101  CB        39.3780  -38.5420  -40.8820 C.3   373  TYR373      0.0534
    102  CG        40.7410  -38.5370  -41.6290 C.ar  373  TYR373     -0.0201
    103  CD1       40.8310  -38.1720  -42.9800 C.ar  373  TYR373     -0.0009
    104  CD2       41.8810  -39.0530  -41.0200 C.ar  373  TYR373     -0.0009
    105  CE1       42.0440  -38.2830  -43.6720 C.ar  373  TYR373      0.0417
    106  CE2       43.0960  -39.1890  -41.6680 C.ar  373  TYR373      0.0417
    107  CZ        43.1740  -38.7910  -42.9960 C.ar  373  TYR373      0.1957
    108  OH        44.3160  -38.9260  -43.6860 O.3   373  TYR373     -0.2866
    109  N         37.7910  -45.7610  -39.0480 N.3   378  TYR378     -0.1241
    110  CA        38.3460  -45.8580  -37.7060 C.3   378  TYR378      0.1605
    111  C         37.7380  -47.0110  -36.9120 C.2   378  TYR378      0.2264
    112  O         38.4120  -48.0130  -36.6520 O.2   378  TYR378     -0.2867
    113  CB        38.1830  -44.5460  -36.9170 C.3   378  TYR378      0.0534
    114  CG        39.2030  -43.5080  -37.2180 C.ar  378  TYR378     -0.0201
    115  CD1       39.3400  -42.9720  -38.5160 C.ar  378  TYR378     -0.0009
    116  CD2       40.1280  -43.0920  -36.2370 C.ar  378  TYR378     -0.0009
    117  CE1       40.3240  -42.0040  -38.7760 C.ar  378  TYR378      0.0417
    118  CE2       41.1400  -42.1510  -36.5060 C.ar  378  TYR378      0.0417
    119  CZ        41.2060  -41.5890  -37.7730 C.ar  378  TYR378      0.1957
    120  OH        42.2080  -40.6940  -38.1040 O.3   378  TYR378     -0.2866
    121  N         32.1190  -31.5920  -40.8470 N.3   822  ARG822     -0.1245
    122  CA        31.6840  -32.3470  -39.6680 C.3   822  ARG822      0.1563
    123  C         30.2830  -31.9540  -39.2840 C.2   822  ARG822      0.2260
    124  O         29.4720  -32.8090  -38.9470 O.2   822  ARG822     -0.2867
    125  CB        32.4980  -32.0560  -38.3870 C.3   822  ARG822      0.0307
    126  CG        33.7720  -32.7950  -38.2320 C.3   822  ARG822      0.0489
    127  CD        34.2980  -32.5620  -36.7820 C.3   822  ARG822      0.2205
    128  NE        34.8210  -33.8440  -36.2860 N.pl3 822  ARG822     -0.0865
    129  CZ        36.0900  -34.2260  -36.3260 C.cat 822  ARG822      0.5346
    130  NH1       37.0600  -33.3970  -36.7430 N.pl3 822  ARG822      0.1354
    131  NH2       36.4010  -35.4420  -35.8870 N.pl3 822  ARG822      0.1354
@<TRIPOS>BOND
     1   108   107    1
     2   105   107   ar
     3   105   103   ar
     4    12    11    1
     5    12    13    2
     6   107   106   ar
     7   103   102   ar
     8    11    10    1
     9    11    14    1
    10    97    98    1
    11    15    14    1
    12    15    16    1
    13     4     3    2
    14    18    16   ar
    15   106   104   ar
    16   102   104   ar
    17   102   101    1
    18    86    85    1
    19    86    87    1
    20    16    17   ar
    21    98   101    1
    22    98    99    1
    23     3     2    1
    24    79    80    1
    25    85    84    1
    26    84    83    1
    27   121   122    1
    28    99   100    2
    29    83    80    1
    30    80    81    1
    31     2     1    1
    32     2     5    1
    33   122   123    1
    34   122   125    1
    35     6     5    1
    36     6     7    1
    37     9     7   am
    38    93    92    1
    39    93    94    1
    40    88    81   am
    41    88    89    1
    42   123   124    2
    43    92    89    1
    44    81    82    2
    45   109   110    1
    46    40    39    1
    47     7     8    2
    48   117   115   ar
    49   117   119   ar
    50    96    94   ar
    51   115   114   ar
    52    89    90    1
    53    94    95   ar
    54    49    47   ar
    55   125   126    1
    56   126   127    1
    57    39    38    1
    58   120   119    1
    59    90    91    2
    60   119   118   ar
    61   110   113    1
    62   110   111    1
    63    47    46    1
    64    47    48   ar
    65   114   113    1
    66   114   116   ar
    67    38    37    1
    68    77    75   ar
    69    77    78   ar
    70   111   112    2
    71    46    45    1
    72    75    74   ar
    73   127   128    1
    74   130   129    1
    75   118   116   ar
    76    72    71    2
    77   129   128    2
    78   129   131    1
    79    78    76   ar
    80    44    43    2
    81    23    20    1
    82    19    20    1
    83    37    34    1
    84    74    76   ar
    85    74    73    1
    86    43    42    1
    87    45    42    1
    88    20    21    1
    89    41    42    1
    90    41    35   am
    91    73    70    1
    92    71    70    1
    93    34    35    1
    94    34    33    1
    95    70    69    1
    96    35    36    2
    97    31    30    2
    98    59    58   ar
    99    59    57   ar
   100    21    24   am
   101    21    22    2
   102    33    30   am
   103    30    29    1
   104    58    56   ar
   105    67    66   ar
   106    24    25    1
   107    57    55   ar
   108    28    29    1
   109    28    26   am
   110    66    68   ar
   111    66    65    1
   112    29    32    1
   113    56    55   ar
   114    63    62    2
   115    25    26    1
   116    55    54    1
   117    53    52    2
   118    26    27    2
   119    61    62    1
   120    61    64    1
   121    61    60    1
   122    65    64    1
   123    52    60   am
   124    52    51    1
   125    54    51    1
   126    51    50    1
