@<TRIPOS>MOLECULE
tmp/4xn1A00.pdb
 129 123 0 0 0
SMALL
GASTEIGER

@<TRIPOS>ATOM
      1  N        -60.1120   47.0230   10.9730 N.3   116  GLN116     -0.1245
      2  CA       -58.6550   47.0980   11.1230 C.3   116  GLN116      0.1566
      3  C        -58.3870   46.8010   12.5710 C.2   116  GLN116      0.2260
      4  O        -58.7770   47.5910   13.4160 O.2   116  GLN116     -0.2867
      5  CB       -58.1080   48.4730   10.7480 C.3   116  GLN116      0.0367
      6  CG       -56.6090   48.6160   11.0820 C.3   116  GLN116      0.0905
      7  CD       -55.7640   47.5500   10.3970 C.2   116  GLN116      0.2608
      8  OE1      -56.1230   47.0440    9.3500 O.2   116  GLN116     -0.2717
      9  NE2      -54.6630   47.1870   11.0150 N.am  116  GLN116     -0.0878
     10  N        -55.1620   45.3970   13.8310 N.3   118  GLU118     -0.1245
     11  CA       -53.7780   45.6090   14.3440 C.3   118  GLU118      0.1567
     12  C        -53.5890   47.0930   14.6820 C.2   118  GLU118      0.2260
     13  O        -54.0420   47.9640   13.9380 O.2   118  GLU118     -0.2867
     14  CB       -52.6930   45.1850   13.3790 C.3   118  GLU118      0.0388
     15  CG       -51.2660   45.3980   13.8700 C.3   118  GLU118      0.1160
     16  CD       -50.2220   44.8560   12.9280 C.2   118  GLU118      0.3649
     17  OE1      -50.4990   44.7470   11.7230 O.co2 118  GLU118     -0.2457
     18  OE2      -49.1160   44.5520   13.3650 O.co2 118  GLU118     -0.2457
     19  N        -53.3130   52.6680    6.9760 N.3   257  ALA257     -0.1231
     20  CA       -51.9840   52.2620    6.4610 C.3   257  ALA257      0.1694
     21  C        -52.0660   51.8110    4.9440 C.2   257  ALA257      0.2593
     22  O        -52.9200   52.2930    4.2050 O.2   257  ALA257     -0.2718
     23  CB       -51.3640   51.2410    7.3650 C.3   257  ALA257      0.0304
     24  N        -51.1050   51.0360    4.4590 N.am  258  GLY258     -0.1942
     25  CA       -51.1300   50.5490    3.1090 C.3   258  GLY258      0.2014
     26  C        -52.0320   49.3230    2.9440 C.2   258  GLY258      0.2639
     27  O        -52.7710   49.1630    1.9240 O.2   258  GLY258     -0.2714
     28  N        -51.9290   48.4300    3.8920 N.am  259  ALA259     -0.1963
     29  CA       -52.7080   47.2150    3.7860 C.3   259  ALA259      0.1728
     30  C        -52.5710   46.4230    5.0710 C.2   259  ALA259      0.2616
     31  O        -51.8330   46.8330    5.9660 O.2   259  ALA259     -0.2715
     32  CB       -52.2120   46.3990    2.5960 C.3   259  ALA259      0.0334
     33  N        -53.2500   45.2840    5.1660 N.am  260  MET260     -0.1963
     34  CA       -53.2180   44.4950    6.3910 C.3   260  MET260      0.1736
     35  C        -53.3130   43.0090    6.0940 C.2   260  MET260      0.2616
     36  O        -54.2010   42.5730    5.3080 O.2   260  MET260     -0.2715
     37  CB       -54.3550   44.9370    7.2940 C.3   260  MET260      0.0427
     38  CG       -54.4250   44.1460    8.5960 C.3   260  MET260      0.0599
     39  SD       -52.9050   44.4380    9.5220 S.3   260  MET260     -0.1393
     40  CE       -52.8620   42.9020   10.4160 C.3   260  MET260      0.0692
     41  N        -52.4430   42.2360    6.7290 N.am  261  GLU261     -0.1977
     42  CA       -52.3020   40.7950    6.4250 C.3   261  GLU261      0.1602
     43  C        -53.3000   39.7950    7.0720 C.2   261  GLU261      0.2287
     44  O        -52.9610   38.6350    7.3990 O.2   261  GLU261     -0.2864
     45  CB       -50.8970   40.3530    6.8010 C.3   261  GLU261      0.0415
     46  CG       -50.6450   40.3220    8.2920 C.3   261  GLU261      0.1163
     47  CD       -49.9360   41.5780    8.8460 C.2   261  GLU261      0.3649
     48  OE1      -50.0490   42.6850    8.2330 O.co2 261  GLU261     -0.2457
     49  OE2      -49.2650   41.4510    9.8820 O.co2 261  GLU261     -0.2457
     50  N        -46.4730   45.6770   -2.1570 N.3   291  VAL291     -0.1245
     51  CA       -47.3520   45.5880   -1.0220 C.3   291  VAL291      0.1561
     52  C        -48.2160   44.3130   -1.0660 C.2   291  VAL291      0.2260
     53  O        -48.4010   43.6720   -0.0600 O.2   291  VAL291     -0.2867
     54  CB       -48.2050   46.8660   -0.8880 C.3   291  VAL291      0.0252
     55  CG1      -49.1970   46.7470    0.2630 C.3   291  VAL291      0.0019
     56  CG2      -47.2870   48.0500   -0.5870 C.3   291  VAL291      0.0019
     57  N        -45.8080   41.8440    0.1170 N.3   294  HIS294     -0.1226
     58  CA       -45.5870   42.0070    1.5630 C.3   294  HIS294      0.1752
     59  C        -46.6960   41.3040    2.3940 C.2   294  HIS294      0.2595
     60  O        -46.3920   40.5390    3.2900 O.2   294  HIS294     -0.2718
     61  CB       -45.4980   43.5170    1.8840 C.3   294  HIS294      0.0759
     62  CG       -45.2560   43.8500    3.3240 C.ar  294  HIS294      0.0818
     63  ND1      -44.0020   44.0680    3.8510 N.ar  294  HIS294     -0.2268
     64  CD2      -46.1350   44.0940    4.3210 C.ar  294  HIS294      0.1154
     65  CE1      -44.1180   44.3480    5.1260 C.ar  294  HIS294      0.1986
     66  NE2      -45.4050   44.3380    5.4380 N.ar  294  HIS294     -0.2212
     67  N        -47.9610   41.6200    2.1130 N.am  295  GLU295     -0.1979
     68  CA       -49.0650   41.0860    2.8550 C.3   295  GLU295      0.1602
     69  C        -49.1420   39.5720    2.6360 C.2   295  GLU295      0.2287
     70  O        -49.3970   38.8140    3.5740 O.2   295  GLU295     -0.2864
     71  CB       -50.3460   41.7280    2.4290 C.3   295  GLU295      0.0415
     72  CG       -50.4830   43.2500    2.6040 C.3   295  GLU295      0.1163
     73  CD       -49.9710   43.7230    3.9270 C.2   295  GLU295      0.3649
     74  OE1      -50.1430   42.9580    4.8920 O.co2 295  GLU295     -0.2457
     75  OE2      -49.3810   44.8320    3.9630 O.co2 295  GLU295     -0.2457
     76  N        -46.4250   37.9100    4.7980 N.3   298  HIS298     -0.1241
     77  CA       -46.8700   37.8320    6.1750 C.3   298  HIS298      0.1621
     78  C        -47.5490   36.5320    6.5690 C.2   298  HIS298      0.2264
     79  O        -47.6460   36.2280    7.7610 O.2   298  HIS298     -0.2867
     80  CB       -47.8310   38.9800    6.5650 C.3   298  HIS298      0.0745
     81  CG       -47.1290   40.1680    7.1520 C.ar  298  HIS298      0.0817
     82  ND1      -46.1900   40.0440    8.1560 N.ar  298  HIS298     -0.2268
     83  CD2      -47.2590   41.4980    6.9210 C.ar  298  HIS298      0.1154
     84  CE1      -45.7470   41.2430    8.4920 C.ar  298  HIS298      0.1986
     85  NE2      -46.3530   42.1310    7.7450 N.ar  298  HIS298     -0.2212
     86  N        -42.1840   42.4670   10.9860 N.3   317  GLU317     -0.1245
     87  CA       -42.1050   43.5620    9.9860 C.3   317  GLU317      0.1567
     88  C        -40.7560   43.7100    9.2900 C.2   317  GLU317      0.2260
     89  O        -40.6820   43.9670    8.0590 O.2   317  GLU317     -0.2867
     90  CB       -42.5610   44.8390   10.5640 C.3   317  GLU317      0.0388
     91  CG       -43.9880   44.8680   11.0160 C.3   317  GLU317      0.1160
     92  CD       -44.9450   44.5420    9.9020 C.2   317  GLU317      0.3649
     93  OE1      -44.5420   44.5940    8.6890 O.co2 317  GLU317     -0.2457
     94  OE2      -46.1040   44.2600   10.2360 O.co2 317  GLU317     -0.2457
     95  N        -45.1500   51.7210   14.2390 N.3   373  TYR373     -0.1241
     96  CA       -45.1770   51.1230   12.8960 C.3   373  TYR373      0.1605
     97  C        -44.2300   52.0340   12.0410 C.2   373  TYR373      0.2264
     98  O        -44.6760   52.7440   11.1700 O.2   373  TYR373     -0.2867
     99  CB       -46.6740   51.0250   12.3340 C.3   373  TYR373      0.0534
    100  CG       -47.3390   49.8540   13.0680 C.ar  373  TYR373     -0.0201
    101  CD1      -47.7100   49.9560   14.4320 C.ar  373  TYR373     -0.0009
    102  CD2      -47.4450   48.6160   12.4580 C.ar  373  TYR373     -0.0009
    103  CE1      -48.1760   48.8580   15.1040 C.ar  373  TYR373      0.0417
    104  CE2      -47.9280   47.5210   13.1190 C.ar  373  TYR373      0.0417
    105  CZ       -48.3310   47.6450   14.4440 C.ar  373  TYR373      0.1957
    106  OH       -48.7290   46.5340   15.0990 O.3   373  TYR373     -0.2866
    107  N        -39.5440   48.8420   10.5330 N.3   378  TYR378     -0.1241
    108  CA       -39.7150   48.2740    9.1740 C.3   378  TYR378      0.1605
    109  C        -38.3970   48.2390    8.3820 C.2   378  TYR378      0.2264
    110  O        -37.8510   47.1790    8.0850 O.2   378  TYR378     -0.2867
    111  CB       -40.7570   49.0870    8.4170 C.3   378  TYR378      0.0534
    112  CG       -42.1880   48.7140    8.7160 C.ar  378  TYR378     -0.0201
    113  CD1      -42.7220   48.8820    9.9860 C.ar  378  TYR378     -0.0009
    114  CD2      -43.0230   48.1790    7.7110 C.ar  378  TYR378     -0.0009
    115  CE1      -44.0350   48.5330   10.2520 C.ar  378  TYR378      0.0417
    116  CE2      -44.3580   47.7770    7.9740 C.ar  378  TYR378      0.0417
    117  CZ       -44.8600   47.9790    9.2380 C.ar  378  TYR378      0.1957
    118  OH       -46.1370   47.5820    9.6050 O.3   378  TYR378     -0.2866
    119  N        -48.9640   60.7960   12.2680 N.3   822  ARG822     -0.1245
    120  CA       -48.1060   60.7820   11.0690 C.3   822  ARG822      0.1563
    121  C        -47.7060   62.2000   10.6810 C.2   822  ARG822      0.2260
    122  O        -46.5590   62.4790   10.3680 O.2   822  ARG822     -0.2867
    123  CB       -48.8620   60.2370    9.8590 C.3   822  ARG822      0.0307
    124  CG       -48.6760   58.8130    9.5110 C.3   822  ARG822      0.0489
    125  CD       -49.4380   58.5600    8.1790 C.3   822  ARG822      0.2205
    126  NE       -49.8860   57.1790    8.1360 N.pl3 822  ARG822     -0.0865
    127  CZ       -49.0690   56.1360    7.9260 C.cat 822  ARG822      0.5346
    128  NH1      -47.7360   56.3170    7.6810 N.pl3 822  ARG822      0.1354
    129  NH2      -49.5950   54.8990    7.9520 N.pl3 822  ARG822      0.1354
@<TRIPOS>BOND
     1    50    51    1
     2    52    51    1
     3    52    53    2
     4    51    54    1
     5    54    56    1
     6    54    55    1
     7    57    58    1
     8    58    61    1
     9    58    59    1
    10    61    62    1
    11    27    26    2
    12    67    59   am
    13    67    68    1
    14    59    60    2
    15    71    72    1
    16    71    68    1
    17    32    29    1
    18    72    73    1
    19    69    68    1
    20    69    70    2
    21    26    25    1
    22    26    28   am
    23    25    24    1
    24    62    63   ar
    25    62    64   ar
    26    29    28    1
    27    29    30    1
    28    63    65   ar
    29    73    75   ar
    30    73    74   ar
    31    22    21    2
    32    64    66   ar
    33    24    21   am
    34    76    77    1
    35    21    20    1
    36    30    33   am
    37    30    31    2
    38    65    66   ar
    39    33    34    1
    40    36    35    2
    41    35    34    1
    42    35    41   am
    43    77    80    1
    44    77    78    1
    45    34    37    1
    46    42    41    1
    47    42    45    1
    48    42    43    1
    49    20    19    1
    50    20    23    1
    51    80    81    1
    52    78    79    2
    53    45    46    1
    54    83    81   ar
    55    83    85   ar
    56    43    44    2
    57    81    82   ar
    58    37    38    1
    59   128   127    1
    60   114   116   ar
    61   114   112   ar
    62    85    84   ar
    63   127   129    1
    64   127   126    2
    65   116   117   ar
    66    89    88    2
    67   110   109    2
    68   126   125    1
    69    82    84   ar
    70   125   124    1
    71    48    47   ar
    72    46    47    1
    73   109   108    1
    74   111   112    1
    75   111   108    1
    76    38    39    1
    77    93    92   ar
    78   112   113   ar
    79    47    49   ar
    80   108   107    1
    81   117   118    1
    82   117   115   ar
    83    88    87    1
    84     8     7    2
    85   124   123    1
    86    39    40    1
    87   123   120    1
    88    92    94   ar
    89    92    91    1
    90   113   115   ar
    91    87    90    1
    92    87    86    1
    93   122   121    2
    94     7     9   am
    95     7     6    1
    96    90    91    1
    97   121   120    1
    98     5     6    1
    99     5     2    1
   100     1     2    1
   101   120   119    1
   102     2     3    1
   103    98    97    2
   104    17    16   ar
   105    97    96    1
   106    99    96    1
   107    99   100    1
   108   102   100   ar
   109   102   104   ar
   110     3     4    2
   111    96    95    1
   112    16    18   ar
   113    16    15    1
   114   100   101   ar
   115   104   105   ar
   116    14    15    1
   117    14    11    1
   118    10    11    1
   119    13    12    2
   120    11    12    1
   121   101   103   ar
   122   105   106    1
   123   105   103   ar
