@<TRIPOS>MOLECULE
tmp/4xn1A01.pdb
 91 89 0 0 0
SMALL
GASTEIGER

@<TRIPOS>ATOM
      1  N        -53.4400   54.3050  -17.7450 N.3   278  ASP278     -0.1239
      2  CA       -53.7320   55.7570  -17.7800 C.3   278  ASP278      0.1674
      3  C        -53.9160   56.3710  -16.3730 C.2   278  ASP278      0.2266
      4  O        -53.8870   57.5940  -16.2250 O.2   278  ASP278     -0.2867
      5  CB       -54.9380   56.0680  -18.6850 C.3   278  ASP278      0.1410
      6  CG       -56.2010   55.3480  -18.2340 C.2   278  ASP278      0.3668
      7  OD1      -56.1190   54.2260  -17.6780 O.co2 278  ASP278     -0.2456
      8  OD2      -57.2790   55.9050  -18.4100 O.co2 278  ASP278     -0.2456
      9  N        -46.6130   65.8470  -21.9730 N.3   701  PHE701     -0.1227
     10  CA       -47.8480   65.7550  -21.2370 C.3   701  PHE701      0.1736
     11  C        -48.9920   65.4370  -22.1680 C.2   701  PHE701      0.2595
     12  O        -49.8080   64.5790  -21.8660 O.2   701  PHE701     -0.2718
     13  CB       -48.1580   67.0480  -20.5290 C.3   701  PHE701      0.0547
     14  CG       -49.4040   67.0040  -19.6820 C.ar  701  PHE701     -0.0202
     15  CD1      -49.3810   66.3950  -18.4600 C.ar  701  PHE701     -0.0042
     16  CD2      -50.5930   67.5590  -20.1340 C.ar  701  PHE701     -0.0042
     17  CE1      -50.5150   66.3420  -17.6800 C.ar  701  PHE701     -0.0003
     18  CE2      -51.7430   67.5180  -19.3640 C.ar  701  PHE701     -0.0003
     19  CZ       -51.6960   66.9300  -18.1040 C.ar  701  PHE701     -0.0000
     20  N        -49.0340   66.1290  -23.3060 N.am  702  HIS702     -0.1975
     21  CA       -50.1640   65.9550  -24.1960 C.3   702  HIS702      0.1656
     22  C        -50.1020   64.7070  -25.0410 C.2   702  HIS702      0.2291
     23  O        -51.1060   64.1870  -25.3340 O.2   702  HIS702     -0.2864
     24  CB       -50.2960   67.1530  -25.0650 C.3   702  HIS702      0.0771
     25  CG       -50.8360   68.3250  -24.3350 C.ar  702  HIS702      0.0820
     26  ND1      -50.2430   69.5580  -24.3840 N.ar  702  HIS702     -0.2267
     27  CD2      -51.9390   68.4620  -23.5680 C.ar  702  HIS702      0.1154
     28  CE1      -50.9650   70.4170  -23.6860 C.ar  702  HIS702      0.1986
     29  NE2      -51.9840   69.7700  -23.1590 N.ar  702  HIS702     -0.2212
     30  N        -48.4150   61.7910  -24.1620 N.3   704  ALA704     -0.1245
     31  CA       -48.1780   60.5650  -23.3870 C.3   704  ALA704      0.1562
     32  C        -49.2270   59.5220  -23.6320 C.2   704  ALA704      0.2260
     33  O        -50.4190   59.8370  -23.6030 O.2   704  ALA704     -0.2867
     34  CB       -48.1970   60.8910  -21.9070 C.3   704  ALA704      0.0290
     35  N        -49.6310   57.1470  -17.7630 N.3   707  MET707     -0.1245
     36  CA       -49.5980   58.1020  -16.6660 C.3   707  MET707      0.1570
     37  C        -48.1620   58.3620  -16.1930 C.2   707  MET707      0.2261
     38  O        -47.8900   59.4640  -15.7310 O.2   707  MET707     -0.2867
     39  CB       -50.4470   57.6210  -15.5150 C.3   707  MET707      0.0387
     40  CG       -50.5950   58.5470  -14.3160 C.3   707  MET707      0.0595
     41  SD       -50.9670   60.2460  -14.8490 S.3   707  MET707     -0.1393
     42  CE       -52.7120   60.2800  -14.5140 C.3   707  MET707      0.0692
     43  N        -47.1430   61.1560  -18.4840 N.3   710  ALA710     -0.1245
     44  CA       -47.9130   62.3560  -18.2330 C.3   710  ALA710      0.1562
     45  C        -47.5180   62.9430  -16.9030 C.2   710  ALA710      0.2260
     46  O        -47.3190   64.1430  -16.7960 O.2   710  ALA710     -0.2867
     47  CB       -49.4280   62.1080  -18.2380 C.3   710  ALA710      0.0290
     48  N        -55.9030   71.1170  -16.6710 N.3   731  GLU731     -0.1231
     49  CA       -56.3180   70.0180  -17.5260 C.3   731  GLU731      0.1699
     50  C        -56.4140   68.7330  -16.7620 C.2   731  GLU731      0.2592
     51  O        -57.2920   67.9540  -17.0100 O.2   731  GLU731     -0.2718
     52  CB       -55.3710   69.8180  -18.7200 C.3   731  GLU731      0.0402
     53  CG       -55.6200   70.8450  -19.8310 C.3   731  GLU731      0.1161
     54  CD       -54.5120   70.9540  -20.8700 C.2   731  GLU731      0.3649
     55  OE1      -53.9880   69.9100  -21.3390 O.co2 731  GLU731     -0.2457
     56  OE2      -54.2140   72.1110  -21.2480 O.co2 731  GLU731     -0.2457
     57  N        -55.4760   68.4990  -15.8760 N.am  732  TYR732     -0.1976
     58  CA       -55.4290   67.2500  -15.1290 C.3   732  TYR732      0.1639
     59  C        -56.5800   67.2560  -14.1420 C.2   732  TYR732      0.2290
     60  O        -57.2880   66.2680  -14.0200 O.2   732  TYR732     -0.2864
     61  CB       -54.1150   67.1700  -14.4250 C.3   732  TYR732      0.0560
     62  CG       -53.8010   65.9180  -13.6760 C.ar  732  TYR732     -0.0198
     63  CD1      -54.3710   65.6540  -12.4420 C.ar  732  TYR732     -0.0009
     64  CD2      -52.8270   65.0650  -14.1310 C.ar  732  TYR732     -0.0009
     65  CE1      -54.0130   64.5230  -11.7310 C.ar  732  TYR732      0.0417
     66  CE2      -52.4340   63.9470  -13.4140 C.ar  732  TYR732      0.0417
     67  CZ       -53.0160   63.6880  -12.2050 C.ar  732  TYR732      0.1957
     68  OH       -52.6160   62.5740  -11.5070 O.3   732  TYR732     -0.2866
     69  N        -59.8260   66.5550  -16.0300 N.3   735  LYS735     -0.1231
     70  CA       -59.9110   65.1990  -16.4930 C.3   735  LYS735      0.1693
     71  C        -60.1100   64.2210  -15.3480 C.2   735  LYS735      0.2592
     72  O        -60.7430   63.1660  -15.5240 O.2   735  LYS735     -0.2718
     73  CB       -58.6600   64.8380  -17.2700 C.3   735  LYS735      0.0285
     74  CG       -58.6820   63.4480  -17.9010 C.3   735  LYS735      0.0035
     75  CD       -57.5290   63.3080  -18.8740 C.3   735  LYS735      0.0206
     76  CE       -57.6130   61.9760  -19.6050 C.3   735  LYS735      0.1093
     77  NZ       -56.2770   61.6120  -20.2280 N.3   735  LYS735     -0.1314
     78  N        -59.5090   64.5130  -14.1980 N.am  736  TRP736     -0.1976
     79  CA       -59.3180   63.4550  -13.1960 C.3   736  TRP736      0.1640
     80  C        -59.9330   63.7210  -11.8510 C.2   736  TRP736      0.2290
     81  O        -59.8600   62.8710  -11.0080 O.2   736  TRP736     -0.2864
     82  CB       -57.8190   63.1830  -13.0290 C.3   736  TRP736      0.0576
     83  CG       -57.1610   62.5310  -14.2070 C.ar  736  TRP736      0.0006
     84  CD1      -56.1520   63.0360  -14.9370 C.ar  736  TRP736      0.0946
     85  CD2      -57.4200   61.2240  -14.7390 C.ar  736  TRP736      0.0152
     86  NE1      -55.7470   62.1410  -15.8810 N.ar  736  TRP736     -0.2442
     87  CE2      -56.5000   61.0070  -15.7680 C.ar  736  TRP736      0.0810
     88  CE3      -58.3210   60.1960  -14.4070 C.ar  736  TRP736      0.0012
     89  CZ2      -56.4840   59.8250  -16.5490 C.ar  736  TRP736      0.0191
     90  CZ3      -58.3220   59.0380  -15.1770 C.ar  736  TRP736      0.0001
     91  CH2      -57.4090   58.8570  -16.2430 C.ar  736  TRP736      0.0015
@<TRIPOS>BOND
     1    23    22    2
     2    24    25    1
     3    24    21    1
     4    22    21    1
     5    26    25   ar
     6    26    28   ar
     7    25    27   ar
     8    21    20    1
     9    30    31    1
    10    28    29   ar
    11    32    33    2
    12    32    31    1
    13    27    29   ar
    14    31    34    1
    15    20    11   am
    16    11    12    2
    17    11    10    1
    18     9    10    1
    19    55    54   ar
    20    56    54   ar
    21    10    13    1
    22    54    53    1
    23    13    14    1
    24    77    76    1
    25    16    14   ar
    26    16    18   ar
    27    53    52    1
    28    14    15   ar
    29    76    75    1
    30    18    19   ar
    31    75    74    1
    32    52    49    1
    33     5     6    1
    34     5     2    1
    35    43    44    1
    36    15    17   ar
    37     8     6   ar
    38    47    44    1
    39     6     7   ar
    40    44    45    1
    41    19    17   ar
    42    74    73    1
    43     2     1    1
    44     2     3    1
    45    35    36    1
    46    49    50    1
    47    49    48    1
    48    73    70    1
    49    51    50    2
    50    45    46    2
    51    50    57   am
    52    36    37    1
    53    36    39    1
    54    89    91   ar
    55    89    87   ar
    56    70    69    1
    57    70    71    1
    58     3     4    2
    59    91    90   ar
    60    37    38    2
    61    86    87   ar
    62    86    84   ar
    63    57    58    1
    64    87    85   ar
    65    72    71    2
    66    39    40    1
    67    71    78   am
    68    90    88   ar
    69    58    61    1
    70    58    59    1
    71    84    83   ar
    72    41    42    1
    73    41    40    1
    74    85    88   ar
    75    85    83   ar
    76    61    62    1
    77    83    82    1
    78    78    79    1
    79    59    60    2
    80    64    62   ar
    81    64    66   ar
    82    62    63   ar
    83    66    67   ar
    84    79    82    1
    85    79    80    1
    86    63    65   ar
    87    67    65   ar
    88    67    68    1
    89    80    81    2
