@<TRIPOS>MOLECULE
tmp/4xn2A00.pdb
 126 120 0 0 0
SMALL
GASTEIGER

@<TRIPOS>ATOM
      1  N         49.1630  -28.5860  -38.8660 N.3   115  GLN115     -0.1245
      2  CA        48.3750  -29.8250  -39.0250 C.3   115  GLN115      0.1566
      3  C         48.4470  -30.2350  -40.4990 C.2   115  GLN115      0.2260
      4  O         47.9540  -29.5020  -41.3610 O.2   115  GLN115     -0.2867
      5  CB        46.8920  -29.7000  -38.5740 C.3   115  GLN115      0.0367
      6  CG        46.0410  -30.9400  -38.9270 C.3   115  GLN115      0.0905
      7  CD        46.6130  -32.2090  -38.2570 C.2   115  GLN115      0.2608
      8  OE1       47.1360  -32.1560  -37.1420 O.2   115  GLN115     -0.2717
      9  NE2       46.4450  -33.3400  -38.8860 N.am  115  GLN115     -0.0878
     10  N         48.0070  -33.6800  -41.8030 N.3   117  GLU117     -0.1245
     11  CA        47.1760  -34.8060  -42.2640 C.3   117  GLU117      0.1567
     12  C         45.7890  -34.2630  -42.5850 C.2   117  GLU117      0.2260
     13  O         45.2900  -33.5550  -41.7880 O.2   117  GLU117     -0.2867
     14  CB        47.0360  -35.9100  -41.2100 C.3   117  GLU117      0.0388
     15  CG        46.3420  -37.1510  -41.7900 C.3   117  GLU117      0.1160
     16  CD        46.2140  -38.3510  -40.8750 C.2   117  GLU117      0.3649
     17  OE1       46.6500  -38.2700  -39.7140 O.co2 117  GLU117     -0.2457
     18  OE2       45.7230  -39.4100  -41.3370 O.co2 117  GLU117     -0.2457
     19  N         42.4600  -26.6640  -32.5740 N.3   254  PHE254     -0.1241
     20  CA        42.7600  -27.9030  -33.2760 C.3   254  PHE254      0.1605
     21  C         41.4010  -28.4540  -33.7180 C.2   254  PHE254      0.2264
     22  O         40.4800  -28.5370  -32.9080 O.2   254  PHE254     -0.2867
     23  CB        43.4660  -28.8600  -32.3410 C.3   254  PHE254      0.0534
     24  CG        44.1730  -29.9640  -33.0370 C.ar  254  PHE254     -0.0203
     25  CD1       45.3810  -29.7300  -33.6280 C.ar  254  PHE254     -0.0042
     26  CD2       43.6590  -31.2220  -33.0440 C.ar  254  PHE254     -0.0042
     27  CE1       46.0960  -30.7500  -34.2400 C.ar  254  PHE254     -0.0003
     28  CE2       44.2890  -32.2500  -33.6780 C.ar  254  PHE254     -0.0003
     29  CZ        45.5300  -32.0130  -34.3110 C.ar  254  PHE254     -0.0000
     30  N         40.5960  -31.5110  -34.7800 N.3   256  ALA256     -0.1245
     31  CA        40.2910  -32.8870  -34.4260 C.3   256  ALA256      0.1562
     32  C         40.7460  -33.1840  -33.0160 C.2   256  ALA256      0.2260
     33  O         40.6120  -32.3420  -32.1330 O.2   256  ALA256     -0.2867
     34  CB        40.9120  -33.8190  -35.5090 C.3   256  ALA256      0.0290
     35  N         43.8380  -35.3900  -31.9230 N.3   258  ALA258     -0.1231
     36  CA        45.2770  -35.3680  -31.7640 C.3   258  ALA258      0.1694
     37  C         45.9720  -35.9620  -32.9870 C.2   258  ALA258      0.2592
     38  O         45.3510  -36.6740  -33.7730 O.2   258  ALA258     -0.2718
     39  CB        45.7120  -36.1030  -30.4870 C.3   258  ALA258      0.0304
     40  N         47.2790  -35.7150  -33.1190 N.am  259  MET259     -0.1965
     41  CA        48.0140  -36.0750  -34.3200 C.3   259  MET259      0.1736
     42  C         49.3880  -36.7340  -34.0390 C.2   259  MET259      0.2616
     43  O         50.2020  -36.1750  -33.3060 O.2   259  MET259     -0.2715
     44  CB        48.1890  -34.8350  -35.1970 C.3   259  MET259      0.0427
     45  CG        48.9330  -35.1190  -36.4920 C.3   259  MET259      0.0599
     46  SD        47.9850  -36.2490  -37.5600 S.3   259  MET259     -0.1393
     47  CE        49.3510  -37.0710  -38.3590 C.3   259  MET259      0.0692
     48  N         49.6350  -37.8670  -34.6810 N.am  260  GLU260     -0.1977
     49  CA        50.7800  -38.7200  -34.3830 C.3   260  GLU260      0.1602
     50  C         52.1010  -38.3250  -35.0940 C.2   260  GLU260      0.2287
     51  O         52.9240  -39.1950  -35.4200 O.2   260  GLU260     -0.2864
     52  CB        50.4160  -40.1900  -34.7400 C.3   260  GLU260      0.0415
     53  CG        50.2780  -40.4590  -36.2590 C.3   260  GLU260      0.1163
     54  CD        48.8640  -40.2970  -36.8280 C.2   260  GLU260      0.3649
     55  OE1       48.0670  -39.5930  -36.2020 O.co2 260  GLU260     -0.2457
     56  OE2       48.5240  -40.8410  -37.9390 O.co2 260  GLU260     -0.2457
     57  N         46.5100  -43.8570  -28.2340 N.3   293  HIS293     -0.1226
     58  CA        46.2360  -43.8970  -29.6720 C.3   293  HIS293      0.1752
     59  C         47.3570  -43.3130  -30.4650 C.2   293  HIS293      0.2595
     60  O         47.8770  -43.9700  -31.3640 O.2   293  HIS293     -0.2718
     61  CB        44.9100  -43.1050  -29.9530 C.3   293  HIS293      0.0759
     62  CG        44.4500  -43.1780  -31.3710 C.ar  293  HIS293      0.0818
     63  ND1       43.5700  -44.1300  -31.8240 N.ar  293  HIS293     -0.2268
     64  CD2       44.7990  -42.4570  -32.4550 C.ar  293  HIS293      0.1154
     65  CE1       43.3940  -43.9940  -33.1250 C.ar  293  HIS293      0.1986
     66  NE2       44.1360  -42.9910  -33.5320 N.ar  293  HIS293     -0.2212
     67  N         47.7020  -42.0670  -30.1960 N.am  294  GLU294     -0.1979
     68  CA        48.7440  -41.4180  -30.9720 C.3   294  GLU294      0.1602
     69  C         50.1040  -42.1070  -30.8040 C.2   294  GLU294      0.2287
     70  O         50.8560  -42.2850  -31.7830 O.2   294  GLU294     -0.2864
     71  CB        48.8310  -39.9580  -30.6920 C.3   294  GLU294      0.0415
     72  CG        47.5100  -39.1950  -30.7480 C.3   294  GLU294      0.1163
     73  CD        46.6800  -39.3760  -32.0160 C.2   294  GLU294      0.3649
     74  OE1       47.2540  -39.7380  -33.0490 O.co2 294  GLU294     -0.2457
     75  OE2       45.4220  -39.1710  -31.9360 O.co2 294  GLU294     -0.2457
     76  N         50.3070  -45.2410  -32.9550 N.3   297  HIS297     -0.1241
     77  CA        50.5020  -44.9450  -34.3550 C.3   297  HIS297      0.1621
     78  C         52.0030  -44.9490  -34.6900 C.2   297  HIS297      0.2264
     79  O         52.3730  -45.0450  -35.8530 O.2   297  HIS297     -0.2867
     80  CB        49.9980  -43.5420  -34.7120 C.3   297  HIS297      0.0745
     81  CG        48.5960  -43.4830  -35.2340 C.ar  297  HIS297      0.0817
     82  ND1       48.1400  -44.2750  -36.2740 N.ar  297  HIS297     -0.2268
     83  CD2       47.5610  -42.6840  -34.8800 C.ar  297  HIS297      0.1154
     84  CE1       46.8660  -43.9990  -36.4950 C.ar  297  HIS297      0.1986
     85  NE2       46.5150  -43.0000  -35.7020 N.ar  297  HIS297     -0.2212
     86  N         44.0820  -46.4420  -39.0830 N.3   316  GLU316     -0.1245
     87  CA        43.1370  -45.9640  -38.0960 C.3   316  GLU316      0.1567
     88  C         42.3510  -47.0890  -37.4430 C.2   316  GLU316      0.2260
     89  O         42.1510  -47.0560  -36.2380 O.2   316  GLU316     -0.2867
     90  CB        42.1920  -44.8620  -38.5740 C.3   316  GLU316      0.0388
     91  CG        42.8690  -43.5520  -38.9670 C.3   316  GLU316      0.1160
     92  CD        43.6980  -42.9400  -37.8890 C.2   316  GLU316      0.3649
     93  OE1       43.4350  -43.3040  -36.7330 O.co2 316  GLU316     -0.2457
     94  OE2       44.5850  -42.0970  -38.2190 O.co2 316  GLU316     -0.2457
     95  N         39.3800  -35.1900  -45.9910 N.3   369  ASN369     -0.1240
     96  CA        39.1250  -34.8930  -44.5810 C.3   369  ASN369      0.1653
     97  C         37.6920  -35.2540  -44.1910 C.2   369  ASN369      0.2266
     98  O         37.4450  -35.3570  -43.0340 O.2   369  ASN369     -0.2867
     99  CB        39.4500  -33.4440  -44.2080 C.3   369  ASN369      0.1155
    100  CG        40.9670  -33.1230  -44.3090 C.2   369  ASN369      0.2627
    101  OD1       41.8090  -33.8750  -43.8400 O.2   369  ASN369     -0.2716
    102  ND2       41.2990  -31.9650  -44.9690 N.am  369  ASN369     -0.0877
    103  N         37.5290  -39.2000  -42.2060 N.3   372  TYR372     -0.1241
    104  CA        38.0170  -39.5330  -40.8770 C.3   372  TYR372      0.1605
    105  C         36.7770  -39.8920  -40.0480 C.2   372  TYR372      0.2264
    106  O         36.3060  -39.1230  -39.2150 O.2   372  TYR372     -0.2867
    107  CB        38.8110  -38.3080  -40.3110 C.3   372  TYR372      0.0534
    108  CG        40.1860  -38.3190  -41.0190 C.ar  372  TYR372     -0.0201
    109  CD1       40.3230  -37.9130  -42.2920 C.ar  372  TYR372     -0.0009
    110  CD2       41.2900  -38.8560  -40.4020 C.ar  372  TYR372     -0.0009
    111  CE1       41.5490  -37.9730  -42.9590 C.ar  372  TYR372      0.0417
    112  CE2       42.5100  -38.9460  -41.0660 C.ar  372  TYR372      0.0417
    113  CZ        42.6170  -38.4960  -42.3560 C.ar  372  TYR372      0.1957
    114  OH        43.8080  -38.6330  -43.0220 O.3   372  TYR372     -0.2866
    115  N         37.2510  -45.5540  -38.5930 N.3   377  TYR377     -0.1241
    116  CA        37.8440  -45.7040  -37.2590 C.3   377  TYR377      0.1605
    117  C         37.1930  -46.8960  -36.4730 C.2   377  TYR377      0.2264
    118  O         37.8580  -47.8920  -36.1720 O.2   377  TYR377     -0.2867
    119  CB        37.6990  -44.4540  -36.4050 C.3   377  TYR377      0.0534
    120  CG        38.7180  -43.3970  -36.7230 C.ar  377  TYR377     -0.0201
    121  CD1       38.7390  -42.7750  -37.9450 C.ar  377  TYR377     -0.0009
    122  CD2       39.6540  -43.0140  -35.7620 C.ar  377  TYR377     -0.0009
    123  CE1       39.6860  -41.7940  -38.2430 C.ar  377  TYR377      0.0417
    124  CE2       40.6330  -42.0310  -36.0160 C.ar  377  TYR377      0.0417
    125  CZ        40.6450  -41.4050  -37.2670 C.ar  377  TYR377      0.1957
    126  OH        41.6040  -40.4440  -37.5750 O.3   377  TYR377     -0.2866
@<TRIPOS>BOND
     1    95    96    1
     2   102   100   am
     3    96    99    1
     4    96    97    1
     5   100    99    1
     6   100   101    2
     7    97    98    2
     8   114   113    1
     9   111   113   ar
    10   111   109   ar
    11    12    11    1
    12    12    13    2
    13   113   112   ar
    14   109   108   ar
    15    11    10    1
    16    11    14    1
    17   103   104    1
    18    15    14    1
    19    15    16    1
    20     4     3    2
    21    18    16   ar
    22   112   110   ar
    23   108   110   ar
    24   108   107    1
    25   104   107    1
    26   104   105    1
    27    16    17   ar
    28     3     2    1
    29   105   106    2
    30    86    87    1
    31     2     1    1
    32     2     5    1
    33    91    90    1
    34    91    92    1
    35     6     5    1
    36     6     7    1
    37     9     7   am
    38   115   116    1
    39    90    87    1
    40    47    46    1
    41     7     8    2
    42   123   121   ar
    43   123   125   ar
    44    94    92   ar
    45    87    88    1
    46   121   120   ar
    47    56    54   ar
    48    92    93   ar
    49   126   125    1
    50    46    45    1
    51    88    89    2
    52   125   124   ar
    53   116   117    1
    54   116   119    1
    55    54    53    1
    56    54    55   ar
    57   120   119    1
    58   120   122   ar
    59    84    82   ar
    60    84    85   ar
    61    45    44    1
    62   117   118    2
    63    82    81   ar
    64    53    52    1
    65   124   122   ar
    66    79    78    2
    67    85    83   ar
    68    34    31    1
    69    51    50    2
    70    81    83   ar
    71    81    80    1
    72    44    41    1
    73    50    49    1
    74    30    31    1
    75    52    49    1
    76    80    77    1
    77    78    77    1
    78    48    49    1
    79    48    42   am
    80    31    32    1
    81    77    76    1
    82    41    42    1
    83    41    40    1
    84    29    27   ar
    85    29    28   ar
    86    27    25   ar
    87    42    43    2
    88    38    37    2
    89    21    20    1
    90    21    22    2
    91    28    26   ar
    92    25    24   ar
    93    66    65   ar
    94    66    64   ar
    95    20    19    1
    96    20    23    1
    97    65    63   ar
    98    40    37   am
    99    74    73   ar
   100    26    24   ar
   101    24    23    1
   102    32    33    2
   103    37    36    1
   104    64    62   ar
   105    73    75   ar
   106    73    72    1
   107    35    36    1
   108    63    62   ar
   109    70    69    2
   110    36    39    1
   111    62    61    1
   112    60    59    2
   113    68    69    1
   114    68    71    1
   115    68    67    1
   116    72    71    1
   117    59    67   am
   118    59    58    1
   119    61    58    1
   120    58    57    1
