@<TRIPOS>MOLECULE
tmp/4xn7A02.pdb
 123 119 0 0 0
SMALL
GASTEIGER

@<TRIPOS>ATOM
      1  N        -60.2520   47.3000   11.0530 N.3   115  GLN115     -0.1245
      2  CA       -58.8320   47.3250   11.2490 C.3   115  GLN115      0.1566
      3  C        -58.5240   47.0690   12.7160 C.2   115  GLN115      0.2260
      4  O        -58.8680   47.8770   13.5830 O.2   115  GLN115     -0.2867
      5  CB       -58.2280   48.6690   10.8600 C.3   115  GLN115      0.0367
      6  CG       -56.7090   48.7500   11.0580 C.3   115  GLN115      0.0905
      7  CD       -55.9450   47.6440   10.3070 C.2   115  GLN115      0.2608
      8  OE1      -56.4320   47.0710    9.3150 O.2   115  GLN115     -0.2717
      9  NE2      -54.7590   47.3210   10.7960 N.am  115  GLN115     -0.0878
     10  N        -55.1220   45.8080   13.9010 N.3   117  GLU117     -0.1245
     11  CA       -53.7380   46.0910   14.3250 C.3   117  GLU117      0.1567
     12  C        -53.5280   47.5990   14.5890 C.2   117  GLU117      0.2260
     13  O        -53.9840   48.4660   13.8040 O.2   117  GLU117     -0.2867
     14  CB       -52.6810   45.5670   13.3360 C.3   117  GLU117      0.0388
     15  CG       -51.2280   45.6210   13.8720 C.3   117  GLU117      0.1160
     16  CD       -50.1670   45.0640   12.9180 C.2   117  GLU117      0.3649
     17  OE1      -50.5330   44.6780   11.8140 O.co2 117  GLU117     -0.2457
     18  OE2      -48.9570   44.9860   13.2410 O.co2 117  GLU117     -0.2457
     19  N        -53.6470   52.7480    7.2350 N.3   256  MET256     -0.1230
     20  CA       -52.3860   52.1860    6.7540 C.3   256  MET256      0.1702
     21  C        -52.3900   51.8880    5.2420 C.2   256  MET256      0.2593
     22  O        -53.1990   52.4450    4.4900 O.2   256  MET256     -0.2718
     23  CB       -51.9820   51.0080    7.6420 C.3   256  MET256      0.0401
     24  CG       -51.0160   51.4790    8.7300 C.3   256  MET256      0.0596
     25  SD       -51.1490   50.6410   10.3170 S.3   256  MET256     -0.1393
     26  CE       -52.8290   50.9960   10.8950 C.3   256  MET256      0.0692
     27  N        -51.4290   51.1070    4.7830 N.am  257  GLY257     -0.1942
     28  CA       -51.3060   50.7940    3.3810 C.3   257  GLY257      0.2014
     29  C        -52.1660   49.6130    3.1090 C.2   257  GLY257      0.2639
     30  O        -52.9910   49.6380    2.2260 O.2   257  GLY257     -0.2714
     31  N        -51.9920   48.5760    3.9170 N.am  258  ALA258     -0.1963
     32  CA       -52.7440   47.3320    3.7740 C.3   258  ALA258      0.1728
     33  C        -52.5030   46.4460    4.9930 C.2   258  ALA258      0.2616
     34  O        -51.6220   46.7380    5.7900 O.2   258  ALA258     -0.2715
     35  CB       -52.3350   46.6250    2.4830 C.3   258  ALA258      0.0334
     36  N        -53.2590   45.3580    5.1310 N.am  259  MET259     -0.1963
     37  CA       -53.2410   44.5880    6.3700 C.3   259  MET259      0.1736
     38  C        -53.3060   43.0780    6.1260 C.2   259  MET259      0.2616
     39  O        -54.2000   42.5830    5.4260 O.2   259  MET259     -0.2715
     40  CB       -54.4160   45.0340    7.2390 C.3   259  MET259      0.0427
     41  CG       -54.4950   44.3260    8.5580 C.3   259  MET259      0.0599
     42  SD       -53.0220   44.5630    9.5870 S.3   259  MET259     -0.1393
     43  CE       -52.9840   42.9750   10.4070 C.3   259  MET259      0.0692
     44  N        -52.4070   42.3330    6.7600 N.am  260  GLU260     -0.1977
     45  CA       -52.2620   40.9140    6.4780 C.3   260  GLU260      0.1602
     46  C        -53.2830   39.9900    7.1620 C.2   260  GLU260      0.2287
     47  O        -52.9820   38.8220    7.4490 O.2   260  GLU260     -0.2864
     48  CB       -50.8390   40.4930    6.8120 C.3   260  GLU260      0.0415
     49  CG       -50.5060   40.4670    8.3040 C.3   260  GLU260      0.1163
     50  CD       -49.9600   41.7820    8.8360 C.2   260  GLU260      0.3649
     51  OE1      -50.2010   42.8370    8.2220 O.co2 260  GLU260     -0.2457
     52  OE2      -49.2800   41.7590    9.8710 O.co2 260  GLU260     -0.2457
     53  N        -45.8510   41.8750    0.2100 N.3   293  HIS293     -0.1226
     54  CA       -45.5890   42.1180    1.6120 C.3   293  HIS293      0.1752
     55  C        -46.6620   41.4800    2.4450 C.2   293  HIS293      0.2595
     56  O        -46.3310   40.7410    3.3500 O.2   293  HIS293     -0.2718
     57  CB       -45.5560   43.6180    1.8650 C.3   293  HIS293      0.0759
     58  CG       -45.2250   43.9970    3.2710 C.ar  293  HIS293      0.0818
     59  ND1      -43.9500   44.3110    3.6690 N.ar  293  HIS293     -0.2268
     60  CD2      -46.0070   44.1400    4.3640 C.ar  293  HIS293      0.1154
     61  CE1      -43.9530   44.6070    4.9540 C.ar  293  HIS293      0.1986
     62  NE2      -45.1860   44.4960    5.4010 N.ar  293  HIS293     -0.2212
     63  N        -47.9340   41.7470    2.1300 N.am  294  GLU294     -0.1979
     64  CA       -49.0110   41.1780    2.9090 C.3   294  GLU294      0.1602
     65  C        -49.0690   39.6880    2.6950 C.2   294  GLU294      0.2287
     66  O        -49.2880   38.9390    3.6430 O.2   294  GLU294     -0.2864
     67  CB       -50.3510   41.7840    2.5700 C.3   294  GLU294      0.0415
     68  CG       -50.4380   43.3150    2.6300 C.3   294  GLU294      0.1163
     69  CD       -49.7180   43.9760    3.7960 C.2   294  GLU294      0.3649
     70  OE1      -49.5480   43.3610    4.8840 O.co2 294  GLU294     -0.2457
     71  OE2      -49.3040   45.1270    3.5940 O.co2 294  GLU294     -0.2457
     72  N        -46.4100   37.9520    4.8260 N.3   297  HIS297     -0.1241
     73  CA       -46.7860   37.9500    6.2330 C.3   297  HIS297      0.1621
     74  C        -47.4590   36.6940    6.6430 C.2   297  HIS297      0.2264
     75  O        -47.4570   36.4020    7.8430 O.2   297  HIS297     -0.2867
     76  CB       -47.7360   39.0930    6.6010 C.3   297  HIS297      0.0745
     77  CG       -47.0410   40.2930    7.1790 C.ar  297  HIS297      0.0817
     78  ND1      -45.9950   40.1900    8.0750 N.ar  297  HIS297     -0.2268
     79  CD2      -47.2370   41.6180    6.9780 C.ar  297  HIS297      0.1154
     80  CE1      -45.5780   41.4020    8.3960 C.ar  297  HIS297      0.1986
     81  NE2      -46.3120   42.2830    7.7430 N.ar  297  HIS297     -0.2212
     82  N        -41.7720   40.6000   12.7000 N.3   315  LYS315     -0.1231
     83  CA       -42.5400   40.4060   11.4650 C.3   315  LYS315      0.1693
     84  C        -42.3060   41.4730   10.3780 C.2   315  LYS315      0.2591
     85  O        -42.2500   41.1420    9.2230 O.2   315  LYS315     -0.2718
     86  CB       -44.0350   40.2300   11.7380 C.3   315  LYS315      0.0285
     87  CG       -44.7760   41.4070   12.3580 C.3   315  LYS315      0.0035
     88  CD       -46.2390   41.0150   12.4020 C.3   315  LYS315      0.0206
     89  CE       -47.1650   42.0790   12.9440 C.3   315  LYS315      0.1093
     90  NZ       -47.6900   43.0470   11.9290 N.3   315  LYS315     -0.1314
     91  N        -42.1390   42.7320   10.7530 N.am  316  GLU316     -0.1979
     92  CA       -42.0760   43.7720    9.7640 C.3   316  GLU316      0.1602
     93  C        -40.7110   43.8980    9.1580 C.2   316  GLU316      0.2287
     94  O        -40.6110   44.0140    7.9550 O.2   316  GLU316     -0.2864
     95  CB       -42.5410   45.1290   10.3110 C.3   316  GLU316      0.0415
     96  CG       -43.9480   45.1290   10.8610 C.3   316  GLU316      0.1163
     97  CD       -44.9720   44.7420    9.8450 C.2   316  GLU316      0.3649
     98  OE1      -44.6120   44.6840    8.6630 O.co2 316  GLU316     -0.2457
     99  OE2      -46.1310   44.4960   10.1790 O.co2 316  GLU316     -0.2457
    100  N        -45.0380   52.1260   14.0750 N.3   372  TYR372     -0.1241
    101  CA       -45.0270   51.5520   12.7320 C.3   372  TYR372      0.1605
    102  C        -44.1500   52.4330   11.8330 C.2   372  TYR372      0.2264
    103  O        -44.6320   53.1380   10.9290 O.2   372  TYR372     -0.2867
    104  CB       -46.4700   51.4140   12.2000 C.3   372  TYR372      0.0534
    105  CG       -47.1460   50.2770   12.9180 C.ar  372  TYR372     -0.0201
    106  CD1      -47.6530   50.4410   14.2260 C.ar  372  TYR372     -0.0009
    107  CD2      -47.1690   49.0130   12.3670 C.ar  372  TYR372     -0.0009
    108  CE1      -48.2050   49.3770   14.9030 C.ar  372  TYR372      0.0417
    109  CE2      -47.7160   47.9460   13.0550 C.ar  372  TYR372      0.0417
    110  CZ       -48.2280   48.1300   14.3180 C.ar  372  TYR372      0.1957
    111  OH       -48.7580   47.0600   14.9860 O.3   372  TYR372     -0.2866
    112  N        -39.4770   49.2210   10.4870 N.3   377  TYR377     -0.1241
    113  CA       -39.6400   48.5990    9.1810 C.3   377  TYR377      0.1605
    114  C        -38.3420   48.5280    8.3890 C.2   377  TYR377      0.2264
    115  O        -37.8170   47.4370    8.1200 O.2   377  TYR377     -0.2867
    116  CB       -40.6640   49.3420    8.3350 C.3   377  TYR377      0.0534
    117  CG       -42.1230   49.0180    8.6170 C.ar  377  TYR377     -0.0201
    118  CD1      -42.6910   49.2570    9.8660 C.ar  377  TYR377     -0.0009
    119  CD2      -42.9520   48.5150    7.6030 C.ar  377  TYR377     -0.0009
    120  CE1      -44.0250   48.9820   10.1070 C.ar  377  TYR377      0.0417
    121  CE2      -44.2920   48.2430    7.8240 C.ar  377  TYR377      0.0417
    122  CZ       -44.8320   48.4860    9.0830 C.ar  377  TYR377      0.1957
    123  OH       -46.1670   48.1920    9.3160 O.3   377  TYR377     -0.2866
@<TRIPOS>BOND
     1    53    54    1
     2    54    57    1
     3    54    55    1
     4    57    58    1
     5    63    55   am
     6    63    64    1
     7    30    29    2
     8    55    56    2
     9    35    32    1
    10    67    68    1
    11    67    64    1
    12    68    69    1
    13    65    64    1
    14    65    66    2
    15    29    28    1
    16    29    31   am
    17    58    59   ar
    18    58    60   ar
    19    28    27    1
    20    71    69   ar
    21    59    61   ar
    22    32    31    1
    23    32    33    1
    24    69    70   ar
    25    60    62   ar
    26    22    21    2
    27    27    21   am
    28    72    73    1
    29    61    62   ar
    30    33    36   am
    31    33    34    2
    32    36    37    1
    33    21    20    1
    34    39    38    2
    35    38    37    1
    36    38    44   am
    37    73    76    1
    38    73    74    1
    39    37    40    1
    40    45    44    1
    41    45    48    1
    42    45    46    1
    43    76    77    1
    44    74    75    2
    45    20    19    1
    46    20    23    1
    47    48    49    1
    48    79    77   ar
    49    79    81   ar
    50    46    47    2
    51    77    78   ar
    52    40    41    1
    53   119   121   ar
    54   119   117   ar
    55    23    24    1
    56    81    80   ar
    57   121   122   ar
    58    94    93    2
    59    78    80   ar
    60   115   114    2
    61    51    50   ar
    62    49    50    1
    63   116   117    1
    64   116   113    1
    65   114   113    1
    66    41    42    1
    67   117   118   ar
    68    98    97   ar
    69    24    25    1
    70    50    52   ar
    71   122   123    1
    72   122   120   ar
    73    93    92    1
    74   113   112    1
    75    85    84    2
    76     8     7    2
    77    42    43    1
    78    92    95    1
    79    92    91    1
    80    97    99   ar
    81    97    96    1
    82   118   120   ar
    83     7     9   am
    84     7     6    1
    85    95    96    1
    86    25    26    1
    87    84    91   am
    88    84    83    1
    89     5     6    1
    90     5     2    1
    91   103   102    2
    92     1     2    1
    93     2     3    1
    94    83    86    1
    95    83    82    1
    96    86    87    1
    97    17    16   ar
    98   102   101    1
    99    90    89    1
   100   104   101    1
   101   104   105    1
   102    87    88    1
   103   107   105   ar
   104   107   109   ar
   105    88    89    1
   106     3     4    2
   107   101   100    1
   108    16    18   ar
   109    16    15    1
   110   105   106   ar
   111   109   110   ar
   112    14    15    1
   113    14    11    1
   114    13    12    2
   115    10    11    1
   116   106   108   ar
   117   110   108   ar
   118   110   111    1
   119    11    12    1
