@<TRIPOS>MOLECULE
tmp/4xn9A01.pdb
 97 91 0 0 0
SMALL
GASTEIGER

@<TRIPOS>ATOM
      1  N         71.3960  -41.9890   -0.0290 N.3   150  PHE150     -0.1241
      2  CA        70.1280  -41.3760   -0.4400 C.3   150  PHE150      0.1605
      3  C         70.1910  -40.9460   -1.8970 C.2   150  PHE150      0.2264
      4  O         71.1410  -40.2750   -2.3460 O.2   150  PHE150     -0.2867
      5  CB        69.7370  -40.1600    0.3940 C.3   150  PHE150      0.0534
      6  CG        69.6350  -40.4340    1.8420 C.ar  150  PHE150     -0.0203
      7  CD1       68.4660  -40.8750    2.3730 C.ar  150  PHE150     -0.0042
      8  CD2       70.7450  -40.2510    2.6750 C.ar  150  PHE150     -0.0042
      9  CE1       68.3740  -41.1380    3.7140 C.ar  150  PHE150     -0.0003
     10  CE2       70.6610  -40.5040    4.0220 C.ar  150  PHE150     -0.0003
     11  CZ        69.4530  -40.9270    4.5370 C.ar  150  PHE150     -0.0000
     12  N         67.5610  -39.1680   -4.4410 N.3   152  LEU152     -0.1245
     13  CA        66.3310  -38.3900   -4.4960 C.3   152  LEU152      0.1561
     14  C         66.0370  -37.7990   -5.8740 C.2   152  LEU152      0.2260
     15  O         66.9370  -37.3310   -6.5470 O.2   152  LEU152     -0.2867
     16  CB        66.3940  -37.2490   -3.4660 C.3   152  LEU152      0.0270
     17  CG        66.8570  -37.6560   -2.0680 C.3   152  LEU152      0.0019
     18  CD1       66.9340  -36.4350   -1.1560 C.3   152  LEU152      0.0001
     19  CD2       65.9630  -38.7160   -1.4300 C.3   152  LEU152      0.0001
     20  N         58.5220  -41.9430   -4.2090 N.3   157  ARG157     -0.1245
     21  CA        59.4220  -43.0370   -4.4900 C.3   157  ARG157      0.1563
     22  C         58.6050  -44.3180   -4.6310 C.2   157  ARG157      0.2260
     23  O         57.8170  -44.6050   -3.7660 O.2   157  ARG157     -0.2867
     24  CB        60.4420  -43.1320   -3.4100 C.3   157  ARG157      0.0307
     25  CG        61.2000  -44.3960   -3.5050 C.3   157  ARG157      0.0489
     26  CD        61.2860  -44.9630   -2.1330 C.3   157  ARG157      0.2205
     27  NE        62.5080  -44.5590   -1.4600 N.pl3 157  ARG157     -0.0865
     28  CZ        62.7420  -44.8610   -0.1960 C.cat 157  ARG157      0.5346
     29  NH1       61.8090  -45.5450    0.4940 N.pl3 157  ARG157      0.1354
     30  NH2       63.8850  -44.4700    0.3730 N.pl3 157  ARG157      0.1354
     31  N         61.7030  -42.8720   -8.7950 N.3   172  TRP172     -0.1241
     32  CA        60.8090  -41.7850   -8.4380 C.3   172  TRP172      0.1605
     33  C         59.8600  -41.5340   -9.5630 C.2   172  TRP172      0.2264
     34  O         60.2240  -41.6660  -10.7190 O.2   172  TRP172     -0.2867
     35  CB        61.6540  -40.4990   -8.1720 C.3   172  TRP172      0.0550
     36  CG        62.5120  -40.6210   -6.9510 C.ar  172  TRP172      0.0003
     37  CD1       63.7480  -41.1400   -6.8820 C.ar  172  TRP172      0.0946
     38  CD2       62.1450  -40.2990   -5.6110 C.ar  172  TRP172      0.0152
     39  NE1       64.1980  -41.1380   -5.6010 N.ar  172  TRP172     -0.2442
     40  CE2       63.2210  -40.6370   -4.7950 C.ar  172  TRP172      0.0810
     41  CE3       61.0310  -39.6940   -5.0290 C.ar  172  TRP172      0.0012
     42  CZ2       63.2250  -40.3810   -3.4350 C.ar  172  TRP172      0.0191
     43  CZ3       61.0420  -39.4610   -3.6720 C.ar  172  TRP172      0.0001
     44  CH2       62.1170  -39.7960   -2.9010 C.ar  172  TRP172      0.0015
     45  N         62.9060  -35.0590    9.9110 N.3   194  ARG194     -0.1245
     46  CA        61.6240  -35.5120    9.3620 C.3   194  ARG194      0.1563
     47  C         60.4800  -35.0520   10.2110 C.2   194  ARG194      0.2260
     48  O         60.5220  -35.1940   11.4180 O.2   194  ARG194     -0.2867
     49  CB        61.6010  -37.0210    9.3210 C.3   194  ARG194      0.0307
     50  CG        62.6740  -37.6570    8.4710 C.3   194  ARG194      0.0489
     51  CD        62.5210  -39.1490    8.6140 C.3   194  ARG194      0.2205
     52  NE        63.6670  -39.8780    8.1020 N.pl3 194  ARG194     -0.0865
     53  CZ        63.8670  -40.1220    6.8180 C.cat 194  ARG194      0.5346
     54  NH1       63.0170  -39.6660    5.8940 N.pl3 194  ARG194      0.1354
     55  NH2       64.9350  -40.7940    6.4430 N.pl3 194  ARG194      0.1354
     56  N         54.5280  -35.7480    4.2110 N.3   206  ALA206     -0.1245
     57  CA        55.7870  -36.0020    4.8770 C.3   206  ALA206      0.1562
     58  C         56.7800  -34.8980    4.5330 C.2   206  ALA206      0.2260
     59  O         56.8960  -34.5140    3.3630 O.2   206  ALA206     -0.2867
     60  CB        56.3420  -37.3230    4.4500 C.3   206  ALA206      0.0290
     61  N         60.7200  -33.7780    4.6970 N.3   208  GLU208     -0.1245
     62  CA        62.0660  -34.2910    4.8770 C.3   208  GLU208      0.1567
     63  C         63.0850  -33.2220    4.4830 C.2   208  GLU208      0.2260
     64  O         63.0790  -32.7430    3.3630 O.2   208  GLU208     -0.2867
     65  CB        62.3000  -35.5500    4.0450 C.3   208  GLU208      0.0388
     66  CG        61.3240  -36.6550    4.3080 C.3   208  GLU208      0.1160
     67  CD        61.5910  -37.8800    3.4680 C.2   208  GLU208      0.3649
     68  OE1       62.1710  -37.7450    2.3630 O.co2 208  GLU208     -0.2457
     69  OE2       61.2000  -38.9680    3.9260 O.co2 208  GLU208     -0.2457
     70  N         67.1050  -32.5300    4.3320 N.3   210  TYR210     -0.1241
     71  CA        68.3690  -33.2110    4.2370 C.3   210  TYR210      0.1605
     72  C         69.4680  -32.1890    4.4150 C.2   210  TYR210      0.2264
     73  O         69.4990  -31.1950    3.6940 O.2   210  TYR210     -0.2867
     74  CB        68.4940  -33.8620    2.8520 C.3   210  TYR210      0.0534
     75  CG        67.4570  -34.9340    2.5870 C.ar  210  TYR210     -0.0201
     76  CD1       66.1750  -34.6270    2.2790 C.ar  210  TYR210     -0.0009
     77  CD2       67.7840  -36.2840    2.6880 C.ar  210  TYR210     -0.0009
     78  CE1       65.2340  -35.6300    2.0530 C.ar  210  TYR210      0.0417
     79  CE2       66.8570  -37.2890    2.4500 C.ar  210  TYR210      0.0417
     80  CZ        65.5830  -36.9460    2.1430 C.ar  210  TYR210      0.1957
     81  OH        64.6810  -37.9380    1.9620 O.3   210  TYR210     -0.2866
     82  N         54.8930  -35.7250   -0.2410 N.3   245  ILE245     -0.1245
     83  CA        56.2250  -35.6290    0.2840 C.3   245  ILE245      0.1561
     84  C         56.8190  -34.3070   -0.1960 C.2   245  ILE245      0.2260
     85  O         56.6700  -33.9200   -1.3250 O.2   245  ILE245     -0.2867
     86  CB        56.9950  -36.9160   -0.1140 C.3   245  ILE245      0.0252
     87  CG1       58.4840  -36.8090    0.1070 C.3   245  ILE245      0.0019
     88  CG2       56.7100  -37.2870   -1.5790 C.3   245  ILE245      0.0019
     89  CD1       58.8150  -36.7270    1.5700 C.3   245  ILE245      0.0001
     90  N         60.4440  -32.7160    0.0040 N.3   247  MET247     -0.1245
     91  CA        61.8500  -32.7210    0.2980 C.3   247  MET247      0.1570
     92  C         62.5190  -31.3480    0.0780 C.2   247  MET247      0.2261
     93  O         62.1490  -30.5680   -0.8190 O.2   247  MET247     -0.2867
     94  CB        62.5560  -33.7790   -0.5280 C.3   247  MET247      0.0387
     95  CG        62.0710  -35.1830   -0.2100 C.3   247  MET247      0.0595
     96  SD        62.7120  -36.4640   -1.3090 S.3   247  MET247     -0.1393
     97  CE        61.7820  -35.9840   -2.7610 C.3   247  MET247      0.0692
@<TRIPOS>BOND
     1    34    33    2
     2    33    32    1
     3    31    32    1
     4    32    35    1
     5    35    36    1
     6    36    37   ar
     7    36    38   ar
     8    37    39   ar
     9    15    14    2
    10    14    13    1
    11    38    41   ar
    12    38    40   ar
    13    39    40   ar
    14    41    43   ar
    15    40    42   ar
    16    22    21    1
    17    22    23    2
    18    13    12    1
    19    13    16    1
    20    21    20    1
    21    21    24    1
    22    43    44   ar
    23    25    24    1
    24    25    26    1
    25    16    17    1
    26    42    44   ar
    27    97    96    1
    28     4     3    2
    29    26    27    1
    30    17    19    1
    31    17    18    1
    32     3     2    1
    33    88    86    1
    34    27    28    2
    35    85    84    2
    36    96    95    1
    37    93    92    2
    38    94    95    1
    39    94    91    1
    40     2     1    1
    41     2     5    1
    42    82    83    1
    43    84    83    1
    44    28    30    1
    45    28    29    1
    46    86    87    1
    47    86    83    1
    48    90    91    1
    49    92    91    1
    50    87    89    1
    51     5     6    1
    52     6     7   ar
    53     6     8   ar
    54    81    80    1
    55    78    80   ar
    56    78    76   ar
    57    80    79   ar
    58    76    75   ar
    59    68    67   ar
    60     7     9   ar
    61    79    77   ar
    62    75    77   ar
    63    75    74    1
    64     8    10   ar
    65    74    71    1
    66    64    63    2
    67    59    58    2
    68    67    69   ar
    69    67    66    1
    70    73    72    2
    71     9    11   ar
    72    10    11   ar
    73    65    66    1
    74    65    62    1
    75    56    57    1
    76    71    70    1
    77    71    72    1
    78    60    57    1
    79    63    62    1
    80    58    57    1
    81    61    62    1
    82    54    53    1
    83    55    53    1
    84    53    52    2
    85    52    51    1
    86    50    51    1
    87    50    49    1
    88    49    46    1
    89    46    45    1
    90    46    47    1
    91    47    48    2
