@<TRIPOS>MOLECULE
tmp/4xnaA05.pdb
 136 129 0 0 0
SMALL
GASTEIGER

@<TRIPOS>ATOM
      1  N         49.3370  -28.4890   39.5460 N.3   115  GLN115     -0.1245
      2  CA        50.0570  -27.1970   39.7040 C.3   115  GLN115      0.1566
      3  C         50.4650  -27.0680   41.1560 C.2   115  GLN115      0.2260
      4  O         49.5820  -27.0550   42.0170 O.2   115  GLN115     -0.2867
      5  CB        49.1640  -26.0130   39.3000 C.3   115  GLN115      0.0367
      6  CG        49.7910  -24.6410   39.5110 C.3   115  GLN115      0.0905
      7  CD        51.1550  -24.4800   38.8960 C.2   115  GLN115      0.2608
      8  OE1       51.4440  -25.0270   37.8460 O.2   115  GLN115     -0.2717
      9  NE2       52.0240  -23.7650   39.5810 N.am  115  GLN115     -0.0878
     10  N         53.2770  -24.7750   42.4640 N.3   117  GLU117     -0.1245
     11  CA        53.7830  -23.4920   42.9000 C.3   117  GLU117      0.1567
     12  C         52.5860  -22.5690   43.2320 C.2   117  GLU117      0.2260
     13  O         51.6190  -22.5270   42.5080 O.2   117  GLU117     -0.2867
     14  CB        54.7030  -22.8480   41.8770 C.3   117  GLU117      0.0388
     15  CG        55.4490  -21.6680   42.4350 C.3   117  GLU117      0.1160
     16  CD        56.4190  -21.0250   41.4680 C.2   117  GLU117      0.3649
     17  OE1       56.5770  -21.4760   40.2850 O.co2 117  GLU117     -0.2457
     18  OE2       57.0740  -20.0540   41.8870 O.co2 117  GLU117     -0.2457
     19  N         47.7840  -19.6340   35.2930 N.3   256  MET256     -0.1245
     20  CA        48.8130  -18.6990   34.8060 C.3   256  MET256      0.1570
     21  C         49.1630  -19.0400   33.3380 C.2   256  MET256      0.2261
     22  O         48.3590  -19.6430   32.6190 O.2   256  MET256     -0.2867
     23  CB        50.0210  -18.7680   35.7590 C.3   256  MET256      0.0387
     24  CG        49.7710  -18.1120   37.1240 C.3   256  MET256      0.0595
     25  SD        49.8000  -16.2780   37.2300 S.3   256  MET256     -0.1393
     26  CE        51.5090  -15.7950   36.7550 C.3   256  MET256      0.0692
     27  N         52.2390  -20.7130   32.4310 N.3   258  ALA258     -0.1231
     28  CA        52.9570  -21.9770   32.3180 C.3   258  ALA258      0.1694
     29  C         53.6830  -22.2610   33.6400 C.2   258  ALA258      0.2592
     30  O         53.5670  -21.4830   34.5870 O.2   258  ALA258     -0.2718
     31  CB        53.9390  -21.9210   31.1690 C.3   258  ALA258      0.0304
     32  N         54.3900  -23.3810   33.7180 N.am  259  MET259     -0.1965
     33  CA        55.0740  -23.7570   34.9210 C.3   259  MET259      0.1736
     34  C         56.3360  -24.5840   34.5890 C.2   259  MET259      0.2616
     35  O         56.2960  -25.5800   33.8490 O.2   259  MET259     -0.2715
     36  CB        54.0780  -24.5140   35.8300 C.3   259  MET259      0.0427
     37  CG        54.6940  -25.0490   37.1020 C.3   259  MET259      0.0599
     38  SD        55.2830  -23.6670   38.1430 S.3   259  MET259     -0.1393
     39  CE        56.7140  -24.4520   38.8750 C.3   259  MET259      0.0692
     40  N         57.4370  -24.2080   35.2090 N.am  260  GLU260     -0.1977
     41  CA        58.7200  -24.7790   34.9150 C.3   260  GLU260      0.1602
     42  C         59.0290  -26.0950   35.6100 C.2   260  GLU260      0.2287
     43  O         60.1810  -26.3430   35.9410 O.2   260  GLU260     -0.2864
     44  CB        59.7950  -23.7330   35.2140 C.3   260  GLU260      0.0415
     45  CG        60.0520  -23.3980   36.6870 C.3   260  GLU260      0.1163
     46  CD        59.1610  -22.2690   37.2710 C.2   260  GLU260      0.3649
     47  OE1       58.0920  -21.9270   36.6760 O.co2 260  GLU260     -0.2457
     48  OE2       59.5290  -21.7770   38.3790 O.co2 260  GLU260     -0.2457
     49  N         61.0430  -18.6540   28.6650 N.3   293  HIS293     -0.1226
     50  CA        61.0220  -18.2780   30.0760 C.3   293  HIS293      0.1752
     51  C         61.0540  -19.5800   30.9040 C.2   293  HIS293      0.2595
     52  O         61.9210  -19.7270   31.7750 O.2   293  HIS293     -0.2718
     53  CB        59.7870  -17.4100   30.3560 C.3   293  HIS293      0.0759
     54  CG        59.6090  -17.0280   31.7900 C.ar  293  HIS293      0.0818
     55  ND1       60.0200  -15.8180   32.3160 N.ar  293  HIS293     -0.2268
     56  CD2       59.0900  -17.7160   32.8220 C.ar  293  HIS293      0.1154
     57  CE1       59.7120  -15.7610   33.5880 C.ar  293  HIS293      0.1986
     58  NE2       59.2220  -16.9340   33.9280 N.ar  293  HIS293     -0.2212
     59  N         60.1190  -20.5000   30.6530 N.am  294  GLU294     -0.1979
     60  CA        60.0940  -21.7520   31.3990 C.3   294  GLU294      0.1602
     61  C         61.3610  -22.5740   31.2130 C.2   294  GLU294      0.2287
     62  O         61.9170  -23.0760   32.1790 O.2   294  GLU294     -0.2864
     63  CB        58.8860  -22.5680   31.0250 C.3   294  GLU294      0.0415
     64  CG        57.4950  -21.9250   31.2510 C.3   294  GLU294      0.1163
     65  CD        57.3230  -20.9840   32.4460 C.2   294  GLU294      0.3649
     66  OE1       57.9530  -21.1760   33.4930 O.co2 294  GLU294     -0.2457
     67  OE2       56.5520  -20.0120   32.3310 O.co2 294  GLU294     -0.2457
     68  N         64.2000  -21.0910   33.3010 N.3   297  HIS297     -0.1241
     69  CA        64.1110  -21.4440   34.7010 C.3   297  HIS297      0.1621
     70  C         64.8730  -22.7090   35.0620 C.2   297  HIS297      0.2264
     71  O         65.1510  -22.9470   36.2480 O.2   297  HIS297     -0.2867
     72  CB        62.6540  -21.6890   35.1480 C.3   297  HIS297      0.0745
     73  CG        61.9520  -20.4970   35.7010 C.ar  297  HIS297      0.0817
     74  ND1       62.4610  -19.7450   36.7430 N.ar  297  HIS297     -0.2268
     75  CD2       60.7390  -19.9630   35.4140 C.ar  297  HIS297      0.1154
     76  CE1       61.6120  -18.7830   37.0560 C.ar  297  HIS297      0.1986
     77  NE2       60.5820  -18.8650   36.2330 N.ar  297  HIS297     -0.2212
     78  N         64.3190  -15.8640   41.2580 N.3   315  LYS315     -0.1231
     79  CA        64.1150  -16.6210   40.0630 C.3   315  LYS315      0.1693
     80  C         63.3470  -15.8560   38.9930 C.2   315  LYS315      0.2591
     81  O         63.6590  -15.9930   37.8230 O.2   315  LYS315     -0.2718
     82  CB        63.5160  -18.0190   40.3230 C.3   315  LYS315      0.0285
     83  CG        62.0930  -18.0410   40.8580 C.3   315  LYS315      0.0035
     84  CD        61.7160  -19.5010   41.1000 C.3   315  LYS315      0.0206
     85  CE        60.2510  -19.7370   41.4870 C.3   315  LYS315      0.1093
     86  NZ        59.2130  -19.7510   40.4480 N.3   315  LYS315     -0.1314
     87  N         62.3430  -15.0870   39.3810 N.am  316  GLU316     -0.1979
     88  CA        61.4520  -14.5000   38.3920 C.3   316  GLU316      0.1602
     89  C         62.0410  -13.2500   37.7440 C.2   316  GLU316      0.2287
     90  O         61.9750  -13.1030   36.5350 O.2   316  GLU316     -0.2864
     91  CB        60.0800  -14.2170   38.9730 C.3   316  GLU316      0.0415
     92  CG        59.3030  -15.4210   39.4210 C.3   316  GLU316      0.1163
     93  CD        59.1080  -16.4320   38.3040 C.2   316  GLU316      0.3649
     94  OE1       59.3420  -16.0900   37.1050 O.co2 316  GLU316     -0.2457
     95  OE2       58.7000  -17.5750   38.6360 O.co2 316  GLU316     -0.2457
     96  N         50.2440  -16.5580   46.3890 N.3   369  ASN369     -0.1240
     97  CA        49.8870  -16.4350   45.0000 C.3   369  ASN369      0.1653
     98  C         49.5330  -15.0470   44.5770 C.2   369  ASN369      0.2266
     99  O         49.4760  -14.8050   43.3800 O.2   369  ASN369     -0.2867
    100  CB        48.7680  -17.3850   44.5790 C.3   369  ASN369      0.1155
    101  CG        49.1890  -18.8510   44.6460 C.2   369  ASN369      0.2627
    102  OD1       50.2890  -19.2310   44.2710 O.2   369  ASN369     -0.2716
    103  ND2       48.2890  -19.6770   45.1620 N.am  369  ASN369     -0.0877
    104  N         52.7950  -12.9690   42.6060 N.3   372  TYR372     -0.1241
    105  CA        53.3230  -13.2250   41.2680 C.3   372  TYR372      0.1605
    106  C         52.9810  -11.9930   40.4290 C.2   372  TYR372      0.2264
    107  O         52.1210  -12.0310   39.6210 O.2   372  TYR372     -0.2867
    108  CB        52.7610  -14.5760   40.7150 C.3   372  TYR372      0.0534
    109  CG        53.4210  -15.7350   41.4600 C.ar  372  TYR372     -0.0201
    110  CD1       53.0300  -16.0680   42.7650 C.ar  372  TYR372     -0.0009
    111  CD2       54.5080  -16.3960   40.9140 C.ar  372  TYR372     -0.0009
    112  CE1       53.6650  -17.0470   43.4510 C.ar  372  TYR372      0.0417
    113  CE2       55.1870  -17.3780   41.6220 C.ar  372  TYR372      0.0417
    114  CZ        54.7560  -17.6970   42.8760 C.ar  372  TYR372      0.1957
    115  OH        55.3810  -18.6700   43.5490 O.3   372  TYR372     -0.2866
    116  N         58.0920   -9.6190   38.9140 N.3   377  TYR377     -0.1241
    117  CA        58.5580  -10.0110   37.5900 C.3   377  TYR377      0.1605
    118  C         59.2620   -8.8720   36.7700 C.2   377  TYR377      0.2264
    119  O         60.4410   -9.0130   36.4320 O.2   377  TYR377     -0.2867
    120  CB        57.3990  -10.5750   36.7760 C.3   377  TYR377      0.0534
    121  CG        57.0110  -11.9890   37.0470 C.ar  377  TYR377     -0.0201
    122  CD1       56.4810  -12.3670   38.2930 C.ar  377  TYR377     -0.0009
    123  CD2       57.1210  -12.9660   36.0440 C.ar  377  TYR377     -0.0009
    124  CE1       56.0540  -13.6900   38.5220 C.ar  377  TYR377      0.0417
    125  CE2       56.7620  -14.2890   36.2770 C.ar  377  TYR377      0.0417
    126  CZ        56.2130  -14.6710   37.5120 C.ar  377  TYR377      0.1957
    127  OH        55.8610  -16.0060   37.7640 O.3   377  TYR377     -0.2866
    128  N         42.3480  -17.6870   42.8810 N.3   817  GLN817     -0.1245
    129  CA        43.4480  -17.0400   42.1070 C.3   817  GLN817      0.1566
    130  C         42.9390  -16.1930   40.9280 C.2   817  GLN817      0.2260
    131  O         43.4060  -15.0870   40.6900 O.2   817  GLN817     -0.2867
    132  CB        44.4270  -18.0460   41.5620 C.3   817  GLN817      0.0367
    133  CG        45.2650  -18.6840   42.6300 C.3   817  GLN817      0.0905
    134  CD        46.2560  -19.7130   42.0660 C.2   817  GLN817      0.2608
    135  OE1       46.3180  -20.8610   42.5350 O.2   817  GLN817     -0.2717
    136  NE2       47.0860  -19.2690   41.1120 N.am  817  GLN817     -0.0878
@<TRIPOS>BOND
     1    49    50    1
     2    50    53    1
     3    50    51    1
     4    53    54    1
     5    59    51   am
     6    59    60    1
     7    51    52    2
     8    63    64    1
     9    63    60    1
    10    31    28    1
    11    61    60    1
    12    61    62    2
    13    64    65    1
    14    54    55   ar
    15    54    56   ar
    16    55    57   ar
    17    28    27    1
    18    28    29    1
    19    67    65   ar
    20    65    66   ar
    21    22    21    2
    22    56    58   ar
    23    68    69    1
    24    21    20    1
    25    57    58   ar
    26    29    32   am
    27    29    30    2
    28    32    33    1
    29    35    34    2
    30    34    33    1
    31    34    40   am
    32    69    70    1
    33    69    72    1
    34    20    19    1
    35    20    23    1
    36    41    40    1
    37    41    44    1
    38    41    42    1
    39    33    36    1
    40    70    71    2
    41    72    73    1
    42    44    45    1
    43    75    73   ar
    44    75    77   ar
    45    42    43    2
    46    73    74   ar
    47    23    24    1
    48    36    37    1
    49   123   125   ar
    50   123   121   ar
    51    77    76   ar
    52   125   126   ar
    53   119   118    2
    54    90    89    2
    55    47    46   ar
    56    45    46    1
    57    74    76   ar
    58    26    25    1
    59   118   117    1
    60   120   121    1
    61   120   117    1
    62   121   122   ar
    63    37    38    1
    64    94    93   ar
    65    24    25    1
    66    46    48   ar
    67   126   127    1
    68   126   124   ar
    69   117   116    1
    70    89    88    1
    71    81    80    2
    72     8     7    2
    73    38    39    1
    74   122   124   ar
    75    93    95   ar
    76    93    92    1
    77    88    91    1
    78    88    87    1
    79     7     6    1
    80     7     9   am
    81    91    92    1
    82    80    87   am
    83    80    79    1
    84     5     6    1
    85     5     2    1
    86     1     2    1
    87   107   106    2
    88     2     3    1
    89    79    82    1
    90    79    78    1
    91    17    16   ar
    92    82    83    1
    93   106   105    1
    94    86    85    1
    95   131   130    2
    96   108   105    1
    97   108   109    1
    98    83    84    1
    99   111   109   ar
   100   111   113   ar
   101   130   129    1
   102    84    85    1
   103   136   134   am
   104     3     4    2
   105   105   104    1
   106   109   110   ar
   107    16    18   ar
   108    16    15    1
   109   132   129    1
   110   132   133    1
   111   113   114   ar
   112    14    15    1
   113    14    11    1
   114   134   135    2
   115   134   133    1
   116   129   128    1
   117    10    11    1
   118    13    12    2
   119   110   112   ar
   120   114   112   ar
   121   114   115    1
   122    11    12    1
   123    99    98    2
   124   102   101    2
   125    98    97    1
   126   100   101    1
   127   100    97    1
   128   101   103   am
   129    97    96    1
