@<TRIPOS>MOLECULE
tmp/4xnbA03.pdb
 70 66 0 0 0
SMALL
GASTEIGER

@<TRIPOS>ATOM
      1  N         32.0010  -26.7480  -31.5060 N.3   779  ARG779     -0.1245
      2  CA        31.5120  -28.1050  -31.3020 C.3   779  ARG779      0.1563
      3  C         30.6820  -28.2490  -30.0280 C.2   779  ARG779      0.2260
      4  O         29.6860  -28.9610  -30.0070 O.2   779  ARG779     -0.2867
      5  CB        32.6580  -29.1450  -31.3580 C.3   779  ARG779      0.0307
      6  CG        33.2870  -29.1820  -32.8280 C.3   779  ARG779      0.0489
      7  CD        34.6300  -29.9630  -32.9270 C.3   779  ARG779      0.2205
      8  NE        34.4500  -31.3480  -32.4710 N.pl3 779  ARG779     -0.0865
      9  CZ        35.4180  -32.2230  -32.1480 C.cat 779  ARG779      0.5346
     10  NH1       36.7410  -31.9170  -32.1280 N.pl3 779  ARG779      0.1354
     11  NH2       35.0090  -33.4560  -31.7900 N.pl3 779  ARG779      0.1354
     12  N         27.5510  -27.6740  -32.4240 N.3   783  GLY783     -0.1210
     13  CA        27.5790  -29.0980  -32.7160 C.3   783  GLY783      0.1956
     14  C         26.7120  -29.9160  -31.7730 C.2   783  GLY783      0.2611
     15  O         25.9810  -30.7660  -32.2350 O.2   783  GLY783     -0.2717
     16  N         26.7820  -29.6280  -30.4810 N.am  784  ALA784     -0.1979
     17  CA        26.0210  -30.3390  -29.4840 C.3   784  ALA784      0.1597
     18  C         24.5300  -30.0710  -29.7200 C.2   784  ALA784      0.2287
     19  O         23.7150  -30.9390  -29.4680 O.2   784  ALA784     -0.2864
     20  CB        26.3900  -29.8730  -28.0650 C.3   784  ALA784      0.0319
     21  N         22.9190  -29.2820  -32.6380 N.3   786  ALA786     -0.1231
     22  CA        22.4830  -29.9810  -33.8500 C.3   786  ALA786      0.1694
     23  C         22.5520  -31.5160  -33.7650 C.2   786  ALA786      0.2593
     24  O         21.6660  -32.2110  -34.2730 O.2   786  ALA786     -0.2718
     25  CB        23.3140  -29.5000  -35.0500 C.3   786  ALA786      0.0304
     26  N         23.6470  -32.0280  -33.2020 N.am  787  GLY787     -0.1942
     27  CA        23.8980  -33.4370  -33.0710 C.3   787  GLY787      0.2014
     28  C         23.4370  -34.1620  -31.8370 C.2   787  GLY787      0.2639
     29  O         23.0610  -35.3300  -31.8910 O.2   787  GLY787     -0.2714
     30  N         23.3840  -33.4730  -30.7170 N.am  788  SER788     -0.1949
     31  CA        22.9440  -34.0880  -29.4980 C.3   788  SER788      0.1924
     32  C         21.6800  -33.5720  -28.9230 C.2   788  SER788      0.2314
     33  O         21.2670  -34.0550  -27.8610 O.2   788  SER788     -0.2863
     34  CB        24.0710  -33.9860  -28.4410 C.3   788  SER788      0.2116
     35  OG        25.1870  -34.6520  -29.0080 O.3   788  SER788     -0.2180
     36  N         31.9150  -31.3220  -40.3820 N.3   821  ARG821     -0.1231
     37  CA        31.5020  -32.0750  -39.2090 C.3   821  ARG821      0.1694
     38  C         30.0680  -31.6590  -38.7730 C.2   821  ARG821      0.2591
     39  O         29.2350  -32.5000  -38.4690 O.2   821  ARG821     -0.2718
     40  CB        32.5630  -31.8590  -38.0850 C.3   821  ARG821      0.0321
     41  CG        32.2360  -32.5920  -36.8170 C.3   821  ARG821      0.0489
     42  CD        32.9980  -32.0780  -35.5700 C.3   821  ARG821      0.2205
     43  NE        34.4720  -32.2120  -35.6000 N.pl3 821  ARG821     -0.0865
     44  CZ        35.1630  -33.3480  -35.4240 C.cat 821  ARG821      0.5346
     45  NH1       34.5440  -34.5320  -35.2770 N.pl3 821  ARG821      0.1354
     46  NH2       36.4960  -33.2850  -35.4210 N.pl3 821  ARG821      0.1354
     47  N         29.8170  -30.3610  -38.7490 N.am  822  LEU822     -0.1980
     48  CA        28.5320  -29.8040  -38.2900 C.3   822  LEU822      0.1596
     49  C         27.3720  -29.9930  -39.2270 C.2   822  LEU822      0.2287
     50  O         26.2040  -29.9950  -38.7580 O.2   822  LEU822     -0.2864
     51  CB        28.6770  -28.3480  -37.9700 C.3   822  LEU822      0.0297
     52  CG        28.9170  -27.9690  -36.5160 C.3   822  LEU822      0.0022
     53  CD1       30.0860  -28.7400  -35.9750 C.3   822  LEU822      0.0001
     54  CD2       29.1020  -26.4400  -36.4880 C.3   822  LEU822      0.0001
     55  N         26.6060  -32.7760  -40.6430 N.3   824  GLU824     -0.1231
     56  CA        26.1760  -34.1640  -40.6550 C.3   824  GLU824      0.1684
     57  C         24.6750  -34.3660  -40.2380 C.2   824  GLU824      0.2434
     58  O         23.9620  -35.1360  -40.8590 O.2   824  GLU824     -0.2733
     59  CB        27.1080  -34.9860  -39.7720 C.3   824  GLU824      0.0402
     60  CG        27.1750  -36.4100  -40.1010 C.3   824  GLU824      0.1161
     61  CD        27.9670  -36.7900  -41.3790 C.2   824  GLU824      0.3649
     62  OE1       28.5930  -35.9940  -42.0620 O.co2 824  GLU824     -0.2457
     63  OE2       27.9250  -37.9770  -41.7250 O.co2 824  GLU824     -0.2457
     64  N         24.2070  -33.6560  -39.2080 N.am  825  PRO825     -0.2729
     65  CA        22.7700  -33.8890  -38.8760 C.3   825  PRO825      0.1401
     66  C         21.7630  -33.5930  -39.9790 C.2   825  PRO825      0.2269
     67  O         20.7150  -34.2540  -40.0010 O.2   825  PRO825     -0.2865
     68  CB        22.5200  -33.0190  -37.6310 C.3   825  PRO825      0.0296
     69  CG        23.8910  -32.9270  -37.0100 C.3   825  PRO825      0.0237
     70  CD        24.9030  -32.9070  -38.1250 C.3   825  PRO825      0.0939
@<TRIPOS>BOND
     1    62    61   ar
     2    63    61   ar
     3    61    60    1
     4    58    57    2
     5    56    55    1
     6    56    57    1
     7    56    59    1
     8    36    37    1
     9    57    64   am
    10    60    59    1
    11    67    66    2
    12    66    65    1
    13    49    50    2
    14    49    48    1
    15    37    38    1
    16    37    40    1
    17    64    65    1
    18    64    70    1
    19    65    68    1
    20    38    47   am
    21    38    39    2
    22    47    48    1
    23    48    51    1
    24    70    69    1
    25    40    41    1
    26    51    52    1
    27    68    69    1
    28    41    42    1
    29    52    54    1
    30    52    53    1
    31    43    42    1
    32    43    44    2
    33    44    46    1
    34    44    45    1
    35    25    22    1
    36    24    23    2
    37    22    23    1
    38    22    21    1
    39    23    26   am
    40    26    27    1
    41    27    28    1
    42     7     6    1
    43     7     8    1
    44     6     5    1
    45    13    12    1
    46    13    14    1
    47     8     9    2
    48    15    14    2
    49     9    10    1
    50     9    11    1
    51    29    28    2
    52    28    30   am
    53    14    16   am
    54     1     2    1
    55     5     2    1
    56     2     3    1
    57    30    31    1
    58    16    17    1
    59     3     4    2
    60    18    17    1
    61    18    19    2
    62    31    32    1
    63    31    34    1
    64    17    20    1
    65    35    34    1
    66    32    33    2
