@<TRIPOS>MOLECULE
tmp/4xnbA04.pdb
 146 140 0 0 0
SMALL
GASTEIGER

@<TRIPOS>ATOM
      1  N         49.1980  -28.4980  -39.0520 N.3   115  GLN115     -0.1245
      2  CA        48.4690  -29.8000  -39.2310 C.3   115  GLN115      0.1566
      3  C         48.5240  -30.1500  -40.6840 C.2   115  GLN115      0.2260
      4  O         48.0150  -29.3660  -41.5360 O.2   115  GLN115     -0.2867
      5  CB        47.0140  -29.6310  -38.7270 C.3   115  GLN115      0.0367
      6  CG        46.1420  -30.8470  -39.0050 C.3   115  GLN115      0.0905
      7  CD        46.7440  -32.1110  -38.4150 C.2   115  GLN115      0.2608
      8  OE1       47.3190  -32.0800  -37.3220 O.2   115  GLN115     -0.2717
      9  NE2       46.6240  -33.2080  -39.1180 N.am  115  GLN115     -0.0878
     10  N         48.1120  -33.6880  -41.9330 N.3   117  GLU117     -0.1245
     11  CA        47.2600  -34.7950  -42.4040 C.3   117  GLU117      0.1567
     12  C         45.8670  -34.2450  -42.7320 C.2   117  GLU117      0.2260
     13  O         45.3650  -33.4680  -41.9540 O.2   117  GLU117     -0.2867
     14  CB        47.1430  -35.9170  -41.3750 C.3   117  GLU117      0.0388
     15  CG        46.4900  -37.1640  -41.9520 C.3   117  GLU117      0.1160
     16  CD        46.4030  -38.3530  -41.0190 C.2   117  GLU117      0.3649
     17  OE1       47.0470  -38.3130  -39.9460 O.co2 117  GLU117     -0.2457
     18  OE2       45.7310  -39.3470  -41.3760 O.co2 117  GLU117     -0.2457
     19  N         42.4520  -26.5170  -32.7520 N.3   254  PHE254     -0.1227
     20  CA        42.7370  -27.7410  -33.4390 C.3   254  PHE254      0.1736
     21  C         41.4230  -28.3570  -33.9160 C.2   254  PHE254      0.2595
     22  O         40.4740  -28.4350  -33.1430 O.2   254  PHE254     -0.2718
     23  CB        43.4440  -28.6980  -32.4430 C.3   254  PHE254      0.0547
     24  CG        44.2320  -29.7740  -33.1130 C.ar  254  PHE254     -0.0202
     25  CD1       45.4220  -29.4370  -33.7740 C.ar  254  PHE254     -0.0042
     26  CD2       43.7530  -31.1260  -33.1390 C.ar  254  PHE254     -0.0042
     27  CE1       46.1620  -30.4010  -34.3990 C.ar  254  PHE254     -0.0003
     28  CE2       44.4810  -32.0950  -33.8210 C.ar  254  PHE254     -0.0003
     29  CZ        45.7000  -31.7440  -34.4270 C.ar  254  PHE254     -0.0000
     30  N         41.3940  -28.8230  -35.1700 N.am  255  ASN255     -0.1960
     31  CA        40.2040  -29.3630  -35.7540 C.3   255  ASN255      0.1819
     32  C         39.7640  -30.7430  -35.2950 C.2   255  ASN255      0.2621
     33  O         38.5740  -31.0240  -35.3260 O.2   255  ASN255     -0.2715
     34  CB        40.2740  -29.3130  -37.2900 C.3   255  ASN255      0.1195
     35  CG        40.1310  -27.8830  -37.8140 C.2   255  ASN255      0.2630
     36  OD1       39.5910  -26.9680  -37.1220 O.2   255  ASN255     -0.2716
     37  ND2       40.5610  -27.6990  -39.0560 N.am  255  ASN255     -0.0877
     38  N         40.6960  -31.5900  -34.8720 N.am  256  MET256     -0.1977
     39  CA        40.3410  -32.9450  -34.3730 C.3   256  MET256      0.1605
     40  C         40.8320  -33.1420  -32.9760 C.2   256  MET256      0.2287
     41  O         40.8670  -32.2050  -32.2030 O.2   256  MET256     -0.2864
     42  CB        40.8670  -34.0000  -35.3570 C.3   256  MET256      0.0413
     43  CG        40.3500  -33.7390  -36.7630 C.3   256  MET256      0.0598
     44  SD        39.3310  -35.0980  -37.3670 S.3   256  MET256     -0.1393
     45  CE        40.3260  -36.5710  -36.8740 C.3   256  MET256      0.0692
     46  N         43.9140  -35.0790  -32.0260 N.3   258  ALA258     -0.1231
     47  CA        45.3820  -34.9660  -31.8560 C.3   258  ALA258      0.1694
     48  C         46.0020  -35.4910  -33.1430 C.2   258  ALA258      0.2592
     49  O         45.2780  -35.8880  -34.0200 O.2   258  ALA258     -0.2718
     50  CB        45.8760  -35.7050  -30.6250 C.3   258  ALA258      0.0304
     51  N         47.3260  -35.5080  -33.2450 N.am  259  MET259     -0.1965
     52  CA        48.0100  -35.9130  -34.4500 C.3   259  MET259      0.1736
     53  C         49.3810  -36.5400  -34.1670 C.2   259  MET259      0.2616
     54  O         50.1610  -35.9660  -33.4080 O.2   259  MET259     -0.2715
     55  CB        48.1330  -34.7090  -35.3370 C.3   259  MET259      0.0427
     56  CG        48.9640  -34.8900  -36.6030 C.3   259  MET259      0.0599
     57  SD        48.0990  -36.1090  -37.7060 S.3   259  MET259     -0.1393
     58  CE        49.4830  -36.9040  -38.5050 C.3   259  MET259      0.0692
     59  N         49.6510  -37.6730  -34.8220 N.am  260  GLU260     -0.1977
     60  CA        50.7730  -38.5330  -34.5000 C.3   260  GLU260      0.1602
     61  C         52.0930  -38.1310  -35.1970 C.2   260  GLU260      0.2287
     62  O         52.8590  -39.0170  -35.5310 O.2   260  GLU260     -0.2864
     63  CB        50.4670  -39.9570  -34.8530 C.3   260  GLU260      0.0415
     64  CG        50.2700  -40.2950  -36.3440 C.3   260  GLU260      0.1163
     65  CD        48.8100  -40.1590  -36.8760 C.2   260  GLU260      0.3649
     66  OE1       47.9720  -39.4370  -36.2760 O.co2 260  GLU260     -0.2457
     67  OE2       48.5620  -40.7550  -37.9780 O.co2 260  GLU260     -0.2457
     68  N         46.4680  -43.6310  -28.2890 N.3   293  HIS293     -0.1226
     69  CA        46.2330  -43.6570  -29.7230 C.3   293  HIS293      0.1752
     70  C         47.3690  -43.0460  -30.5310 C.2   293  HIS293      0.2595
     71  O         47.8960  -43.6980  -31.4510 O.2   293  HIS293     -0.2718
     72  CB        44.8770  -42.9280  -30.0210 C.3   293  HIS293      0.0759
     73  CG        44.4510  -43.0360  -31.4440 C.ar  293  HIS293      0.0818
     74  ND1       43.6170  -44.0220  -31.9000 N.ar  293  HIS293     -0.2268
     75  CD2       44.7940  -42.3020  -32.5250 C.ar  293  HIS293      0.1154
     76  CE1       43.4770  -43.9180  -33.2100 C.ar  293  HIS293      0.1986
     77  NE2       44.1770  -42.8640  -33.6120 N.ar  293  HIS293     -0.2212
     78  N         47.7350  -41.8050  -30.2580 N.am  294  GLU294     -0.1979
     79  CA        48.8110  -41.1560  -31.0430 C.3   294  GLU294      0.1602
     80  C         50.1330  -41.9350  -30.8810 C.2   294  GLU294      0.2287
     81  O         50.8710  -42.0760  -31.8110 O.2   294  GLU294     -0.2864
     82  CB        48.9600  -39.6630  -30.7440 C.3   294  GLU294      0.0415
     83  CG        47.6160  -38.9090  -30.7050 C.3   294  GLU294      0.1163
     84  CD        46.7270  -39.1180  -31.9400 C.2   294  GLU294      0.3649
     85  OE1       47.2940  -39.2530  -33.0290 O.co2 294  GLU294     -0.2457
     86  OE2       45.4950  -39.0470  -31.8100 O.co2 294  GLU294     -0.2457
     87  N         50.2430  -45.0660  -33.0430 N.3   297  HIS297     -0.1241
     88  CA        50.5000  -44.7880  -34.4270 C.3   297  HIS297      0.1621
     89  C         51.9880  -44.7890  -34.7730 C.2   297  HIS297      0.2264
     90  O         52.3360  -44.8790  -35.9100 O.2   297  HIS297     -0.2867
     91  CB        49.9820  -43.3850  -34.7870 C.3   297  HIS297      0.0745
     92  CG        48.5720  -43.3310  -35.2950 C.ar  297  HIS297      0.0817
     93  ND1       48.1220  -44.1360  -36.3140 N.ar  297  HIS297     -0.2268
     94  CD2       47.5330  -42.5110  -34.9760 C.ar  297  HIS297      0.1154
     95  CE1       46.8800  -43.8120  -36.6140 C.ar  297  HIS297      0.1986
     96  NE2       46.5160  -42.8380  -35.8210 N.ar  297  HIS297     -0.2212
     97  N         44.1080  -46.3650  -39.1500 N.3   316  GLU316     -0.1245
     98  CA        43.1300  -45.9040  -38.1890 C.3   316  GLU316      0.1567
     99  C         42.3440  -47.0360  -37.5070 C.2   316  GLU316      0.2260
    100  O         42.1510  -47.0080  -36.3050 O.2   316  GLU316     -0.2867
    101  CB        42.2280  -44.7980  -38.7260 C.3   316  GLU316      0.0388
    102  CG        42.9630  -43.5320  -39.1560 C.3   316  GLU316      0.1160
    103  CD        43.7550  -42.9110  -38.0590 C.2   316  GLU316      0.3649
    104  OE1       43.5420  -43.3070  -36.9100 O.co2 316  GLU316     -0.2457
    105  OE2       44.6600  -42.1020  -38.3770 O.co2 316  GLU316     -0.2457
    106  N         39.4030  -35.0850  -46.2390 N.3   369  ASN369     -0.1240
    107  CA        39.0930  -34.7660  -44.8340 C.3   369  ASN369      0.1653
    108  C         37.6860  -35.1360  -44.4140 C.2   369  ASN369      0.2266
    109  O         37.4590  -35.2630  -43.2000 O.2   369  ASN369     -0.2867
    110  CB        39.3160  -33.3280  -44.4930 C.3   369  ASN369      0.1155
    111  CG        40.8360  -32.9440  -44.5170 C.2   369  ASN369      0.2627
    112  OD1       41.7690  -33.7330  -44.1350 O.2   369  ASN369     -0.2716
    113  ND2       41.0700  -31.6920  -44.9700 N.am  369  ASN369     -0.0877
    114  N         37.5580  -39.0680  -42.3700 N.3   372  TYR372     -0.1241
    115  CA        38.0430  -39.3880  -41.0120 C.3   372  TYR372      0.1605
    116  C         36.8070  -39.7410  -40.1920 C.2   372  TYR372      0.2264
    117  O         36.3780  -38.9890  -39.3570 O.2   372  TYR372     -0.2867
    118  CB        38.8610  -38.1970  -40.4550 C.3   372  TYR372      0.0534
    119  CG        40.2050  -38.2210  -41.1650 C.ar  372  TYR372     -0.0201
    120  CD1       40.3630  -37.6790  -42.4540 C.ar  372  TYR372     -0.0009
    121  CD2       41.3090  -38.7910  -40.5670 C.ar  372  TYR372     -0.0009
    122  CE1       41.5570  -37.8430  -43.1520 C.ar  372  TYR372      0.0417
    123  CE2       42.5270  -38.9460  -41.2610 C.ar  372  TYR372      0.0417
    124  CZ        42.6400  -38.4100  -42.5530 C.ar  372  TYR372      0.1957
    125  OH        43.8400  -38.5700  -43.1950 O.3   372  TYR372     -0.2866
    126  N         37.3440  -45.4350  -38.6900 N.3   377  TYR377     -0.1241
    127  CA        37.9380  -45.6060  -37.3260 C.3   377  TYR377      0.1605
    128  C         37.2660  -46.7550  -36.5450 C.2   377  TYR377      0.2264
    129  O         37.8800  -47.7990  -36.2710 O.2   377  TYR377     -0.2867
    130  CB        37.8120  -44.2990  -36.5620 C.3   377  TYR377      0.0534
    131  CG        38.8400  -43.2710  -36.8860 C.ar  377  TYR377     -0.0201
    132  CD1       38.8870  -42.6150  -38.1250 C.ar  377  TYR377     -0.0009
    133  CD2       39.7610  -42.8400  -35.8770 C.ar  377  TYR377     -0.0009
    134  CE1       39.8810  -41.6520  -38.3830 C.ar  377  TYR377      0.0417
    135  CE2       40.7070  -41.8590  -36.1360 C.ar  377  TYR377      0.0417
    136  CZ        40.7720  -41.2690  -37.3840 C.ar  377  TYR377      0.1957
    137  OH        41.7890  -40.3090  -37.6200 O.3   377  TYR377     -0.2866
    138  N         36.4960  -27.7740  -42.5920 N.3   817  GLN817     -0.1245
    139  CA        36.5160  -29.0330  -41.9100 C.3   817  GLN817      0.1566
    140  C         35.5140  -29.0980  -40.7780 C.2   817  GLN817      0.2260
    141  O         34.8170  -30.0740  -40.6190 O.2   817  GLN817     -0.2867
    142  CB        37.9060  -29.3810  -41.3500 C.3   817  GLN817      0.0367
    143  CG        38.7730  -29.8140  -42.4740 C.3   817  GLN817      0.0905
    144  CD        40.2570  -30.0760  -42.0230 C.2   817  GLN817      0.2608
    145  OE1       40.5260  -30.7820  -41.0520 O.2   817  GLN817     -0.2717
    146  NE2       41.1570  -29.5160  -42.7220 N.am  817  GLN817     -0.0878
@<TRIPOS>BOND
     1   106   107    1
     2   113   111   am
     3   107   110    1
     4   107   108    1
     5   111   110    1
     6   111   112    2
     7   108   109    2
     8   125   124    1
     9   122   124   ar
    10   122   120   ar
    11    12    11    1
    12    12    13    2
    13   146   144   am
    14   138   139    1
    15   124   123   ar
    16   143   144    1
    17   143   142    1
    18   120   119   ar
    19    11    10    1
    20    11    14    1
    21   114   115    1
    22   144   145    2
    23    15    14    1
    24    15    16    1
    25   139   142    1
    26   139   140    1
    27     4     3    2
    28    18    16   ar
    29   123   121   ar
    30   119   121   ar
    31   119   118    1
    32    16    17   ar
    33   115   118    1
    34   115   116    1
    35   140   141    2
    36     3     2    1
    37   116   117    2
    38     2     1    1
    39     2     5    1
    40   102   101    1
    41   102   103    1
    42    97    98    1
    43     9     7   am
    44    37    35   am
    45     6     5    1
    46     6     7    1
    47   101    98    1
    48   126   127    1
    49    58    57    1
    50     7     8    2
    51   134   132   ar
    52   134   136   ar
    53   105   103   ar
    54    98    99    1
    55   132   131   ar
    56   103   104   ar
    57    67    65   ar
    58    35    34    1
    59    35    36    2
    60    57    56    1
    61   137   136    1
    62    99   100    2
    63   136   135   ar
    64    44    45    1
    65    44    43    1
    66   127   130    1
    67   127   128    1
    68    34    31    1
    69   131   130    1
    70   131   133   ar
    71    65    64    1
    72    65    66   ar
    73    43    42    1
    74    95    93   ar
    75    95    96   ar
    76    56    55    1
    77   128   129    2
    78    64    63    1
    79    93    92   ar
    80   135   133   ar
    81    90    89    2
    82    96    94   ar
    83    31    32    1
    84    31    30    1
    85    62    61    2
    86    42    39    1
    87    55    52    1
    88    33    32    2
    89    92    94   ar
    90    92    91    1
    91    32    38   am
    92    61    60    1
    93    30    21   am
    94    38    39    1
    95    63    60    1
    96    59    60    1
    97    59    53   am
    98    91    88    1
    99    89    88    1
   100    52    53    1
   101    52    51    1
   102    29    27   ar
   103    29    28   ar
   104    88    87    1
   105    27    25   ar
   106    39    40    1
   107    53    54    2
   108    49    48    2
   109    21    20    1
   110    21    22    2
   111    28    26   ar
   112    25    24   ar
   113    77    76   ar
   114    77    75   ar
   115    20    19    1
   116    20    23    1
   117    51    48   am
   118    76    74   ar
   119    48    47    1
   120    26    24   ar
   121    24    23    1
   122    85    84   ar
   123    40    41    2
   124    75    73   ar
   125    46    47    1
   126    84    86   ar
   127    84    83    1
   128    74    73   ar
   129    47    50    1
   130    81    80    2
   131    71    70    2
   132    73    72    1
   133    79    80    1
   134    79    82    1
   135    79    78    1
   136    82    83    1
   137    70    78   am
   138    70    69    1
   139    72    69    1
   140    69    68    1
