@<TRIPOS>MOLECULE
tmp/4xndA00.pdb
 93 88 0 0 0
SMALL
GASTEIGER

@<TRIPOS>ATOM
      1  N         24.6150  -45.9360  -38.1990 N.3   350  ALA350     -0.1245
      2  CA        23.8960  -44.8280  -38.8700 C.3   350  ALA350      0.1562
      3  C         24.6930  -44.3100  -40.0650 C.2   350  ALA350      0.2260
      4  O         24.1290  -44.0950  -41.1340 O.2   350  ALA350     -0.2867
      5  CB        23.5550  -43.7150  -37.9070 C.3   350  ALA350      0.0290
      6  N         20.9540  -41.6830  -29.7840 N.3   619  ASN619     -0.1240
      7  CA        21.4880  -42.2460  -31.0140 C.3   619  ASN619      0.1653
      8  C         21.4040  -43.6800  -31.1530 C.2   619  ASN619      0.2266
      9  O         21.1310  -44.1940  -32.2430 O.2   619  ASN619     -0.2867
     10  CB        22.9660  -41.8420  -31.1830 C.3   619  ASN619      0.1155
     11  CG        23.1420  -40.3530  -31.2020 C.2   619  ASN619      0.2627
     12  OD1       23.8220  -39.8210  -30.3780 O.2   619  ASN619     -0.2716
     13  ND2       22.5420  -39.7090  -32.0850 N.am  619  ASN619     -0.0877
     14  N         17.7250  -44.3910  -31.7620 N.3   622  ALA622     -0.1231
     15  CA        17.3730  -44.1120  -33.1900 C.3   622  ALA622      0.1694
     16  C         17.5940  -45.2780  -34.1380 C.2   622  ALA622      0.2591
     17  O         16.8030  -45.5090  -35.0760 O.2   622  ALA622     -0.2718
     18  CB        18.0850  -42.8390  -33.7000 C.3   622  ALA622      0.0304
     19  N         18.6040  -46.0830  -33.8530 N.am  623  GLU623     -0.1979
     20  CA        19.0110  -47.1720  -34.7590 C.3   623  GLU623      0.1602
     21  C         17.9700  -48.3030  -34.6960 C.2   623  GLU623      0.2287
     22  O         17.9340  -49.1140  -35.5680 O.2   623  GLU623     -0.2864
     23  CB        20.4020  -47.7560  -34.4170 C.3   623  GLU623      0.0415
     24  CG        20.9890  -48.6940  -35.5220 C.3   623  GLU623      0.1163
     25  CD        21.1050  -47.9880  -36.9340 C.2   623  GLU623      0.3649
     26  OE1       21.2710  -46.7080  -37.0640 O.co2 623  GLU623     -0.2457
     27  OE2       21.0090  -48.7280  -37.9710 O.co2 623  GLU623     -0.2457
     28  N         12.9370  -42.2440  -37.9490 N.3   628  ILE628     -0.1245
     29  CA        13.2430  -41.7530  -36.6260 C.3   628  ILE628      0.1561
     30  C         12.2540  -40.6950  -36.2430 C.2   628  ILE628      0.2260
     31  O         12.1030  -39.6970  -36.9800 O.2   628  ILE628     -0.2867
     32  CB        14.6580  -41.1500  -36.6150 C.3   628  ILE628      0.0252
     33  CG1       15.7110  -42.2380  -37.0290 C.3   628  ILE628      0.0019
     34  CG2       14.9560  -40.5100  -35.2440 C.3   628  ILE628      0.0019
     35  CD1       17.0840  -41.5560  -37.2190 C.3   628  ILE628      0.0001
     36  N         18.9400  -33.9710  -30.7390 N.3   790  PRO790     -0.2116
     37  CA        18.1580  -34.1610  -31.9850 C.3   790  PRO790      0.1372
     38  C         16.7270  -33.6860  -31.8340 C.2   790  PRO790      0.2244
     39  O         16.1250  -33.1880  -32.8140 O.2   790  PRO790     -0.2868
     40  CB        18.2900  -35.7000  -32.3340 C.3   790  PRO790      0.0268
     41  CG        18.9390  -36.3460  -31.1360 C.3   790  PRO790      0.0207
     42  CD        19.6700  -35.2160  -30.3710 C.3   790  PRO790      0.0892
     43  N         15.8460  -31.0270  -34.5690 N.3   794  HIS794     -0.1241
     44  CA        14.7530  -31.4590  -35.4220 C.3   794  HIS794      0.1621
     45  C         13.3870  -30.8680  -35.0120 C.2   794  HIS794      0.2264
     46  O         12.3350  -31.4480  -35.3270 O.2   794  HIS794     -0.2867
     47  CB        14.6740  -32.9970  -35.4620 C.3   794  HIS794      0.0745
     48  CG        15.7920  -33.6310  -36.2100 C.ar  794  HIS794      0.0817
     49  ND1       15.8440  -33.6180  -37.5770 N.ar  794  HIS794     -0.2268
     50  CD2       16.8930  -34.3160  -35.7910 C.ar  794  HIS794      0.1154
     51  CE1       16.9330  -34.2470  -37.9830 C.ar  794  HIS794      0.1986
     52  NE2       17.5600  -34.7210  -36.9200 N.ar  794  HIS794     -0.2212
     53  N         24.6150  -34.1480  -39.3500 N.3   825  PRO825     -0.2116
     54  CA        23.2040  -34.4150  -38.9550 C.3   825  PRO825      0.1372
     55  C         22.1720  -34.1060  -40.0670 C.2   825  PRO825      0.2244
     56  O         21.0790  -34.6780  -40.0940 O.2   825  PRO825     -0.2868
     57  CB        22.9860  -33.4570  -37.7830 C.3   825  PRO825      0.0268
     58  CG        24.3350  -33.2590  -37.2090 C.3   825  PRO825      0.0207
     59  CD        25.3090  -33.3140  -38.3350 C.3   825  PRO825      0.0892
     60  N         21.5440  -36.9060  -42.8650 N.3   828  ARG828     -0.1245
     61  CA        20.7130  -38.0290  -42.4900 C.3   828  ARG828      0.1563
     62  C         19.2140  -37.8830  -42.7820 C.2   828  ARG828      0.2260
     63  O         18.3810  -38.6540  -42.2550 O.2   828  ARG828     -0.2867
     64  CB        20.8870  -38.3450  -40.9860 C.3   828  ARG828      0.0307
     65  CG        22.3260  -38.4810  -40.5120 C.3   828  ARG828      0.0489
     66  CD        23.0400  -39.5110  -41.3000 C.3   828  ARG828      0.2205
     67  NE        24.5030  -39.6440  -41.0630 N.pl3 828  ARG828     -0.0865
     68  CZ        25.0470  -40.1360  -39.9600 C.cat 828  ARG828      0.5346
     69  NH1       24.3000  -40.4890  -38.9590 N.pl3 828  ARG828      0.1354
     70  NH2       26.3570  -40.2280  -39.8570 N.pl3 828  ARG828      0.1354
     71  N         16.2670  -40.5340  -43.0030 N.3   831  ARG831     -0.1231
     72  CA        15.8290  -41.3260  -41.8650 C.3   831  ARG831      0.1694
     73  C         14.6290  -40.7170  -41.1790 C.2   831  ARG831      0.2592
     74  O         14.1180  -41.3220  -40.2130 O.2   831  ARG831     -0.2718
     75  CB        16.9880  -41.4710  -40.8380 C.3   831  ARG831      0.0321
     76  CG        18.2100  -42.1860  -41.4020 C.3   831  ARG831      0.0489
     77  CD        18.0820  -43.6990  -41.4090 C.3   831  ARG831      0.2205
     78  NE        17.6050  -44.1580  -40.0760 N.pl3 831  ARG831     -0.0865
     79  CZ        18.3410  -44.6780  -39.1490 C.cat 831  ARG831      0.5346
     80  NH1       19.6240  -44.8270  -39.4020 N.pl3 831  ARG831      0.1354
     81  NH2       17.7960  -45.0970  -37.9670 N.pl3 831  ARG831      0.1354
     82  N         14.2140  -39.5330  -41.6120 N.am  832  TYR832     -0.1976
     83  CA        13.1670  -38.7360  -40.9490 C.3   832  TYR832      0.1639
     84  C         11.8530  -38.7410  -41.7510 C.2   832  TYR832      0.2290
     85  O         11.8170  -39.2140  -42.8970 O.2   832  TYR832     -0.2864
     86  CB        13.6670  -37.3490  -40.6510 C.3   832  TYR832      0.0560
     87  CG        14.7950  -37.4140  -39.6100 C.ar  832  TYR832     -0.0198
     88  CD1       14.5290  -37.4240  -38.2510 C.ar  832  TYR832     -0.0009
     89  CD2       16.1170  -37.6160  -40.0130 C.ar  832  TYR832     -0.0009
     90  CE1       15.5590  -37.5580  -37.3130 C.ar  832  TYR832      0.0417
     91  CE2       17.1890  -37.7510  -39.0660 C.ar  832  TYR832      0.0417
     92  CZ        16.9040  -37.7360  -37.7240 C.ar  832  TYR832      0.1957
     93  OH        17.8610  -37.9110  -36.7560 O.3   832  TYR832     -0.2866
@<TRIPOS>BOND
     1    71    72    1
     2    85    84    2
     3    60    61    1
     4    62    61    1
     5    62    63    2
     6    61    64    1
     7    72    73    1
     8    72    75    1
     9    84    83    1
    10    82    73   am
    11    82    83    1
    12    77    76    1
    13    77    78    1
    14    76    75    1
    15    66    67    1
    16    66    65    1
    17    73    74    2
    18     4     3    2
    19    67    68    2
    20    64    65    1
    21    83    86    1
    22    86    87    1
    23    56    55    2
    24    78    79    2
    25    55    54    1
    26     3     2    1
    27    89    87   ar
    28    89    91   ar
    29    68    70    1
    30    68    69    1
    31    87    88   ar
    32    80    79    1
    33    53    54    1
    34    53    59    1
    35    79    81    1
    36    91    92   ar
    37    54    57    1
    38     2     1    1
    39     2     5    1
    40    59    58    1
    41    88    90   ar
    42    51    49   ar
    43    51    52   ar
    44    27    25   ar
    45    28    29    1
    46    57    58    1
    47    92    90   ar
    48    92    93    1
    49    49    48   ar
    50    35    33    1
    51    26    25   ar
    52    33    32    1
    53    31    30    2
    54    25    24    1
    55    52    50   ar
    56    29    32    1
    57    29    30    1
    58    32    34    1
    59    48    50   ar
    60    48    47    1
    61    22    21    2
    62    24    23    1
    63    47    44    1
    64    44    45    1
    65    44    43    1
    66    46    45    2
    67    17    16    2
    68    20    21    1
    69    20    23    1
    70    20    19    1
    71    16    19   am
    72    16    15    1
    73    18    15    1
    74    15    14    1
    75    39    38    2
    76    40    37    1
    77    40    41    1
    78     9     8    2
    79    13    11   am
    80    37    38    1
    81    37    36    1
    82    11    10    1
    83    11    12    2
    84    10     7    1
    85     8     7    1
    86    41    42    1
    87     7     6    1
    88    36    42    1
