@<TRIPOS>MOLECULE
tmp/4xndA08.pdb
 93 89 0 0 0
SMALL
GASTEIGER

@<TRIPOS>ATOM
      1  N         41.2560  -32.0290  -35.3000 N.3   256  MET256     -0.1230
      2  CA        40.8820  -33.3380  -34.7820 C.3   256  MET256      0.1702
      3  C         41.4120  -33.5360  -33.3550 C.2   256  MET256      0.2593
      4  O         41.5700  -32.5620  -32.6460 O.2   256  MET256     -0.2718
      5  CB        41.4490  -34.3840  -35.7210 C.3   256  MET256      0.0401
      6  CG        40.8530  -34.2420  -37.1130 C.3   256  MET256      0.0596
      7  SD        39.3100  -35.1250  -37.2450 S.3   256  MET256     -0.1393
      8  CE        40.0810  -36.6630  -37.7300 C.3   256  MET256      0.0692
      9  N         41.7570  -34.7480  -32.9700 N.am  257  GLY257     -0.1942
     10  CA        42.2360  -35.0080  -31.5950 C.3   257  GLY257      0.2014
     11  C         43.7260  -34.8550  -31.4690 C.2   257  GLY257      0.2638
     12  O         44.2130  -34.2240  -30.5180 O.2   257  GLY257     -0.2714
     13  N         44.4530  -35.4600  -32.4010 N.am  258  ALA258     -0.1977
     14  CA        45.9180  -35.4000  -32.3280 C.3   258  ALA258      0.1597
     15  C         46.5050  -35.9550  -33.6070 C.2   258  ALA258      0.2287
     16  O         45.7610  -36.3740  -34.4760 O.2   258  ALA258     -0.2864
     17  CB        46.3860  -36.2410  -31.1280 C.3   258  ALA258      0.0319
     18  N         43.2750  -33.3860  -25.3440 N.3   271  TYR271     -0.1241
     19  CA        43.7250  -34.7200  -25.0790 C.3   271  TYR271      0.1605
     20  C         45.1180  -34.7540  -24.4910 C.2   271  TYR271      0.2264
     21  O         45.8160  -35.8020  -24.5670 O.2   271  TYR271     -0.2867
     22  CB        43.6750  -35.5760  -26.3420 C.3   271  TYR271      0.0534
     23  CG        42.2880  -35.7540  -26.8190 C.ar  271  TYR271     -0.0201
     24  CD1       41.3640  -36.3930  -26.0230 C.ar  271  TYR271     -0.0009
     25  CD2       41.9150  -35.3570  -28.0960 C.ar  271  TYR271     -0.0009
     26  CE1       40.0710  -36.5690  -26.3890 C.ar  271  TYR271      0.0417
     27  CE2       40.6280  -35.5490  -28.5150 C.ar  271  TYR271      0.0417
     28  CZ        39.7180  -36.2130  -27.6830 C.ar  271  TYR271      0.1957
     29  OH        38.4260  -36.4040  -28.0830 O.3   271  TYR271     -0.2866
     30  N         43.8460  -42.9090  -23.8490 N.3   289  ARG289     -0.1231
     31  CA        43.5200  -43.5180  -25.1520 C.3   289  ARG289      0.1694
     32  C         44.2470  -42.8340  -26.3020 C.2   289  ARG289      0.2591
     33  O         44.7090  -43.4800  -27.2280 O.2   289  ARG289     -0.2718
     34  CB        41.9920  -43.4380  -25.4390 C.3   289  ARG289      0.0321
     35  CG        41.5450  -43.6820  -26.8890 C.3   289  ARG289      0.0489
     36  CD        40.0020  -43.6900  -27.0460 C.3   289  ARG289      0.2205
     37  NE        39.3590  -42.3700  -26.8010 N.pl3 289  ARG289     -0.0865
     38  CZ        39.1570  -41.4210  -27.7310 C.cat 289  ARG289      0.5346
     39  NH1       39.5480  -41.6430  -28.9630 N.pl3 289  ARG289      0.1354
     40  NH2       38.5230  -40.2790  -27.4500 N.pl3 289  ARG289      0.1354
     41  N         44.1960  -41.5230  -26.3060 N.am  290  VAL290     -0.1980
     42  CA        44.6590  -40.7520  -27.4640 C.3   290  VAL290      0.1595
     43  C         46.1920  -40.6820  -27.4380 C.2   290  VAL290      0.2287
     44  O         46.8250  -40.7980  -28.4870 O.2   290  VAL290     -0.2864
     45  CB        44.0110  -39.3540  -27.5450 C.3   290  VAL290      0.0276
     46  CG1       44.6330  -38.4480  -28.6470 C.3   290  VAL290      0.0022
     47  CG2       42.4980  -39.5530  -27.7690 C.3   290  VAL290      0.0022
     48  N         47.0460  -44.0280  -28.7220 N.3   293  HIS293     -0.1226
     49  CA        46.7410  -44.0960  -30.1570 C.3   293  HIS293      0.1752
     50  C         47.8810  -43.4840  -30.9500 C.2   293  HIS293      0.2595
     51  O         48.3810  -44.1040  -31.8810 O.2   293  HIS293     -0.2718
     52  CB        45.4150  -43.3220  -30.4510 C.3   293  HIS293      0.0759
     53  CG        44.9640  -43.4400  -31.8610 C.ar  293  HIS293      0.0818
     54  ND1       44.0830  -44.4070  -32.2910 N.ar  293  HIS293     -0.2268
     55  CD2       45.2840  -42.7090  -32.9440 C.ar  293  HIS293      0.1154
     56  CE1       43.9380  -44.2930  -33.5970 C.ar  293  HIS293      0.1986
     57  NE2       44.6610  -43.2590  -34.0050 N.ar  293  HIS293     -0.2212
     58  N         48.2850  -42.2700  -30.6320 N.am  294  GLU294     -0.1979
     59  CA        49.3710  -41.6040  -31.4510 C.3   294  GLU294      0.1602
     60  C         50.6820  -42.3140  -31.3230 C.2   294  GLU294      0.2287
     61  O         51.4110  -42.4790  -32.2970 O.2   294  GLU294     -0.2864
     62  CB        49.5160  -40.1250  -31.0760 C.3   294  GLU294      0.0415
     63  CG        48.2000  -39.3120  -31.0650 C.3   294  GLU294      0.1163
     64  CD        47.3760  -39.4540  -32.3520 C.2   294  GLU294      0.3649
     65  OE1       47.9770  -39.6440  -33.4350 O.co2 294  GLU294     -0.2457
     66  OE2       46.1410  -39.4590  -32.2150 O.co2 294  GLU294     -0.2457
     67  N         43.3670  -48.0280  -33.9780 N.3   320  VAL320     -0.1245
     68  CA        42.2410  -48.0630  -33.0340 C.3   320  VAL320      0.1561
     69  C         42.1580  -49.3880  -32.2880 C.2   320  VAL320      0.2260
     70  O         41.9200  -49.3870  -31.0570 O.2   320  VAL320     -0.2867
     71  CB        40.9330  -47.7150  -33.7460 C.3   320  VAL320      0.0252
     72  CG1       39.7180  -47.9320  -32.7830 C.3   320  VAL320      0.0019
     73  CG2       40.9580  -46.2840  -34.2310 C.3   320  VAL320      0.0019
     74  N         44.6570  -49.1260  -29.6160 N.3   323  ASP323     -0.1239
     75  CA        44.3180  -48.2410  -28.4930 C.3   323  ASP323      0.1674
     76  C         43.2150  -48.8750  -27.6080 C.2   323  ASP323      0.2266
     77  O         43.2670  -48.7500  -26.3860 O.2   323  ASP323     -0.2867
     78  CB        44.0440  -46.7660  -28.8510 C.3   323  ASP323      0.1410
     79  CG        42.6330  -46.4510  -29.3960 C.2   323  ASP323      0.3668
     80  OD1       41.6260  -46.6970  -28.6880 O.co2 323  ASP323     -0.2456
     81  OD2       42.5590  -45.7770  -30.4640 O.co2 323  ASP323     -0.2456
     82  N         37.7000  -45.8920  -38.9490 N.3   377  TYR377     -0.1241
     83  CA        38.2930  -46.0830  -37.6030 C.3   377  TYR377      0.1605
     84  C         37.6570  -47.2200  -36.7950 C.2   377  TYR377      0.2264
     85  O         38.3200  -48.2350  -36.5000 O.2   377  TYR377     -0.2867
     86  CB        38.2220  -44.7860  -36.7850 C.3   377  TYR377      0.0534
     87  CG        39.2470  -43.7240  -37.1040 C.ar  377  TYR377     -0.0201
     88  CD1       39.2820  -43.0880  -38.3460 C.ar  377  TYR377     -0.0009
     89  CD2       40.1960  -43.3370  -36.1570 C.ar  377  TYR377     -0.0009
     90  CE1       40.2190  -42.1020  -38.6120 C.ar  377  TYR377      0.0417
     91  CE2       41.1430  -42.3510  -36.3910 C.ar  377  TYR377      0.0417
     92  CZ        41.1840  -41.7480  -37.6480 C.ar  377  TYR377      0.1957
     93  OH        42.1360  -40.7900  -37.9380 O.3   377  TYR377     -0.2866
@<TRIPOS>BOND
     1    82    83    1
     2    90    88   ar
     3    90    92   ar
     4    88    87   ar
     5    93    92    1
     6     8     7    1
     7    92    91   ar
     8    83    84    1
     9    83    86    1
    10     7     6    1
    11     6     5    1
    12    87    86    1
    13    87    89   ar
    14    84    85    2
    15    91    89   ar
    16     5     2    1
    17     1     2    1
    18     2     3    1
    19    16    15    2
    20    73    71    1
    21    57    56   ar
    22    57    55   ar
    23    67    68    1
    24    71    68    1
    25    71    72    1
    26    15    14    1
    27    56    54   ar
    28    65    64   ar
    29     3     9   am
    30     3     4    2
    31    68    69    1
    32     9    10    1
    33    55    53   ar
    34    13    14    1
    35    13    11   am
    36    64    66   ar
    37    64    63    1
    38    14    17    1
    39    61    60    2
    40    54    53   ar
    41    69    70    2
    42    51    50    2
    43    53    52    1
    44    10    11    1
    45    11    12    2
    46    59    60    1
    47    59    62    1
    48    59    58    1
    49    62    63    1
    50    50    58   am
    51    50    49    1
    52    81    79   ar
    53    52    49    1
    54    49    48    1
    55    74    75    1
    56    79    78    1
    57    79    80   ar
    58    39    38    1
    59    78    75    1
    60    46    45    1
    61    27    25   ar
    62    27    28   ar
    63    75    76    1
    64    44    43    2
    65    25    23   ar
    66    29    28    1
    67    47    45    1
    68    38    40    1
    69    38    37    2
    70    28    26   ar
    71    76    77    2
    72    45    42    1
    73    42    43    1
    74    42    41    1
    75    33    32    2
    76    36    35    1
    77    36    37    1
    78    35    34    1
    79    23    22    1
    80    23    24   ar
    81    26    24   ar
    82    22    19    1
    83    41    32   am
    84    32    31    1
    85    34    31    1
    86    18    19    1
    87    31    30    1
    88    19    20    1
    89    21    20    2
