@<TRIPOS>MOLECULE
tmp/4xndA11.pdb
 78 70 0 0 0
SMALL
GASTEIGER

@<TRIPOS>ATOM
      1  N         16.6370  -61.9190  -19.0730 N.3   548  THR548     -0.1218
      2  CA        16.9290  -61.6950  -17.6720 C.3   548  THR548      0.1862
      3  C         17.7780  -62.8590  -17.1040 C.2   548  THR548      0.2287
      4  O         18.6330  -62.6570  -16.2770 O.2   548  THR548     -0.2866
      5  CB        15.6050  -61.4790  -16.8260 C.3   548  THR548      0.1770
      6  OG1       14.7490  -62.5960  -17.0200 O.3   548  THR548     -0.2211
      7  CG2       14.9480  -60.1850  -17.2580 C.3   548  THR548      0.0375
      8  N         21.2690  -61.9190  -18.0980 N.3   551  MET551     -0.1230
      9  CA        21.7390  -60.8420  -17.2540 C.3   551  MET551      0.1702
     10  C         22.2860  -61.3700  -15.9320 C.2   551  MET551      0.2592
     11  O         23.2930  -60.8440  -15.3970 O.2   551  MET551     -0.2718
     12  CB        20.6310  -59.8320  -16.9480 C.3   551  MET551      0.0401
     13  CG        20.2150  -58.9750  -18.1230 C.3   551  MET551      0.0596
     14  SD        18.8070  -57.8830  -17.7960 S.3   551  MET551     -0.1393
     15  CE        19.4200  -56.8960  -16.4900 C.3   551  MET551      0.0692
     16  N         21.7170  -62.4870  -15.5090 N.am  552  ARG552     -0.1980
     17  CA        22.1270  -63.1050  -14.2780 C.3   552  ARG552      0.1597
     18  C         23.2530  -64.1070  -14.4730 C.2   552  ARG552      0.2287
     19  O         24.1360  -64.1090  -13.7030 O.2   552  ARG552     -0.2864
     20  CB        20.9540  -63.8130  -13.6500 C.3   552  ARG552      0.0334
     21  CG        21.2630  -64.4550  -12.3170 C.3   552  ARG552      0.0492
     22  CD        19.9770  -65.0320  -11.7380 C.3   552  ARG552      0.2205
     23  NE        20.2730  -65.9210  -10.6080 N.pl3 552  ARG552     -0.0865
     24  CZ        19.5310  -66.9690  -10.2260 C.cat 552  ARG552      0.5346
     25  NH1       18.4100  -67.3180  -10.8700 N.pl3 552  ARG552      0.1354
     26  NH2       19.9290  -67.6960   -9.1880 N.pl3 552  ARG552      0.1354
     27  N         26.0450  -59.9170  -20.3990 N.3   560  ARG560     -0.1245
     28  CA        25.0790  -59.4520  -19.3880 C.3   560  ARG560      0.1563
     29  C         24.4970  -58.0700  -19.7200 C.2   560  ARG560      0.2260
     30  O         23.2610  -57.8550  -19.6640 O.2   560  ARG560     -0.2867
     31  CB        25.6790  -59.4630  -17.9700 C.3   560  ARG560      0.0307
     32  CG        26.1970  -60.8650  -17.6250 C.3   560  ARG560      0.0489
     33  CD        26.9540  -60.8370  -16.3090 C.3   560  ARG560      0.2205
     34  NE        26.0470  -60.7890  -15.2280 N.pl3 560  ARG560     -0.0865
     35  CZ        26.4070  -60.7220  -13.9500 C.cat 560  ARG560      0.5346
     36  NH1       27.6850  -60.6790  -13.6090 N.pl3 560  ARG560      0.1354
     37  NH2       25.4630  -60.6830  -13.0250 N.pl3 560  ARG560      0.1354
     38  N         14.4780  -56.6000  -13.0720 N.3   594  ALA594     -0.1245
     39  CA        15.7940  -56.9860  -13.5500 C.3   594  ALA594      0.1562
     40  C         16.8320  -55.9280  -13.1950 C.2   594  ALA594      0.2260
     41  O         17.9420  -56.2910  -12.7410 O.2   594  ALA594     -0.2867
     42  CB        15.7630  -57.2620  -15.0490 C.3   594  ALA594      0.0290
     43  N         17.4750  -55.9690   -9.3590 N.3   597  ALA597     -0.1231
     44  CA        18.4100  -57.0310   -9.0720 C.3   597  ALA597      0.1694
     45  C         19.8830  -56.6200   -9.3310 C.2   597  ALA597      0.2591
     46  O         20.7650  -56.9140   -8.5260 O.2   597  ALA597     -0.2718
     47  CB        18.0500  -58.2690   -9.8530 C.3   597  ALA597      0.0304
     48  N         20.1310  -55.9120  -10.4320 N.am  598  VAL598     -0.1980
     49  CA        21.4790  -55.3840  -10.7250 C.3   598  VAL598      0.1595
     50  C         21.9580  -54.4180   -9.6640 C.2   598  VAL598      0.2287
     51  O         23.0820  -54.5510   -9.2000 O.2   598  VAL598     -0.2864
     52  CB        21.5100  -54.7030  -12.1200 C.3   598  VAL598      0.0276
     53  CG1       22.8400  -54.0030  -12.3500 C.3   598  VAL598      0.0022
     54  CG2       21.3150  -55.7980  -13.1590 C.3   598  VAL598      0.0022
     55  N         22.7230  -56.5110   -6.4610 N.3   601  ASP601     -0.1239
     56  CA        23.6410  -57.6310   -6.5200 C.3   601  ASP601      0.1674
     57  C         25.0030  -57.2150   -5.9110 C.2   601  ASP601      0.2266
     58  O         25.7550  -56.4070   -6.4580 O.2   601  ASP601     -0.2867
     59  CB        23.7930  -58.0690   -7.9730 C.3   601  ASP601      0.1410
     60  CG        24.6520  -59.3090   -8.1570 C.2   601  ASP601      0.3668
     61  OD1       25.5280  -59.5750   -7.3510 O.co2 601  ASP601     -0.2456
     62  OD2       24.4580  -59.9890   -9.1630 O.co2 601  ASP601     -0.2456
     63  N         28.1980  -58.3100   -8.3450 N.3   604  ILE604     -0.1245
     64  CA        28.4620  -57.6670   -9.6240 C.3   604  ILE604      0.1561
     65  C         29.4950  -56.5530   -9.5390 C.2   604  ILE604      0.2260
     66  O         29.4800  -55.7300   -8.6750 O.2   604  ILE604     -0.2867
     67  CB        27.1540  -57.1250  -10.2390 C.3   604  ILE604      0.0252
     68  CG1       27.3540  -56.8470  -11.7330 C.3   604  ILE604      0.0019
     69  CG2       26.6870  -55.8850   -9.4750 C.3   604  ILE604      0.0019
     70  CD1       26.0550  -56.4350  -12.4120 C.3   604  ILE604      0.0001
     71  N         24.9840  -51.1680  -17.2290 N.3   612  ILE612     -0.1245
     72  CA        23.5860  -51.6590  -17.3030 C.3   612  ILE612      0.1561
     73  C         22.5880  -50.5420  -16.9300 C.2   612  ILE612      0.2260
     74  O         21.5530  -50.4020  -17.5470 O.2   612  ILE612     -0.2867
     75  CB        23.4100  -52.9450  -16.4670 C.3   612  ILE612      0.0252
     76  CG1       24.2180  -54.0360  -17.1210 C.3   612  ILE612      0.0019
     77  CG2       21.9240  -53.3150  -16.3290 C.3   612  ILE612      0.0019
     78  CD1       24.4000  -55.2700  -16.2910 C.3   612  ILE612      0.0001
@<TRIPOS>BOND
     1    27    28    1
     2    29    30    2
     3    29    28    1
     4    28    31    1
     5     1     2    1
     6    13    14    1
     7    13    12    1
     8     8     9    1
     9    31    32    1
    10    14    15    1
    11     2     3    1
    12     2     5    1
    13    32    33    1
    14    74    73    2
    15    72    71    1
    16    72    73    1
    17    72    75    1
    18     7     5    1
    19     9    12    1
    20     9    10    1
    21    76    75    1
    22    76    78    1
    23     3     4    2
    24     6     5    1
    25    75    77    1
    26    33    34    1
    27    10    16   am
    28    10    11    2
    29    16    17    1
    30    34    35    2
    31    42    39    1
    32    18    17    1
    33    18    19    2
    34    17    20    1
    35    35    36    1
    36    35    37    1
    37    20    21    1
    38    39    40    1
    39    39    38    1
    40    40    41    2
    41    54    52    1
    42    70    68    1
    43    53    52    1
    44    21    22    1
    45    52    49    1
    46    22    23    1
    47    68    67    1
    48    25    24    1
    49    49    48    1
    50    49    50    1
    51    23    24    2
    52    48    45   am
    53    67    64    1
    54    67    69    1
    55    24    26    1
    56    47    44    1
    57    50    51    2
    58    64    65    1
    59    64    63    1
    60    65    66    2
    61    43    44    1
    62    45    44    1
    63    45    46    2
    64    62    60   ar
    65    60    59    1
    66    60    61   ar
    67    59    56    1
    68    56    55    1
    69    56    57    1
    70    58    57    2
