@<TRIPOS>MOLECULE
tmp/4xndA14.pdb
 181 175 0 0 0
SMALL
GASTEIGER

@<TRIPOS>ATOM
      1  N         43.3170  -24.3540  -40.7710 N.3   102  LEU102     -0.1231
      2  CA        44.1870  -25.1370  -39.8590 C.3   102  LEU102      0.1693
      3  C         44.7500  -26.3620  -40.5260 C.2   102  LEU102      0.2591
      4  O         44.7740  -27.4150  -39.9440 O.2   102  LEU102     -0.2718
      5  CB        43.5290  -25.4370  -38.5140 C.3   102  LEU102      0.0284
      6  CG        42.6940  -24.3200  -37.8720 C.3   102  LEU102      0.0019
      7  CD1       42.1570  -24.7830  -36.5120 C.3   102  LEU102      0.0001
      8  CD2       43.4530  -22.9990  -37.7180 C.3   102  LEU102      0.0001
      9  N         45.1550  -26.1780  -41.7860 N.am  103  GLU103     -0.1979
     10  CA        45.7590  -27.2180  -42.6220 C.3   103  GLU103      0.1602
     11  C         47.0170  -26.5800  -43.2080 C.2   103  GLU103      0.2287
     12  O         46.9540  -25.4950  -43.7890 O.2   103  GLU103     -0.2864
     13  CB        44.8130  -27.7510  -43.7490 C.3   103  GLU103      0.0415
     14  CG        45.4650  -28.8350  -44.6750 C.3   103  GLU103      0.1163
     15  CD        44.5030  -29.6650  -45.5660 C.2   103  GLU103      0.3649
     16  OE1       44.0870  -29.0850  -46.5590 O.co2 103  GLU103     -0.2457
     17  OE2       44.2420  -30.8710  -45.3110 O.co2 103  GLU103     -0.2457
     18  N         49.6010  -28.9590  -39.5720 N.3   115  GLN115     -0.1245
     19  CA        48.9130  -30.2340  -39.7120 C.3   115  GLN115      0.1566
     20  C         48.9760  -30.6180  -41.1830 C.2   115  GLN115      0.2260
     21  O         48.4700  -29.8380  -42.0410 O.2   115  GLN115     -0.2867
     22  CB        47.4410  -30.0620  -39.2620 C.3   115  GLN115      0.0367
     23  CG        46.5680  -31.2960  -39.5500 C.3   115  GLN115      0.0905
     24  CD        47.1120  -32.5560  -38.9430 C.2   115  GLN115      0.2608
     25  OE1       47.7280  -32.5300  -37.8570 O.2   115  GLN115     -0.2717
     26  NE2       46.9070  -33.6820  -39.6210 N.am  115  GLN115     -0.0878
     27  N         48.4370  -34.1310  -42.4300 N.3   117  GLU117     -0.1231
     28  CA        47.5680  -35.2550  -42.8840 C.3   117  GLU117      0.1699
     29  C         46.2040  -34.6450  -43.1760 C.2   117  GLU117      0.2592
     30  O         45.7620  -33.7680  -42.4380 O.2   117  GLU117     -0.2718
     31  CB        47.4960  -36.3430  -41.8550 C.3   117  GLU117      0.0402
     32  CG        46.8790  -37.6280  -42.4120 C.3   117  GLU117      0.1161
     33  CD        46.7770  -38.7990  -41.4670 C.2   117  GLU117      0.3649
     34  OE1       47.4130  -38.7780  -40.3860 O.co2 117  GLU117     -0.2457
     35  OE2       46.1640  -39.8390  -41.8590 O.co2 117  GLU117     -0.2457
     36  N         45.5680  -35.0240  -44.2960 N.am  118  ALA118     -0.1980
     37  CA        46.0910  -35.9900  -45.2860 C.3   118  ALA118      0.1597
     38  C         46.9770  -35.3110  -46.3190 C.2   118  ALA118      0.2287
     39  O         48.0550  -35.8480  -46.6700 O.2   118  ALA118     -0.2864
     40  CB        44.9340  -36.6540  -46.0370 C.3   118  ALA118      0.0319
     41  N         43.1160  -26.9230  -33.1930 N.3   254  PHE254     -0.1227
     42  CA        43.4180  -28.1690  -33.8750 C.3   254  PHE254      0.1736
     43  C         42.0940  -28.7920  -34.2600 C.2   254  PHE254      0.2595
     44  O         41.2040  -28.9150  -33.4170 O.2   254  PHE254     -0.2718
     45  CB        44.1600  -29.1010  -32.8830 C.3   254  PHE254      0.0547
     46  CG        44.9460  -30.1620  -33.5420 C.ar  254  PHE254     -0.0202
     47  CD1       46.1000  -29.8440  -34.1880 C.ar  254  PHE254     -0.0042
     48  CD2       44.4740  -31.4780  -33.5960 C.ar  254  PHE254     -0.0042
     49  CE1       46.8690  -30.7810  -34.8330 C.ar  254  PHE254     -0.0003
     50  CE2       45.2350  -32.4430  -34.2610 C.ar  254  PHE254     -0.0003
     51  CZ        46.4620  -32.1040  -34.8390 C.ar  254  PHE254     -0.0000
     52  N         41.9750  -29.1880  -35.5170 N.am  255  ASN255     -0.1960
     53  CA        40.7270  -29.7460  -36.0230 C.3   255  ASN255      0.1819
     54  C         40.3320  -31.1240  -35.4920 C.2   255  ASN255      0.2621
     55  O         39.1440  -31.3620  -35.2910 O.2   255  ASN255     -0.2715
     56  CB        40.7410  -29.7610  -37.5410 C.3   255  ASN255      0.1195
     57  CG        40.5550  -28.3980  -38.1340 C.2   255  ASN255      0.2630
     58  OD1       39.9770  -27.5060  -37.4950 O.2   255  ASN255     -0.2716
     59  ND2       41.0490  -28.1970  -39.3470 N.am  255  ASN255     -0.0877
     60  N         41.2560  -32.0290  -35.3000 N.am  256  MET256     -0.1963
     61  CA        40.8820  -33.3380  -34.7820 C.3   256  MET256      0.1736
     62  C         41.4120  -33.5360  -33.3550 C.2   256  MET256      0.2617
     63  O         41.5700  -32.5620  -32.6460 O.2   256  MET256     -0.2715
     64  CB        41.4490  -34.3840  -35.7210 C.3   256  MET256      0.0427
     65  CG        40.8530  -34.2420  -37.1130 C.3   256  MET256      0.0599
     66  SD        39.3100  -35.1250  -37.2450 S.3   256  MET256     -0.1393
     67  CE        40.0810  -36.6630  -37.7300 C.3   256  MET256      0.0692
     68  N         41.7570  -34.7480  -32.9700 N.am  257  GLY257     -0.1940
     69  CA        42.2360  -35.0080  -31.5950 C.3   257  GLY257      0.2014
     70  C         43.7260  -34.8550  -31.4690 C.2   257  GLY257      0.2639
     71  O         44.2130  -34.2240  -30.5180 O.2   257  GLY257     -0.2714
     72  N         44.4530  -35.4600  -32.4010 N.am  258  ALA258     -0.1963
     73  CA        45.9180  -35.4000  -32.3280 C.3   258  ALA258      0.1728
     74  C         46.5050  -35.9550  -33.6070 C.2   258  ALA258      0.2616
     75  O         45.7610  -36.3740  -34.4760 O.2   258  ALA258     -0.2715
     76  CB        46.3860  -36.2410  -31.1280 C.3   258  ALA258      0.0334
     77  N         47.8320  -35.9330  -33.7110 N.am  259  MET259     -0.1963
     78  CA        48.4710  -36.3210  -34.9460 C.3   259  MET259      0.1736
     79  C         49.8500  -36.9670  -34.6980 C.2   259  MET259      0.2616
     80  O         50.6610  -36.3700  -33.9740 O.2   259  MET259     -0.2715
     81  CB        48.5930  -35.0990  -35.8700 C.3   259  MET259      0.0427
     82  CG        49.3820  -35.3460  -37.1650 C.3   259  MET259      0.0599
     83  SD        48.5210  -36.5340  -38.2200 S.3   259  MET259     -0.1393
     84  CE        49.8900  -37.3980  -38.9370 C.3   259  MET259      0.0692
     85  N         50.0840  -38.1450  -35.3160 N.am  260  GLU260     -0.1977
     86  CA        51.2290  -38.9650  -35.0360 C.3   260  GLU260      0.1602
     87  C         52.5360  -38.5530  -35.7450 C.2   260  GLU260      0.2287
     88  O         53.3370  -39.3960  -36.0980 O.2   260  GLU260     -0.2864
     89  CB        50.9000  -40.4070  -35.3640 C.3   260  GLU260      0.0415
     90  CG        50.6810  -40.6650  -36.8770 C.3   260  GLU260      0.1163
     91  CD        49.1990  -40.6100  -37.3530 C.2   260  GLU260      0.3649
     92  OE1       48.3510  -39.8850  -36.7630 O.co2 260  GLU260     -0.2457
     93  OE2       48.9190  -41.2610  -38.4390 O.co2 260  GLU260     -0.2457
     94  N         47.0460  -44.0280  -28.7220 N.3   293  HIS293     -0.1226
     95  CA        46.7410  -44.0960  -30.1570 C.3   293  HIS293      0.1752
     96  C         47.8810  -43.4840  -30.9500 C.2   293  HIS293      0.2595
     97  O         48.3810  -44.1040  -31.8810 O.2   293  HIS293     -0.2718
     98  CB        45.4150  -43.3220  -30.4510 C.3   293  HIS293      0.0759
     99  CG        44.9640  -43.4400  -31.8610 C.ar  293  HIS293      0.0818
    100  ND1       44.0830  -44.4070  -32.2910 N.ar  293  HIS293     -0.2268
    101  CD2       45.2840  -42.7090  -32.9440 C.ar  293  HIS293      0.1154
    102  CE1       43.9380  -44.2930  -33.5970 C.ar  293  HIS293      0.1986
    103  NE2       44.6610  -43.2590  -34.0050 N.ar  293  HIS293     -0.2212
    104  N         48.2850  -42.2700  -30.6320 N.am  294  GLU294     -0.1979
    105  CA        49.3710  -41.6040  -31.4510 C.3   294  GLU294      0.1602
    106  C         50.6820  -42.3140  -31.3230 C.2   294  GLU294      0.2287
    107  O         51.4110  -42.4790  -32.2970 O.2   294  GLU294     -0.2864
    108  CB        49.5160  -40.1250  -31.0760 C.3   294  GLU294      0.0415
    109  CG        48.2000  -39.3120  -31.0650 C.3   294  GLU294      0.1163
    110  CD        47.3760  -39.4540  -32.3520 C.2   294  GLU294      0.3649
    111  OE1       47.9770  -39.6440  -33.4350 O.co2 294  GLU294     -0.2457
    112  OE2       46.1410  -39.4590  -32.2150 O.co2 294  GLU294     -0.2457
    113  N         50.7470  -45.4990  -33.4630 N.3   297  HIS297     -0.1241
    114  CA        50.9650  -45.1560  -34.8610 C.3   297  HIS297      0.1621
    115  C         52.4530  -45.2030  -35.2310 C.2   297  HIS297      0.2264
    116  O         52.7880  -45.2820  -36.4180 O.2   297  HIS297     -0.2867
    117  CB        50.4410  -43.7890  -35.2060 C.3   297  HIS297      0.0745
    118  CG        49.0240  -43.7500  -35.7030 C.ar  297  HIS297      0.0817
    119  ND1       48.5550  -44.5380  -36.7410 N.ar  297  HIS297     -0.2268
    120  CD2       48.0090  -42.9060  -35.3840 C.ar  297  HIS297      0.1154
    121  CE1       47.3240  -44.1580  -37.0440 C.ar  297  HIS297      0.1986
    122  NE2       46.9620  -43.2320  -36.2020 N.ar  297  HIS297     -0.2212
    123  N         46.1870  -48.2300  -41.3280 N.3   315  LYS315     -0.1231
    124  CA        46.7190  -47.6460  -40.1120 C.3   315  LYS315      0.1693
    125  C         45.6300  -47.3160  -39.0650 C.2   315  LYS315      0.2591
    126  O         45.8840  -47.4740  -37.8900 O.2   315  LYS315     -0.2718
    127  CB        47.6510  -46.4200  -40.3170 C.3   315  LYS315      0.0285
    128  CG        47.0730  -45.1040  -40.8690 C.3   315  LYS315      0.0035
    129  CD        48.1630  -44.0790  -41.1080 C.3   315  LYS315      0.0206
    130  CE        47.6640  -42.7310  -41.5440 C.3   315  LYS315      0.1093
    131  NZ        47.0340  -41.9270  -40.4730 N.3   315  LYS315     -0.1314
    132  N         44.4810  -46.7890  -39.4960 N.am  316  GLU316     -0.1979
    133  CA        43.5030  -46.3690  -38.5290 C.3   316  GLU316      0.1602
    134  C         42.7160  -47.4950  -37.8520 C.2   316  GLU316      0.2287
    135  O         42.5770  -47.4900  -36.6290 O.2   316  GLU316     -0.2864
    136  CB        42.5820  -45.2610  -39.0520 C.3   316  GLU316      0.0415
    137  CG        43.3150  -43.9540  -39.4990 C.3   316  GLU316      0.1163
    138  CD        44.1680  -43.3610  -38.4050 C.2   316  GLU316      0.3649
    139  OE1       44.0130  -43.7380  -37.2150 O.co2 316  GLU316     -0.2457
    140  OE2       45.0440  -42.5500  -38.7400 O.co2 316  GLU316     -0.2457
    141  N         39.7250  -35.5470  -46.4890 N.3   369  ASN369     -0.1240
    142  CA        39.3990  -35.2260  -45.1080 C.3   369  ASN369      0.1653
    143  C         38.0160  -35.6930  -44.6360 C.2   369  ASN369      0.2266
    144  O         37.8020  -35.9010  -43.4310 O.2   369  ASN369     -0.2867
    145  CB        39.6250  -33.7620  -44.8310 C.3   369  ASN369      0.1155
    146  CG        41.1460  -33.3950  -44.8670 C.2   369  ASN369      0.2627
    147  OD1       42.0230  -34.2440  -44.9010 O.2   369  ASN369     -0.2716
    148  ND2       41.4060  -32.1330  -44.8670 N.am  369  ASN369     -0.0877
    149  N         37.9750  -39.5710  -42.6380 N.3   372  TYR372     -0.1241
    150  CA        38.4490  -39.8730  -41.2690 C.3   372  TYR372      0.1605
    151  C         37.2010  -40.2120  -40.4330 C.2   372  TYR372      0.2264
    152  O         36.7490  -39.3810  -39.6450 O.2   372  TYR372     -0.2867
    153  CB        39.2560  -38.6790  -40.7650 C.3   372  TYR372      0.0534
    154  CG        40.6100  -38.7060  -41.4970 C.ar  372  TYR372     -0.0201
    155  CD1       40.7370  -38.2340  -42.8260 C.ar  372  TYR372     -0.0009
    156  CD2       41.7090  -39.3000  -40.9290 C.ar  372  TYR372     -0.0009
    157  CE1       41.9540  -38.3170  -43.4960 C.ar  372  TYR372      0.0417
    158  CE2       42.9020  -39.3840  -41.6000 C.ar  372  TYR372      0.0417
    159  CZ        42.9980  -38.9090  -42.9260 C.ar  372  TYR372      0.1957
    160  OH        44.2110  -39.0390  -43.6130 O.3   372  TYR372     -0.2866
    161  N         37.7000  -45.8920  -38.9490 N.3   377  TYR377     -0.1241
    162  CA        38.2930  -46.0830  -37.6030 C.3   377  TYR377      0.1605
    163  C         37.6570  -47.2200  -36.7950 C.2   377  TYR377      0.2264
    164  O         38.3200  -48.2350  -36.5000 O.2   377  TYR377     -0.2867
    165  CB        38.2220  -44.7860  -36.7850 C.3   377  TYR377      0.0534
    166  CG        39.2470  -43.7240  -37.1040 C.ar  377  TYR377     -0.0201
    167  CD1       39.2820  -43.0880  -38.3460 C.ar  377  TYR377     -0.0009
    168  CD2       40.1960  -43.3370  -36.1570 C.ar  377  TYR377     -0.0009
    169  CE1       40.2190  -42.1020  -38.6120 C.ar  377  TYR377      0.0417
    170  CE2       41.1430  -42.3510  -36.3910 C.ar  377  TYR377      0.0417
    171  CZ        41.1840  -41.7480  -37.6480 C.ar  377  TYR377      0.1957
    172  OH        42.1360  -40.7900  -37.9380 O.3   377  TYR377     -0.2866
    173  N         36.8710  -28.2630  -42.8920 N.3   817  GLN817     -0.1245
    174  CA        36.9030  -29.5340  -42.1900 C.3   817  GLN817      0.1566
    175  C         35.9100  -29.5690  -41.0340 C.2   817  GLN817      0.2260
    176  O         35.1960  -30.5540  -40.8080 O.2   817  GLN817     -0.2867
    177  CB        38.3310  -29.7480  -41.6620 C.3   817  GLN817      0.0367
    178  CG        38.6560  -31.1540  -41.2340 C.3   817  GLN817      0.0905
    179  CD        38.2520  -31.4990  -39.7790 C.2   817  GLN817      0.2608
    180  OE1       37.7880  -30.6370  -38.9820 O.2   817  GLN817     -0.2717
    181  NE2       38.4060  -32.7630  -39.4400 N.am  817  GLN817     -0.0878
@<TRIPOS>BOND
     1    39    38    2
     2    16    15   ar
     3   141   142    1
     4    38    37    1
     5    40    37    1
     6    15    17   ar
     7    15    14    1
     8    37    36    1
     9   142   145    1
    10   142   143    1
    11   147   146    2
    12   148   146   am
    13   146   145    1
    14    14    13    1
    15   143   144    2
    16    36    29   am
    17    12    11    2
    18    13    10    1
    19   160   159    1
    20   157   159   ar
    21   157   155   ar
    22    11    10    1
    23    29    28    1
    24    29    30    2
    25   159   158   ar
    26   173   174    1
    27    28    27    1
    28    28    31    1
    29   155   154   ar
    30   149   150    1
    31    10     9    1
    32    32    31    1
    33    32    33    1
    34   174   177    1
    35   174   175    1
    36    21    20    2
    37    35    33   ar
    38     9     3   am
    39   177   178    1
    40   158   156   ar
    41   130   129    1
    42   130   131    1
    43   154   156   ar
    44   154   153    1
    45    33    34   ar
    46   123   124    1
    47   150   153    1
    48   150   151    1
    49   178   179    1
    50    20    19    1
    51   129   128    1
    52   175   176    2
    53   128   127    1
    54     1     2    1
    55     3     4    2
    56     3     2    1
    57   151   152    2
    58   127   124    1
    59   124   125    1
    60     2     5    1
    61   179   181   am
    62   179   180    2
    63    19    18    1
    64    19    22    1
    65    26    24   am
    66    23    22    1
    67    23    24    1
    68   137   136    1
    69   137   138    1
    70   132   125   am
    71   132   133    1
    72    59    57   am
    73   125   126    2
    74   136   133    1
    75   161   162    1
    76    24    25    2
    77    84    83    1
    78   140   138   ar
    79   169   167   ar
    80   169   171   ar
    81   133   134    1
    82     5     6    1
    83    93    91   ar
    84   138   139   ar
    85   167   166   ar
    86    83    82    1
    87    57    56    1
    88    57    58    2
    89   172   171    1
    90     6     8    1
    91     6     7    1
    92   134   135    2
    93    67    66    1
    94   171   170   ar
    95   162   163    1
    96   162   165    1
    97    56    53    1
    98    91    90    1
    99    91    92   ar
   100    66    65    1
   101    82    81    1
   102    65    64    1
   103   166   165    1
   104   166   168   ar
   105   121   119   ar
   106   121   122   ar
   107    90    89    1
   108   163   164    2
   109   119   118   ar
   110   116   115    2
   111   170   168   ar
   112   122   120   ar
   113    88    87    2
   114    53    52    1
   115    53    54    1
   116    81    78    1
   117    87    86    1
   118    64    61    1
   119   118   120   ar
   120   118   117    1
   121    52    43   am
   122    54    60   am
   123    54    55    2
   124    89    86    1
   125    85    86    1
   126    85    79   am
   127    60    61    1
   128   115   114    1
   129   117   114    1
   130    78    79    1
   131    78    77    1
   132   114   113    1
   133    51    49   ar
   134    51    50   ar
   135    49    47   ar
   136    61    62    1
   137    79    80    2
   138    75    74    2
   139    50    48   ar
   140    43    42    1
   141    43    44    2
   142    47    46   ar
   143   103   102   ar
   144   103   101   ar
   145    42    41    1
   146    42    45    1
   147    77    74   am
   148    74    73    1
   149   102   100   ar
   150    48    46   ar
   151    46    45    1
   152   111   110   ar
   153    62    68   am
   154    62    63    2
   155    68    69    1
   156   101    99   ar
   157    72    73    1
   158    72    70   am
   159   110   112   ar
   160   110   109    1
   161    73    76    1
   162   107   106    2
   163   100    99   ar
   164    97    96    2
   165    99    98    1
   166    69    70    1
   167    70    71    2
   168   105   106    1
   169   105   108    1
   170   105   104    1
   171   108   109    1
   172    96   104   am
   173    96    95    1
   174    98    95    1
   175    95    94    1
