@<TRIPOS>MOLECULE
tmp/4xneA00.pdb
 140 130 0 0 0
SMALL
GASTEIGER

@<TRIPOS>ATOM
      1  N        -19.7690   20.8480   38.8990 N.3    21  ILE21      -0.1231
      2  CA       -19.5850   20.3100   40.2500 C.3    21  ILE21       0.1692
      3  C        -18.3480   20.8960   40.9210 C.2    21  ILE21       0.2593
      4  O        -18.3610   21.1410   42.1220 O.2    21  ILE21      -0.2718
      5  CB       -19.4650   18.7680   40.2390 C.3    21  ILE21       0.0266
      6  CG1      -20.7470   18.1370   39.6890 C.3    21  ILE21       0.0019
      7  CG2      -19.1600   18.2300   41.6340 C.3    21  ILE21       0.0020
      8  CD1      -22.0230   18.5720   40.3860 C.3    21  ILE21       0.0001
      9  N        -17.2790   21.1060   40.1600 N.am   22  GLY22      -0.1942
     10  CA       -16.0840   21.7310   40.7060 C.3    22  GLY22       0.2014
     11  C        -14.8490   21.5270   39.8600 C.2    22  GLY22       0.2639
     12  O        -14.9390   21.1430   38.6920 O.2    22  GLY22      -0.2714
     13  N        -13.6940   21.8200   40.4560 N.am   23  GLU23      -0.1963
     14  CA       -12.4020   21.5090   39.8650 C.3    23  GLU23       0.1733
     15  C        -11.7420   20.4310   40.6980 C.2    23  GLU23       0.2616
     16  O        -11.5600   20.6020   41.9020 O.2    23  GLU23      -0.2715
     17  CB       -11.4870   22.7400   39.8120 C.3    23  GLU23       0.0429
     18  CG       -11.4870   23.4600   38.4730 C.3    23  GLU23       0.1163
     19  CD       -12.8340   24.0530   38.1400 C.2    23  GLU23       0.3649
     20  OE1      -13.4510   24.6510   39.0410 O.co2  23  GLU23      -0.2457
     21  OE2      -13.2750   23.9220   36.9800 O.co2  23  GLU23      -0.2457
     22  N        -11.4100   19.3180   40.0510 N.am   24  GLY24      -0.1955
     23  CA       -10.5390   18.3020   40.6330 C.3    24  GLY24       0.1869
     24  C         -9.1040   18.6060   40.2370 C.2    24  GLY24       0.2309
     25  O         -8.8330   19.6050   39.5600 O.2    24  GLY24      -0.2863
     26  N        -14.9030   19.3990   36.5120 N.3    29  VAL29      -0.1245
     27  CA       -15.7800   18.2640   36.7350 C.3    29  VAL29       0.1561
     28  C        -17.2480   18.6730   36.6530 C.2    29  VAL29       0.2260
     29  O        -17.6600   19.6810   37.2330 O.2    29  VAL29      -0.2867
     30  CB       -15.5450   17.6290   38.1140 C.3    29  VAL29       0.0252
     31  CG1      -16.4340   16.4040   38.2890 C.3    29  VAL29       0.0019
     32  CG2      -14.0730   17.2940   38.2820 C.3    29  VAL29       0.0019
     33  N        -20.3660   11.3130   37.0550 N.3    42  ALA42      -0.1245
     34  CA       -19.4280   12.4430   37.1090 C.3    42  ALA42       0.1562
     35  C        -18.5170   12.3500   35.8850 C.2    42  ALA42       0.2260
     36  O        -18.1380   11.2590   35.4980 O.2    42  ALA42      -0.2867
     37  CB       -18.5960   12.3920   38.3860 C.3    42  ALA42       0.0290
     38  N        -14.9750   14.0930   34.2030 N.3    44  LYS44      -0.1245
     39  CA       -13.8050   14.9470   34.3590 C.3    44  LYS44       0.1561
     40  C        -13.1830   15.2060   33.0050 C.2    44  LYS44       0.2260
     41  O        -12.7930   14.2660   32.3350 O.2    44  LYS44      -0.2867
     42  CB       -12.7710   14.2630   35.2730 C.3    44  LYS44       0.0271
     43  CG       -13.1860   14.3220   36.7300 C.3    44  LYS44       0.0035
     44  CD       -12.6610   13.1970   37.6130 C.3    44  LYS44       0.0206
     45  CE       -13.4450   13.2170   38.9330 C.3    44  LYS44       0.1093
     46  NZ       -13.0090   12.2040   39.9260 N.3    44  LYS44      -0.1314
     47  N        -12.2930    3.7980   43.0460 N.3    74  ILE74      -0.1245
     48  CA       -13.1810    4.4120   42.0380 C.3    74  ILE74       0.1561
     49  C        -12.8770    3.7330   40.7010 C.2    74  ILE74       0.2260
     50  O        -11.7400    3.3870   40.4290 O.2    74  ILE74      -0.2867
     51  CB       -13.0000    5.9290   41.9500 C.3    74  ILE74       0.0252
     52  CG1      -14.1130    6.5850   41.1270 C.3    74  ILE74       0.0019
     53  CG2      -11.6830    6.2800   41.3170 C.3    74  ILE74       0.0019
     54  CD1      -15.4560    6.6170   41.7890 C.3    74  ILE74       0.0001
     55  N        -17.1540    8.5180   35.6430 N.3    95  GLN95      -0.1231
     56  CA       -17.1550    7.6880   36.8710 C.3    95  GLN95       0.1698
     57  C        -18.4950    7.7920   37.5920 C.2    95  GLN95       0.2592
     58  O        -19.2670    8.7270   37.3710 O.2    95  GLN95      -0.2718
     59  CB       -16.0480    8.1520   37.8160 C.3    95  GLN95       0.0381
     60  CG       -14.6550    8.1550   37.2080 C.3    95  GLN95       0.0905
     61  CD       -13.6160    8.7990   38.1080 C.2    95  GLN95       0.2608
     62  OE1      -13.9130    9.7060   38.8650 O.2    95  GLN95      -0.2717
     63  NE2      -12.4070    8.3060   38.0350 N.am   95  GLN95      -0.0878
     64  N        -18.7800    6.8330   38.4770 N.am   96  ASP96      -0.1960
     65  CA       -19.9510    6.9540   39.3340 C.3    96  ASP96       0.1840
     66  C        -19.9110    8.2980   40.0480 C.2    96  ASP96       0.2622
     67  O        -18.8510    8.7760   40.4770 O.2    96  ASP96      -0.2715
     68  CB       -20.0010    5.8510   40.4050 C.3    96  ASP96       0.1450
     69  CG       -20.0190    4.4570   39.8310 C.2    96  ASP96       0.3671
     70  OD1      -20.2670    4.2580   38.6200 O.co2  96  ASP96      -0.2456
     71  OD2      -19.7570    3.5350   40.6200 O.co2  96  ASP96      -0.2456
     72  N        -21.0750    8.9100   40.1760 N.am   97  LEU97      -0.1963
     73  CA       -21.2090   10.1630   40.8960 C.3    97  LEU97       0.1728
     74  C        -21.2220    9.9100   42.3980 C.2    97  LEU97       0.2616
     75  O        -22.0900    9.1770   42.9030 O.2    97  LEU97      -0.2715
     76  CB       -22.5240   10.8480   40.5190 C.3    97  LEU97       0.0311
     77  CG       -22.7920   12.1890   41.1880 C.3    97  LEU97       0.0022
     78  CD1      -21.7150   13.2030   40.8390 C.3    97  LEU97       0.0001
     79  CD2      -24.1770   12.6960   40.7960 C.3    97  LEU97       0.0001
     80  N        -20.3100   10.5520   43.1160 N.am   98  MET98      -0.1963
     81  CA       -20.2770   10.4160   44.5780 C.3    98  MET98       0.1736
     82  C        -20.8540   11.6880   45.2240 C.2    98  MET98       0.2616
     83  O        -20.7690   12.7590   44.6520 O.2    98  MET98      -0.2715
     84  CB       -18.8350   10.1010   45.0260 C.3    98  MET98       0.0427
     85  CG       -18.2640    8.8130   44.4430 C.3    98  MET98       0.0599
     86  SD       -19.0100    7.2440   44.9720 S.3    98  MET98      -0.1393
     87  CE       -18.1600    6.9190   46.5060 C.3    98  MET98       0.0692
     88  N        -21.4610   11.5840   46.4000 N.am   99  GLU99      -0.1963
     89  CA       -22.0830   12.7660   47.0590 C.3    99  GLU99       0.1733
     90  C        -21.0430   13.7710   47.5670 C.2    99  GLU99       0.2617
     91  O        -21.1620   14.9780   47.3760 O.2    99  GLU99      -0.2715
     92  CB       -23.0060   12.3140   48.2140 C.3    99  GLU99       0.0429
     93  CG       -23.3530   13.3830   49.2570 C.3    99  GLU99       0.1163
     94  CD       -24.5730   13.0200   50.0980 C.2    99  GLU99       0.3649
     95  OE1      -25.7130   13.1810   49.5990 O.co2  99  GLU99      -0.2457
     96  OE2      -24.4040   12.5810   51.2570 O.co2  99  GLU99      -0.2457
     97  N        -19.9920   13.2650   48.2040 N.am  100  THR100     -0.1937
     98  CA       -19.0810   14.1180   48.8910 C.3   100  THR100      0.2028
     99  C        -17.7210   13.4190   49.0270 C.2   100  THR100      0.2642
    100  O        -17.5120   12.3340   48.4670 O.2   100  THR100     -0.2714
    101  CB       -19.6720   14.5210   50.2650 C.3   100  THR100      0.1808
    102  OG1      -18.9070   15.5690   50.8290 O.3   100  THR100     -0.2208
    103  CG2      -19.7080   13.3720   51.2490 C.3   100  THR100      0.0379
    104  N        -16.8190   14.0700   49.7430 N.am  101  ASP101     -0.1971
    105  CA       -15.5270   13.4510   50.1110 C.3   101  ASP101      0.1709
    106  C        -15.2640   13.6560   51.5910 C.2   101  ASP101      0.2293
    107  O        -15.9810   14.4090   52.2690 O.2   101  ASP101     -0.2864
    108  CB       -14.4030   13.9870   49.2390 C.3   101  ASP101      0.1436
    109  CG       -14.1730   15.4600   49.4080 C.2   101  ASP101      0.3671
    110  OD1      -13.9040   15.8960   50.5370 O.co2 101  ASP101     -0.2456
    111  OD2      -14.1950   16.1810   48.3870 O.co2 101  ASP101     -0.2456
    112  N        -14.6490   17.3770   52.8130 N.3   104  LYS104     -0.1245
    113  CA       -15.8660   18.1980   52.9690 C.3   104  LYS104      0.1561
    114  C        -16.6400   17.7520   54.2030 C.2   104  LYS104      0.2260
    115  O        -17.1260   18.5800   54.9830 O.2   104  LYS104     -0.2867
    116  CB       -16.7380   18.0870   51.7290 C.3   104  LYS104      0.0271
    117  CG       -16.1920   18.7900   50.4910 C.3   104  LYS104      0.0035
    118  CD       -17.0430   18.4410   49.2650 C.3   104  LYS104      0.0206
    119  CE       -16.5290   19.1220   48.0030 C.3   104  LYS104      0.1093
    120  NZ       -16.9470   18.3890   46.7710 N.3   104  LYS104     -0.1314
    121  N         -9.3940   14.4570   50.8660 N.3   143  SER143     -0.1217
    122  CA        -9.9230   14.8680   49.5680 C.3   143  SER143      0.1889
    123  C         -9.9500   13.7570   48.5430 C.2   143  SER143      0.2288
    124  O        -10.6630   13.8450   47.5300 O.2   143  SER143     -0.2866
    125  CB        -9.0690   16.0040   49.0040 C.3   143  SER143      0.2089
    126  OG        -9.1000   17.1050   49.8940 O.3   143  SER143     -0.2183
    127  N        -13.7120    9.4210   48.5180 N.3   146  LEU146     -0.1245
    128  CA       -15.0670    9.7890   48.1170 C.3   146  LEU146      0.1561
    129  C        -16.1020    8.9450   48.8230 C.2   146  LEU146      0.2260
    130  O        -15.8940    7.7530   49.0720 O.2   146  LEU146     -0.2867
    131  CB       -15.2400    9.6070   46.6190 C.3   146  LEU146      0.0270
    132  CG       -14.2540   10.2990   45.7060 C.3   146  LEU146      0.0019
    133  CD1      -14.6600   10.0220   44.2770 C.3   146  LEU146      0.0001
    134  CD2      -14.1610   11.7760   45.9860 C.3   146  LEU146      0.0001
    135  N         -9.6540    7.4910   45.3830 N.3   155  CYS155     -0.1235
    136  CA        -9.4010    8.0300   44.0400 C.3   155  CYS155      0.1677
    137  C         -8.0330    8.6970   43.9420 C.2   155  CYS155      0.2270
    138  O         -7.2740    8.7380   44.8990 O.2   155  CYS155     -0.2867
    139  CB       -10.5160    9.0040   43.6640 C.3   155  CYS155      0.0956
    140  SG       -10.5440   10.5420   44.5790 S.3   155  CYS155     -0.0801
@<TRIPOS>BOND
     1    41    40    2
     2    40    39    1
     3    38    39    1
     4    39    42    1
     5    42    43    1
     6    36    35    2
     7    55    56    1
     8    35    34    1
     9    26    27    1
    10    28    27    1
    11    28    29    2
    12    43    44    1
    13    27    30    1
    14    56    57    1
    15    56    59    1
    16    21    19   ar
    17    33    34    1
    18    34    37    1
    19    60    59    1
    20    60    61    1
    21    58    57    2
    22    57    64   am
    23    44    45    1
    24    63    61   am
    25    61    62    2
    26    30    32    1
    27    30    31    1
    28    19    18    1
    29    19    20   ar
    30    18    17    1
    31    64    65    1
    32    70    69   ar
    33    12    11    2
    34     1     2    1
    35    45    46    1
    36    65    66    1
    37    65    68    1
    38    25    24    2
    39     6     5    1
    40     6     8    1
    41    17    14    1
    42    69    68    1
    43    69    71   ar
    44    11    13   am
    45    11    10    1
    46    14    13    1
    47    14    15    1
    48    66    72   am
    49    66    67    2
    50    22    23    1
    51    22    15   am
    52     9    10    1
    53     9     3   am
    54    72    73    1
    55    24    23    1
    56     5     2    1
    57     5     7    1
    58     2     3    1
    59    50    49    2
    60    76    73    1
    61    76    77    1
    62    15    16    2
    63    49    48    1
    64    79    77    1
    65    78    77    1
    66    73    74    1
    67     3     4    2
    68    52    54    1
    69    52    51    1
    70    53    51    1
    71    51    48    1
    72    48    47    1
    73    74    75    2
    74    74    80   am
    75    80    81    1
    76   139   136    1
    77   139   140    1
    78   137   136    1
    79   137   138    2
    80   136   135    1
    81   133   132    1
    82    85    86    1
    83    85    84    1
    84    81    84    1
    85    81    82    1
    86    83    82    2
    87    86    87    1
    88    82    88   am
    89   132   134    1
    90   132   131    1
    91    88    89    1
    92   131   128    1
    93   120   119    1
    94    89    90    1
    95    89    92    1
    96    91    90    2
    97   124   123    2
    98    90    97   am
    99   119   118    1
   100   128   127    1
   101   128   129    1
   102    97    98    1
   103    92    93    1
   104   111   109   ar
   105   100    99    2
   106   123   122    1
   107   129   130    2
   108    98    99    1
   109    98   101    1
   110   125   122    1
   111   125   126    1
   112    99   104   am
   113   108   109    1
   114   108   105    1
   115    93    94    1
   116   118   117    1
   117   109   110   ar
   118   122   121    1
   119    95    94   ar
   120   104   105    1
   121    94    96   ar
   122   105   106    1
   123   101   102    1
   124   101   103    1
   125   117   116    1
   126   106   107    2
   127   116   113    1
   128   112   113    1
   129   113   114    1
   130   114   115    2
