@<TRIPOS>MOLECULE
tmp/4xnhA00.pdb
 142 134 0 0 0
SMALL
GASTEIGER

@<TRIPOS>ATOM
      1  N         14.4080   18.5030   -3.7740 N.3   319  PHE319     -0.1227
      2  CA        15.8430   18.7230   -3.6340 C.3   319  PHE319      0.1736
      3  C         16.6090   18.1300   -4.8050 C.2   319  PHE319      0.2596
      4  O         17.5210   18.7570   -5.3790 O.2   319  PHE319     -0.2718
      5  CB        16.4430   18.1530   -2.3350 C.3   319  PHE319      0.0547
      6  CG        17.9300   18.3240   -2.2800 C.ar  319  PHE319     -0.0202
      7  CD1       18.4850   19.5560   -1.9030 C.ar  319  PHE319     -0.0042
      8  CD2       18.7750   17.2880   -2.6580 C.ar  319  PHE319     -0.0042
      9  CE1       19.8550   19.7460   -1.9060 C.ar  319  PHE319     -0.0003
     10  CE2       20.1250   17.4620   -2.6810 C.ar  319  PHE319     -0.0003
     11  CZ        20.6850   18.7130   -2.2890 C.ar  319  PHE319     -0.0000
     12  N         16.2520   16.9020   -5.1490 N.am  320  SER320     -0.1952
     13  CA        16.9970   16.1580   -6.1730 C.3   320  SER320      0.1924
     14  C         16.9560   16.8860   -7.4710 C.2   320  SER320      0.2314
     15  O         17.9370   16.8700   -8.2520 O.2   320  SER320     -0.2863
     16  CB        16.4260   14.7750   -6.4230 C.3   320  SER320      0.2116
     17  OG        16.7750   14.3630   -7.7410 O.3   320  SER320     -0.2180
     18  N         19.5440   19.4910   -7.1900 N.3   323  LYS323     -0.1245
     19  CA        20.8480   18.9770   -6.7950 C.3   323  LYS323      0.1561
     20  C         21.9280   19.3320   -7.8110 C.2   323  LYS323      0.2260
     21  O         23.0490   19.6910   -7.4190 O.2   323  LYS323     -0.2867
     22  CB        20.8010   17.4790   -6.5530 C.3   323  LYS323      0.0271
     23  CG        22.0990   16.8710   -6.0190 C.3   323  LYS323      0.0035
     24  CD        21.8220   15.4660   -5.4470 C.3   323  LYS323      0.0206
     25  CE        22.6800   14.3710   -6.1020 C.3   323  LYS323      0.1093
     26  NZ        22.3410   12.9560   -5.6510 N.3   323  LYS323     -0.1314
     27  N         25.5700   21.2280   -7.2060 N.3   327  GLN327     -0.1245
     28  CA        26.8140   20.6160   -7.6550 C.3   327  GLN327      0.1566
     29  C         27.6830   21.5400   -8.5390 C.2   327  GLN327      0.2260
     30  O         28.9240   21.4860   -8.4810 O.2   327  GLN327     -0.2867
     31  CB        26.5070   19.2930   -8.3750 C.3   327  GLN327      0.0367
     32  CG        25.9550   18.2020   -7.4330 C.3   327  GLN327      0.0905
     33  CD        25.6250   16.8920   -8.1510 C.2   327  GLN327      0.2608
     34  OE1       25.0210   16.8770   -9.2360 O.2   327  GLN327     -0.2717
     35  NE2       26.0300   15.7800   -7.5440 N.am  327  GLN327     -0.0878
     36  N         17.5690   16.8390    3.0680 N.3   366  GLN366     -0.1245
     37  CA        18.3880   16.5050    1.9170 C.3   366  GLN366      0.1566
     38  C         19.4700   17.5520    1.7660 C.2   366  GLN366      0.2260
     39  O         20.6170   17.2170    1.4770 O.2   366  GLN366     -0.2867
     40  CB        17.5480   16.4780    0.6330 C.3   366  GLN366      0.0367
     41  CG        16.5500   15.3160    0.5460 C.3   366  GLN366      0.0905
     42  CD        16.9580   14.2080   -0.4160 C.2   366  GLN366      0.2608
     43  OE1       18.1250   14.1270   -0.8940 O.2   366  GLN366     -0.2717
     44  NE2       16.0060   13.3300   -0.7020 N.am  366  GLN366     -0.0878
     45  N         22.1520   17.1430    4.4650 N.3   369  LEU369     -0.1245
     46  CA        22.8810   15.9400    4.0680 C.3   369  LEU369      0.1561
     47  C         23.8590   16.2480    2.9440 C.2   369  LEU369      0.2260
     48  O         25.0030   15.8550    3.0010 O.2   369  LEU369     -0.2867
     49  CB        21.9320   14.8350    3.6030 C.3   369  LEU369      0.0270
     50  CG        22.5780   13.5480    3.0700 C.3   369  LEU369      0.0019
     51  CD1       23.4650   12.8900    4.1170 C.3   369  LEU369      0.0001
     52  CD2       21.5100   12.5710    2.5740 C.3   369  LEU369      0.0001
     53  N         13.8710    5.9010    4.0280 N.3   396  ILE396     -0.1245
     54  CA        14.9830    5.9100    3.0870 C.3   396  ILE396      0.1561
     55  C         15.9410    7.0800    3.3780 C.2   396  ILE396      0.2260
     56  O         17.1550    6.8900    3.4760 O.2   396  ILE396     -0.2867
     57  CB        14.4690    5.9940    1.6060 C.3   396  ILE396      0.0252
     58  CG1       13.7140    4.7150    1.2530 C.3   396  ILE396      0.0019
     59  CG2       15.6430    6.1890    0.6200 C.3   396  ILE396      0.0019
     60  CD1       13.0690    4.6830   -0.1060 C.3   396  ILE396      0.0001
     61  N         19.7220    6.7280    4.7620 N.3   400  ARG400     -0.1245
     62  CA        20.7880    7.2520    3.9150 C.3   400  ARG400      0.1563
     63  C         21.7530    8.1680    4.7020 C.2   400  ARG400      0.2260
     64  O         22.9490    8.1630    4.4730 O.2   400  ARG400     -0.2867
     65  CB        20.1460    7.9770    2.7490 C.3   400  ARG400      0.0307
     66  CG        21.0760    8.5390    1.7290 C.3   400  ARG400      0.0489
     67  CD        20.2220    9.0240    0.5380 C.3   400  ARG400      0.2205
     68  NE        20.9680    9.9780   -0.2850 N.pl3 400  ARG400     -0.0865
     69  CZ        20.4180   10.8030   -1.1710 C.cat 400  ARG400      0.5346
     70  NH1       19.1090   10.7670   -1.3950 N.pl3 400  ARG400      0.1354
     71  NH2       21.2020   11.6470   -1.8510 N.pl3 400  ARG400      0.1354
     72  N         23.8740    5.8030    6.6460 N.3   403  LYS403     -0.1231
     73  CA        24.8970    5.2610    5.7490 C.3   403  LYS403      0.1693
     74  C         26.1070    6.2120    5.6790 C.2   403  LYS403      0.2592
     75  O         27.2450    5.7690    5.8480 O.2   403  LYS403     -0.2718
     76  CB        24.3390    5.0420    4.3500 C.3   403  LYS403      0.0285
     77  CG        25.4120    4.7120    3.2940 C.3   403  LYS403      0.0035
     78  CD        24.8250    4.7150    1.8770 C.3   403  LYS403      0.0206
     79  CE        24.6320    6.1510    1.4080 C.3   403  LYS403      0.1093
     80  NZ        24.1660    6.2650   -0.0040 N.3   403  LYS403     -0.1314
     81  N         25.8840    7.5060    5.4340 N.am  404  HIS404     -0.1976
     82  CA        27.0320    8.4200    5.3530 C.3   404  HIS404      0.1656
     83  C         27.8020    8.5290    6.6730 C.2   404  HIS404      0.2291
     84  O         28.9960    8.8530    6.6670 O.2   404  HIS404     -0.2864
     85  CB        26.6310    9.8080    4.8760 C.3   404  HIS404      0.0771
     86  CG        26.3260    9.8660    3.4120 C.ar  404  HIS404      0.0820
     87  ND1       27.2160   10.3490    2.4710 N.ar  404  HIS404     -0.2267
     88  CD2       25.2420    9.4510    2.7180 C.ar  404  HIS404      0.1154
     89  CE1       26.6750   10.2660    1.2750 C.ar  404  HIS404      0.1986
     90  NE2       25.4750    9.7170    1.3930 N.ar  404  HIS404     -0.2212
     91  N         10.7120   -1.7670   -4.8090 N.3   427  PHE427     -0.1241
     92  CA        11.8210   -0.7770   -4.7490 C.3   427  PHE427      0.1605
     93  C         12.3490   -0.6720   -3.3300 C.2   427  PHE427      0.2264
     94  O         13.5630   -0.6630   -3.1060 O.2   427  PHE427     -0.2867
     95  CB        11.3540    0.6040   -5.2320 C.3   427  PHE427      0.0534
     96  CG        12.4240    1.6920   -5.1620 C.ar  427  PHE427     -0.0203
     97  CD1       12.6170    2.4230   -3.9970 C.ar  427  PHE427     -0.0042
     98  CD2       13.2300    1.9870   -6.2770 C.ar  427  PHE427     -0.0042
     99  CE1       13.5840    3.4130   -3.9260 C.ar  427  PHE427     -0.0003
    100  CE2       14.2240    2.9910   -6.2040 C.ar  427  PHE427     -0.0003
    101  CZ        14.3830    3.7140   -5.0280 C.ar  427  PHE427     -0.0000
    102  N         16.1730   -1.7580   -1.9730 N.3   431  LYS431     -0.1245
    103  CA        17.0750   -0.8840   -1.2610 C.3   431  LYS431      0.1561
    104  C         17.4050   -1.4770    0.1210 C.2   431  LYS431      0.2260
    105  O         18.5490   -1.3790    0.5850 O.2   431  LYS431     -0.2867
    106  CB        16.5150    0.5210   -1.1590 C.3   431  LYS431      0.0271
    107  CG        17.5350    1.5310   -0.6740 C.3   431  LYS431      0.0035
    108  CD        16.9640    2.9530   -0.6310 C.3   431  LYS431      0.0206
    109  CE        16.5750    3.4660   -2.0330 C.3   431  LYS431      0.1093
    110  NZ        17.7070    3.5870   -3.0210 N.3   431  LYS431     -0.1314
    111  N         19.9630   -4.0040   -0.5400 N.3   434  LYS434     -0.1231
    112  CA        21.2430   -3.3550   -0.7680 C.3   434  LYS434      0.1693
    113  C         21.8920   -2.9300    0.5630 C.2   434  LYS434      0.2592
    114  O         23.0920   -3.0720    0.7420 O.2   434  LYS434     -0.2718
    115  CB        21.0750   -2.1380   -1.6940 C.3   434  LYS434      0.0285
    116  CG        22.3580   -1.2780   -1.8060 C.3   434  LYS434      0.0035
    117  CD        22.2500   -0.2160   -2.8770 C.3   434  LYS434      0.0206
    118  CE        21.8330    1.0660   -2.2840 C.3   434  LYS434      0.1093
    119  NZ        21.9860    2.1970   -3.2110 N.3   434  LYS434     -0.1314
    120  N         21.1060   -2.3920    1.4850 N.am  435  TYR435     -0.1976
    121  CA        21.6790   -1.8980    2.7480 C.3   435  TYR435      0.1639
    122  C         22.1480   -3.0460    3.6330 C.2   435  TYR435      0.2290
    123  O         23.1850   -2.9350    4.3240 O.2   435  TYR435     -0.2864
    124  CB        20.6990   -1.0200    3.4900 C.3   435  TYR435      0.0560
    125  CG        20.8040    0.4380    3.1100 C.ar  435  TYR435     -0.0198
    126  CD1       20.6880    0.8420    1.7900 C.ar  435  TYR435     -0.0009
    127  CD2       20.9760    1.4150    4.0640 C.ar  435  TYR435     -0.0009
    128  CE1       20.7830    2.1980    1.4180 C.ar  435  TYR435      0.0417
    129  CE2       21.0610    2.7740    3.7070 C.ar  435  TYR435      0.0417
    130  CZ        20.9630    3.1520    2.4040 C.ar  435  TYR435      0.1957
    131  OH        21.0480    4.4870    2.0940 O.3   435  TYR435     -0.2866
    132  N         25.3970   -4.0720    2.2730 N.3   438  ARG438     -0.1245
    133  CA        26.4220   -3.1130    2.6540 C.3   438  ARG438      0.1563
    134  C         26.9010   -3.3390    4.0950 C.2   438  ARG438      0.2260
    135  O         28.0290   -3.0400    4.3820 O.2   438  ARG438     -0.2867
    136  CB        25.9410   -1.6690    2.4520 C.3   438  ARG438      0.0307
    137  CG        25.6330   -1.2880    0.9880 C.3   438  ARG438      0.0489
    138  CD        26.8420   -0.8540    0.1850 C.3   438  ARG438      0.2205
    139  NE        26.4940   -0.5400   -1.2100 N.pl3 438  ARG438     -0.0865
    140  CZ        26.1800    0.6730   -1.6630 C.cat 438  ARG438      0.5346
    141  NH1       26.1640    1.7240   -0.8450 N.pl3 438  ARG438      0.1354
    142  NH2       25.8820    0.8520   -2.9490 N.pl3 438  ARG438      0.1354
@<TRIPOS>BOND
     1    34    33    2
     2    29    30    2
     3    29    28    1
     4    31    28    1
     5    31    32    1
     6    15    14    2
     7    33    35   am
     8    33    32    1
     9    20    21    2
    10    20    19    1
    11    17    16    1
    12    28    27    1
    13    14    13    1
    14    18    19    1
    15    19    22    1
    16    22    23    1
    17    16    13    1
    18    98   100   ar
    19    98    96   ar
    20   100   101   ar
    21    13    12    1
    22    25    26    1
    23    25    24    1
    24    23    24    1
    25     4     3    2
    26    95    96    1
    27    95    92    1
    28    96    97   ar
    29    12     3   am
    30   101    99   ar
    31    91    92    1
    32     3     2    1
    33    92    93    1
    34    97    99   ar
    35     1     2    1
    36     2     5    1
    37    93    94    2
    38   119   118    1
    39   110   109    1
    40   142   140    1
    41   117   118    1
    42   117   116    1
    43    10     8   ar
    44    10    11   ar
    45     8     6   ar
    46     5     6    1
    47    11     9   ar
    48     6     7   ar
    49   109   108    1
    50   102   103    1
    51     9     7   ar
    52    71    69    1
    53   116   115    1
    54   115   112    1
    55   140   139    2
    56   140   141    1
    57    70    69    1
    58   103   106    1
    59   103   104    1
    60   139   138    1
    61    69    68    2
    62   106   107    1
    63    43    42    2
    64   112   111    1
    65   112   113    1
    66    44    42   am
    67   107   108    1
    68    42    41    1
    69    68    67    1
    70    60    58    1
    71    80    79    1
    72   104   105    2
    73   138   137    1
    74    67    66    1
    75    41    40    1
    76   113   114    2
    77   113   120   am
    78    59    57    1
    79    40    37    1
    80   137   136    1
    81    58    57    1
    82    89    90   ar
    83    89    87   ar
    84    90    88   ar
    85    79    78    1
    86   128   126   ar
    87   128   130   ar
    88    39    38    2
    89   120   121    1
    90    57    54    1
    91    66    65    1
    92    38    37    1
    93   126   125   ar
    94    78    77    1
    95    37    36    1
    96   131   130    1
    97   132   133    1
    98   130   129   ar
    99   136   133    1
   100    87    86   ar
   101    52    50    1
   102   133   134    1
   103    88    86   ar
   104   121   124    1
   105   121   122    1
   106    65    62    1
   107    47    48    2
   108    47    46    1
   109    50    49    1
   110    50    51    1
   111    54    55    1
   112    54    53    1
   113   125   124    1
   114   125   127   ar
   115    77    76    1
   116    55    56    2
   117    86    85    1
   118    49    46    1
   119   122   123    2
   120   129   127   ar
   121    62    63    1
   122    62    61    1
   123    46    45    1
   124   134   135    2
   125    76    73    1
   126    64    63    2
   127    85    82    1
   128    82    81    1
   129    82    83    1
   130    81    74   am
   131    74    73    1
   132    74    75    2
   133    73    72    1
   134    84    83    2
