@<TRIPOS>MOLECULE
tmp/4xnhC00.pdb
 236 237 0 0 0
SMALL
GASTEIGER

@<TRIPOS>ATOM
      1  N         -0.8730    5.5490   17.6040 N.3    24  THR24      -0.1203
      2  CA        -2.1100    6.1750   18.1290 C.3    24  THR24       0.1994
      3  C         -2.7070    5.4890   19.3820 C.2    24  THR24       0.2617
      4  O         -3.4370    6.1160   20.1400 O.2    24  THR24      -0.2717
      5  CB        -3.2150    6.2730   17.0540 C.3    24  THR24       0.1784
      6  OG1       -3.6070    4.9650   16.6300 O.3    24  THR24      -0.2211
      7  CG2       -2.7220    7.0860   15.8560 C.3    24  THR24       0.0376
      8  N         -2.3900    4.2110   19.5880 N.am   25  VAL25      -0.1979
      9  CA        -2.8120    3.4790   20.7680 C.3    25  VAL25       0.1595
     10  C         -1.6730    2.5810   21.2560 C.2    25  VAL25       0.2287
     11  O         -1.7170    1.3550   21.0640 O.2    25  VAL25      -0.2864
     12  CB        -4.0400    2.6040   20.4930 C.3    25  VAL25       0.0276
     13  CG1       -4.5670    2.0200   21.8180 C.3    25  VAL25       0.0022
     14  CG2       -5.1110    3.4080   19.8150 C.3    25  VAL25       0.0022
     15  N         -1.2590   -1.7010   23.4640 N.3    28  LEU28      -0.1231
     16  CA        -2.4930   -2.4710   23.5800 C.3    28  LEU28       0.1693
     17  C         -2.4900   -3.6900   22.6800 C.2    28  LEU28       0.2592
     18  O         -3.0130   -4.7450   23.0640 O.2    28  LEU28      -0.2718
     19  CB        -3.7020   -1.5820   23.3000 C.3    28  LEU28       0.0284
     20  CG        -5.0590   -2.2590   23.1290 C.3    28  LEU28       0.0019
     21  CD1       -5.4130   -3.0160   24.4080 C.3    28  LEU28       0.0001
     22  CD2       -6.2000   -1.2450   22.7260 C.3    28  LEU28       0.0001
     23  N         -1.8930   -3.5690   21.4940 N.am   29  TYR29      -0.1976
     24  CA        -2.0110   -4.6320   20.4860 C.3    29  TYR29       0.1639
     25  C         -0.7690   -5.5270   20.4120 C.2    29  TYR29       0.2290
     26  O          0.3470   -5.0280   20.2860 O.2    29  TYR29      -0.2864
     27  CB        -2.3490   -4.0320   19.0970 C.3    29  TYR29       0.0560
     28  CG        -3.5960   -3.1450   19.0920 C.ar   29  TYR29      -0.0198
     29  CD1       -4.8600   -3.6870   18.9240 C.ar   29  TYR29      -0.0009
     30  CD2       -3.5000   -1.7630   19.2720 C.ar   29  TYR29      -0.0009
     31  CE1       -6.0070   -2.8730   18.9410 C.ar   29  TYR29       0.0417
     32  CE2       -4.6250   -0.9610   19.2850 C.ar   29  TYR29       0.0417
     33  CZ        -5.8770   -1.5210   19.1250 C.ar   29  TYR29       0.1957
     34  OH        -7.0030   -0.7240   19.1480 O.3    29  TYR29      -0.2866
     35  N        -15.8090   -2.3100   17.4190 N.3    76  ILE76      -0.1231
     36  CA       -14.6370   -1.5520   16.9680 C.3    76  ILE76       0.1692
     37  C        -13.4050   -1.9520   17.8090 C.2    76  ILE76       0.2592
     38  O        -13.3620   -1.7050   19.0110 O.2    76  ILE76      -0.2718
     39  CB       -14.8810   -0.0130   17.0440 C.3    76  ILE76       0.0266
     40  CG1      -15.9820    0.4020   16.0640 C.3    76  ILE76       0.0019
     41  CG2      -13.6160    0.7880   16.7450 C.3    76  ILE76       0.0020
     42  CD1      -16.4790    1.8450   16.2700 C.3    76  ILE76       0.0001
     43  N        -12.4060   -2.5530   17.1610 N.am   77  GLU77      -0.1966
     44  CA       -11.2080   -3.0090   17.8480 C.3    77  GLU77       0.1733
     45  C        -10.0530   -2.0430   17.7290 C.2    77  GLU77       0.2616
     46  O         -9.1740   -2.0110   18.5840 O.2    77  GLU77      -0.2715
     47  CB       -10.8170   -4.3740   17.3300 C.3    77  GLU77       0.0429
     48  CG       -11.7890   -5.4230   17.7740 C.3    77  GLU77       0.1163
     49  CD       -11.4120   -6.8030   17.3280 C.2    77  GLU77       0.3649
     50  OE1      -10.9900   -6.9360   16.1760 O.co2  77  GLU77      -0.2457
     51  OE2      -11.5820   -7.7600   18.1100 O.co2  77  GLU77      -0.2457
     52  N        -10.0440   -1.2560   16.6550 N.am   78  PHE78      -0.1960
     53  CA        -9.0680   -0.1810   16.5100 C.3    78  PHE78       0.1771
     54  C         -9.6850    0.9100   15.6470 C.2    78  PHE78       0.2619
     55  O        -10.4070    0.6210   14.6890 O.2    78  PHE78      -0.2715
     56  CB        -7.7200   -0.6610   15.9070 C.3    78  PHE78       0.0574
     57  CG        -6.8550    0.4810   15.3910 C.ar   78  PHE78      -0.0200
     58  CD1       -6.3180    1.4100   16.2620 C.ar   78  PHE78      -0.0042
     59  CD2       -6.6560    0.6600   14.0370 C.ar   78  PHE78      -0.0042
     60  CE1       -5.5740    2.4620   15.8080 C.ar   78  PHE78      -0.0003
     61  CE2       -5.9250    1.7130   13.5800 C.ar   78  PHE78      -0.0003
     62  CZ        -5.3730    2.6170   14.4610 C.ar   78  PHE78      -0.0000
     63  N         -9.4440    2.1610   16.0130 N.am   79  LEU79      -0.1963
     64  CA        -9.8720    3.3020   15.1930 C.3    79  LEU79       0.1728
     65  C         -8.9710    4.4350   15.5740 C.2    79  LEU79       0.2617
     66  O         -9.0990    4.9140   16.6530 O.2    79  LEU79      -0.2715
     67  CB       -11.3200    3.7170   15.4840 C.3    79  LEU79       0.0311
     68  CG       -11.9920    4.5820   14.4080 C.3    79  LEU79       0.0022
     69  CD1      -13.4880    4.6480   14.6460 C.3    79  LEU79       0.0001
     70  CD2      -11.4330    6.0030   14.3060 C.3    79  LEU79       0.0001
     71  N         -8.0720    4.8710   14.6980 N.am   80  GLY80      -0.1940
     72  CA        -7.0720    5.8390   15.0960 C.3    80  GLY80       0.2014
     73  C         -6.5800    6.6700   13.9300 C.2    80  GLY80       0.2638
     74  O         -6.4920    6.1610   12.8020 O.2    80  GLY80      -0.2714
     75  N         -6.2830    7.9460   14.2110 N.am   81  VAL81      -0.1977
     76  CA        -5.7810    8.8810   13.2110 C.3    81  VAL81       0.1596
     77  C         -4.5250    9.5340   13.7710 C.2    81  VAL81       0.2287
     78  O         -4.4470    9.8260   14.9730 O.2    81  VAL81      -0.2864
     79  CB        -6.8730    9.9550   12.8410 C.3    81  VAL81       0.0276
     80  CG1       -6.3270   10.9930   11.8630 C.3    81  VAL81       0.0022
     81  CG2       -8.0990    9.2680   12.2250 C.3    81  VAL81       0.0022
     82  N         -3.3580   15.0060   11.6910 N.3    85  TYR85      -0.1227
     83  CA        -4.4180   14.8960   10.6690 C.3    85  TYR85       0.1736
     84  C         -5.8160   14.8190   11.3240 C.2    85  TYR85       0.2595
     85  O         -6.8120   14.5160   10.6720 O.2    85  TYR85      -0.2718
     86  CB        -4.1840   13.6650    9.7830 C.3    85  TYR85       0.0548
     87  CG        -2.9120   13.7940    8.9910 C.ar   85  TYR85      -0.0200
     88  CD1       -2.8990   14.4340    7.7700 C.ar   85  TYR85      -0.0009
     89  CD2       -1.6990   13.3250    9.5080 C.ar   85  TYR85      -0.0009
     90  CE1       -1.6950   14.5990    7.0450 C.ar   85  TYR85       0.0417
     91  CE2       -0.5110   13.4710    8.8090 C.ar   85  TYR85       0.0417
     92  CZ        -0.5050   14.1050    7.5740 C.ar   85  TYR85       0.1957
     93  OH         0.6930   14.2440    6.8830 O.3    85  TYR85      -0.2866
     94  N         -5.8650   15.0830   12.6230 N.am   86  ARG86      -0.1966
     95  CA        -7.1170   15.0390   13.3620 C.3    86  ARG86       0.1729
     96  C         -7.9220   16.3160   13.1130 C.2    86  ARG86       0.2616
     97  O         -7.3830   17.3110   12.6330 O.2    86  ARG86      -0.2715
     98  CB        -6.8500   14.8280   14.8610 C.3    86  ARG86       0.0348
     99  CG        -6.3350   13.4410   15.1400 C.3    86  ARG86       0.0492
    100  CD        -6.0310   13.1590   16.6090 C.3    86  ARG86       0.2205
    101  NE        -5.3730   11.8590   16.7360 N.pl3  86  ARG86      -0.0865
    102  CZ        -4.7660   11.4420   17.8390 C.cat  86  ARG86       0.5346
    103  NH1       -4.7640   12.2170   18.9160 N.pl3  86  ARG86       0.1354
    104  NH2       -4.1680   10.2610   17.8650 N.pl3  86  ARG86       0.1354
    105  N         -9.2190   16.2550   13.4130 N.am   87  HIS87      -0.1959
    106  CA       -10.1120   17.4070   13.2760 C.3    87  HIS87       0.1787
    107  C        -10.2580   17.7870   11.8070 C.2    87  HIS87       0.2620
    108  O        -10.3340   18.9640   11.4720 O.2    87  HIS87      -0.2715
    109  CB        -9.6330   18.5940   14.1360 C.3    87  HIS87       0.0785
    110  CG        -9.6980   18.3250   15.6100 C.ar   87  HIS87       0.0821
    111  ND1      -10.7440   18.7590   16.4010 N.ar   87  HIS87      -0.2267
    112  CD2       -8.8610   17.6490   16.4350 C.ar   87  HIS87       0.1154
    113  CE1      -10.5430   18.3680   17.6490 C.ar   87  HIS87       0.1986
    114  NE2       -9.4080   17.6910   17.6960 N.ar   87  HIS87      -0.2212
    115  N        -10.2890   16.7670   10.9480 N.am   88  LYS88      -0.1963
    116  CA       -10.5420   16.9310    9.5110 C.3    88  LYS88       0.1728
    117  C        -11.5830   15.9230    9.0070 C.2    88  LYS88       0.2617
    118  O        -11.6670   15.6620    7.8100 O.2    88  LYS88      -0.2715
    119  CB        -9.2380   16.7620    8.7390 C.3    88  LYS88       0.0311
    120  CG        -8.1740   17.7600    9.1810 C.3    88  LYS88       0.0038
    121  CD        -6.8430   17.6090    8.4400 C.3    88  LYS88       0.0206
    122  CE        -5.8870   18.7610    8.7900 C.3    88  LYS88       0.1093
    123  NZ        -5.2940   18.5740   10.1260 N.3    88  LYS88      -0.1314
    124  N        -12.3560   15.3680    9.9410 N.am   89  SER89      -0.1936
    125  CA       -13.4590   14.4260    9.6680 C.3    89  SER89       0.2055
    126  C        -12.9820   12.9910    9.4000 C.2    89  SER89       0.2643
    127  O        -13.7820   12.0900    9.0750 O.2    89  SER89      -0.2714
    128  CB       -14.3450   14.9010    8.5040 C.3    89  SER89       0.2130
    129  OG       -13.7560   14.5610    7.2430 O.3    89  SER89      -0.2179
    130  N        -11.6860   12.7450    9.5300 N.am   90  ILE90      -0.1963
    131  CA       -11.1880   11.4310    9.1290 C.3    90  ILE90       0.1727
    132  C        -11.6440   10.3220   10.0850 C.2    90  ILE90       0.2617
    133  O        -12.0080    9.2090    9.6340 O.2    90  ILE90      -0.2715
    134  CB        -9.6690   11.4230    8.9800 C.3    90  ILE90       0.0290
    135  CG1       -9.2550   12.4970    7.9660 C.3    90  ILE90       0.0022
    136  CG2       -9.2020   10.0330    8.5730 C.3    90  ILE90       0.0023
    137  CD1       -7.7540   12.6520    7.8340 C.3    90  ILE90       0.0001
    138  N        -11.5690   10.5830   11.3910 N.am   91  GLY91      -0.1940
    139  CA       -12.1030    9.6440   12.3690 C.3    91  GLY91       0.2014
    140  C        -13.6070    9.4340   12.1710 C.2    91  GLY91       0.2639
    141  O        -14.1140    8.3020   12.2950 O.2    91  GLY91      -0.2714
    142  N        -14.3270   10.4960   11.8000 N.am   92  SER92      -0.1949
    143  CA       -15.7840   10.3610   11.5650 C.3    92  SER92       0.1924
    144  C        -16.0820    9.4760   10.3750 C.2    92  SER92       0.2314
    145  O        -17.0470    8.6870   10.3830 O.2    92  SER92      -0.2863
    146  CB       -16.4500   11.7270   11.3610 C.3    92  SER92       0.2116
    147  OG       -16.3820   12.4690   12.5850 O.3    92  SER92      -0.2180
    148  N        -17.7330   -0.4150   21.6120 N.3   112  VAL112     -0.1231
    149  CA       -16.2880   -0.2820   21.7740 C.3   112  VAL112      0.1692
    150  C        -15.9120   -0.2370   23.2490 C.2   112  VAL112      0.2592
    151  O        -16.5580    0.4620   24.0280 O.2   112  VAL112     -0.2718
    152  CB       -15.7790    0.9990   21.0700 C.3   112  VAL112      0.0266
    153  CG1      -16.3950    2.2710   21.7090 C.3   112  VAL112      0.0020
    154  CG2      -14.2770    1.0590   21.0990 C.3   112  VAL112      0.0020
    155  N        -14.8850   -0.9840   23.6520 N.am  113  TYR113     -0.1962
    156  CA       -14.3210   -0.8090   24.9990 C.3   113  TYR113      0.1771
    157  C        -13.2380    0.2480   24.9410 C.2   113  TYR113      0.2619
    158  O        -12.3230    0.1320   24.1080 O.2   113  TYR113     -0.2715
    159  CB       -13.6890   -2.1030   25.5210 C.3   113  TYR113      0.0574
    160  CG       -14.6700   -3.1980   25.8270 C.ar  113  TYR113     -0.0198
    161  CD1      -15.3170   -3.2610   27.0660 C.ar  113  TYR113     -0.0009
    162  CD2      -14.9400   -4.1790   24.8920 C.ar  113  TYR113     -0.0009
    163  CE1      -16.2130   -4.2810   27.3480 C.ar  113  TYR113      0.0417
    164  CE2      -15.8140   -5.1950   25.1610 C.ar  113  TYR113      0.0417
    165  CZ       -16.4550   -5.2480   26.3820 C.ar  113  TYR113      0.1957
    166  OH       -17.3390   -6.2750   26.6230 O.3   113  TYR113     -0.2866
    167  N        -13.3320    1.2750   25.7890 N.am  114  LEU114     -0.1964
    168  CA       -12.2280    2.2460   25.9650 C.3   114  LEU114      0.1713
    169  C        -11.6500    2.2120   27.3710 C.2   114  LEU114      0.2458
    170  O        -12.3620    1.8810   28.3180 O.2   114  LEU114     -0.2730
    171  CB       -12.6890    3.6710   25.7200 C.3   114  LEU114      0.0310
    172  CG       -13.3350    3.9660   24.3780 C.3   114  LEU114      0.0022
    173  CD1      -13.9040    5.3730   24.4290 C.3   114  LEU114      0.0001
    174  CD2      -12.2960    3.8290   23.2490 C.3   114  LEU114      0.0001
    175  N        -10.3640    2.5790   27.5110 N.am  115  PRO115     -0.2727
    176  CA        -9.7840    2.8350   28.8330 C.3   115  PRO115      0.1402
    177  C        -10.6690    3.8040   29.6260 C.2   115  PRO115      0.2269
    178  O        -10.9970    4.8700   29.0860 O.2   115  PRO115     -0.2865
    179  CB        -8.4500    3.4990   28.5020 C.3   115  PRO115      0.0296
    180  CG        -8.1120    3.0080   27.1140 C.3   115  PRO115      0.0237
    181  CD        -9.4070    2.8460   26.4160 C.3   115  PRO115      0.0939
    182  N         -9.8560    7.4370   29.6820 N.3   118  ASP118     -0.1239
    183  CA        -9.7480    8.2120   28.4530 C.3   118  ASP118      0.1674
    184  C        -11.0310    8.9740   28.2800 C.2   118  ASP118      0.2266
    185  O        -11.9700    8.5030   27.6140 O.2   118  ASP118     -0.2867
    186  CB        -9.4510    7.3350   27.2220 C.3   118  ASP118      0.1410
    187  CG        -8.9370    8.1510   26.0380 C.2   118  ASP118      0.3668
    188  OD1       -9.0760    9.4000   26.0790 O.co2 118  ASP118     -0.2456
    189  OD2       -8.3930    7.5570   25.0690 O.co2 118  ASP118     -0.2456
    190  N        -11.6320   10.7270   24.4230 N.3   121  THR121     -0.1218
    191  CA       -12.0750    9.7940   23.4070 C.3   121  THR121      0.1862
    192  C        -13.5130    9.4000   23.6580 C.2   121  THR121      0.2287
    193  O        -14.3180    9.3580   22.7130 O.2   121  THR121     -0.2866
    194  CB       -11.1860    8.5190   23.3580 C.3   121  THR121      0.1770
    195  OG1       -9.8220    8.8990   23.1740 O.3   121  THR121     -0.2211
    196  CG2      -11.5910    7.6250   22.2150 C.3   121  THR121      0.0375
    197  N        -15.8190   11.8850   22.4210 N.3   124  TRP124     -0.1227
    198  CA       -15.8750   11.8720   20.9470 C.3   124  TRP124      0.1737
    199  C        -16.8620   10.8340   20.4480 C.2   124  TRP124      0.2595
    200  O        -17.6610   11.1150   19.5650 O.2   124  TRP124     -0.2718
    201  CB       -14.4720   11.6920   20.3310 C.3   124  TRP124      0.0564
    202  CG       -14.4420   11.7750   18.8070 C.ar  124  TRP124      0.0003
    203  CD1      -14.3270   12.9060   18.0410 C.ar  124  TRP124      0.0946
    204  CD2      -14.5500   10.6810   17.8910 C.ar  124  TRP124      0.0152
    205  NE1      -14.3710   12.5810   16.7000 N.ar  124  TRP124     -0.2442
    206  CE2      -14.4980   11.2210   16.5790 C.ar  124  TRP124      0.0810
    207  CE3      -14.6850    9.2940   18.0470 C.ar  124  TRP124      0.0012
    208  CZ2      -14.5530   10.4210   15.4350 C.ar  124  TRP124      0.0191
    209  CZ3      -14.7570    8.4980   16.9080 C.ar  124  TRP124      0.0001
    210  CH2      -14.6870    9.0620   15.6160 C.ar  124  TRP124      0.0015
    211  N        -16.8340    9.6330   21.0180 N.am  125  PHE125     -0.1976
    212  CA       -17.8500    8.6240   20.6870 C.3   125  PHE125      0.1639
    213  C        -19.2870    9.0350   21.0950 C.2   125  PHE125      0.2290
    214  O        -20.2510    8.7480   20.3800 O.2   125  PHE125     -0.2864
    215  CB       -17.4900    7.2740   21.3140 C.3   125  PHE125      0.0560
    216  CG       -16.5000    6.4770   20.4860 C.ar  125  PHE125     -0.0200
    217  CD1      -16.9480    5.6850   19.4410 C.ar  125  PHE125     -0.0042
    218  CD2      -15.1260    6.5210   20.7630 C.ar  125  PHE125     -0.0042
    219  CE1      -16.0450    4.9480   18.6620 C.ar  125  PHE125     -0.0003
    220  CE2      -14.2140    5.8030   19.9820 C.ar  125  PHE125     -0.0003
    221  CZ       -14.6810    5.0070   18.9270 C.ar  125  PHE125     -0.0000
    222  N        -20.3390   12.1160   21.2510 N.3   127  ALA127     -0.1231
    223  CA       -20.7680   13.1310   20.2560 C.3   127  ALA127      0.1694
    224  C        -21.2510   12.4600   19.0040 C.2   127  ALA127      0.2592
    225  O        -21.9970   13.0480   18.2270 O.2   127  ALA127     -0.2718
    226  CB       -19.6680   14.0850   19.9170 C.3   127  ALA127      0.0304
    227  N        -20.8320   11.2130   18.8060 N.am  128  HIS128     -0.1976
    228  CA       -21.2550   10.4630   17.6300 C.3   128  HIS128      0.1656
    229  C        -22.4130    9.5040   17.9070 C.2   128  HIS128      0.2291
    230  O        -22.7090    8.6260   17.0740 O.2   128  HIS128     -0.2864
    231  CB       -20.0650    9.7150   17.0190 C.3   128  HIS128      0.0771
    232  CG       -19.1410   10.6040   16.2580 C.ar  128  HIS128      0.0820
    233  ND1      -18.2440   11.4510   16.8770 N.ar  128  HIS128     -0.2267
    234  CD2      -18.9960   10.8010   14.9300 C.ar  128  HIS128      0.1154
    235  CE1      -17.5760   12.1200   15.9540 C.ar  128  HIS128      0.1986
    236  NE2      -18.0160   11.7480   14.7690 N.ar  128  HIS128     -0.2212
@<TRIPOS>BOND
     1    93    92    1
     2    90    92   ar
     3    90    88   ar
     4   129   128    1
     5    92    91   ar
     6    88    87   ar
     7   118   117    2
     8   137   135    1
     9   135   134    1
    10   121   122    1
    11   121   120    1
    12   128   125    1
    13   136   134    1
    14   119   120    1
    15   119   116    1
    16   122   123    1
    17    91    89   ar
    18   134   131    1
    19    87    89   ar
    20    87    86    1
    21   117   116    1
    22   117   124   am
    23   127   126    2
    24   131   130    1
    25   131   132    1
    26   126   130   am
    27   126   125    1
    28   116   115    1
    29   133   132    2
    30   125   124    1
    31    86    83    1
    32   132   138   am
    33   144   145    2
    34   144   143    1
    35    83    84    1
    36    83    82    1
    37    85    84    2
    38   115   107   am
    39    84    94   am
    40   146   143    1
    41   146   147    1
    42   138   139    1
    43   108   107    2
    44   143   142    1
    45   142   140   am
    46   107   106    1
    47    80    79    1
    48   140   141    2
    49   140   139    1
    50    81    79    1
    51    94    95    1
    52    97    96    2
    53    74    73    2
    54    79    76    1
    55    96    95    1
    56    96   105   am
    57    76    77    1
    58    76    75    1
    59   106   105    1
    60   106   109    1
    61    95    98    1
    62    61    59   ar
    63    61    62   ar
    64    77    78    2
    65    73    75   am
    66    73    72    1
    67    59    57   ar
    68   109   110    1
    69    70    68    1
    70    68    69    1
    71    68    67    1
    72    62    60   ar
    73    55    54    2
    74    71    72    1
    75    71    65   am
    76   236   234   ar
    77   236   235   ar
    78    98    99    1
    79   234   232   ar
    80    99   100    1
    81    64    67    1
    82    64    65    1
    83    64    63    1
    84    57    56    1
    85    57    58   ar
    86   208   210   ar
    87   208   206   ar
    88    65    66    2
    89   110   111   ar
    90   110   112   ar
    91   210   209   ar
    92    54    63   am
    93    54    53    1
    94    60    58   ar
    95     7     5    1
    96    56    53    1
    97   235   233   ar
    98    40    42    1
    99    40    39    1
   100    50    49   ar
   101   232   233   ar
   102   232   231    1
   103   111   113   ar
   104   112   114   ar
   105    53    52    1
   106   206   205   ar
   107   206   204   ar
   108   100   101    1
   109     6     5    1
   110    52    45   am
   111   205   203   ar
   112   101   102    2
   113    41    39    1
   114   209   207   ar
   115    36    39    1
   116    36    35    1
   117    36    37    1
   118   231   228    1
   119     5     2    1
   120   230   229    2
   121    43    37   am
   122    43    44    1
   123    49    48    1
   124    49    51   ar
   125    47    48    1
   126    47    44    1
   127     1     2    1
   128   228   229    1
   129   228   227    1
   130   113   114   ar
   131    45    44    1
   132    45    46    2
   133    37    38    2
   134   102   104    1
   135   102   103    1
   136   204   207   ar
   137   204   202   ar
   138   203   202   ar
   139     2     3    1
   140   225   224    2
   141   219   221   ar
   142   219   217   ar
   143   227   224   am
   144   202   201    1
   145    29    31   ar
   146    29    28   ar
   147   221   220   ar
   148    31    33   ar
   149   224   223    1
   150    28    27    1
   151    28    30   ar
   152    27    24    1
   153    33    34    1
   154    33    32   ar
   155    30    32   ar
   156     3     8   am
   157     3     4    2
   158   217   216   ar
   159   200   199    2
   160     8     9    1
   161    14    12    1
   162   226   223    1
   163   220   218   ar
   164   223   222    1
   165    26    25    2
   166   201   198    1
   167   214   213    2
   168    25    24    1
   169   199   198    1
   170   199   211   am
   171   216   218   ar
   172   216   215    1
   173    24    23    1
   174    12     9    1
   175    12    13    1
   176   212   211    1
   177   212   213    1
   178   212   215    1
   179     9    10    1
   180   198   197    1
   181    11    10    2
   182   152   154    1
   183   152   153    1
   184   152   149    1
   185    23    17   am
   186   148   149    1
   187   149   150    1
   188   196   194    1
   189    17    18    2
   190    17    16    1
   191   193   192    2
   192    22    20    1
   193    20    19    1
   194    20    21    1
   195   195   194    1
   196   174   172    1
   197   150   155   am
   198   150   151    2
   199    19    16    1
   200   194   191    1
   201   191   192    1
   202   191   190    1
   203    15    16    1
   204   155   156    1
   205   158   157    2
   206   172   173    1
   207   172   171    1
   208   162   164   ar
   209   162   160   ar
   210   157   156    1
   211   157   167   am
   212   156   159    1
   213   189   187   ar
   214   164   165   ar
   215   159   160    1
   216   171   168    1
   217   167   168    1
   218   160   161   ar
   219   168   169    1
   220   187   188   ar
   221   187   186    1
   222   165   166    1
   223   165   163   ar
   224   181   180    1
   225   181   175    1
   226   161   163   ar
   227   180   179    1
   228   186   183    1
   229   169   175   am
   230   169   170    2
   231   175   176    1
   232   185   184    2
   233   184   183    1
   234   183   182    1
   235   179   176    1
   236   176   177    1
   237   178   177    2
