@<TRIPOS>MOLECULE
tmp/4xniA06.pdb
 86 85 0 0 0
SMALL
GASTEIGER

@<TRIPOS>ATOM
      1  N         16.4370   12.7290   20.7420 N.3   298  ASP298     -0.1239
      2  CA        16.9950   11.5350   21.3770 C.3   298  ASP298      0.1674
      3  C         17.5980   10.6170   20.3070 C.2   298  ASP298      0.2266
      4  O         16.8690    9.9450   19.5620 O.2   298  ASP298     -0.2867
      5  CB        15.9300   10.7840   22.1850 C.3   298  ASP298      0.1410
      6  CG        16.5390    9.8540   23.2390 C.2   298  ASP298      0.3668
      7  OD1       17.7040   10.0870   23.6380 O.co2 298  ASP298     -0.2456
      8  OD2       15.8580    8.8830   23.6540 O.co2 298  ASP298     -0.2456
      9  N         20.2400    8.3610   21.0730 N.3   300  SER300     -0.1202
     10  CA        21.0960    7.5150   21.8830 C.3   300  SER300      0.2020
     11  C         21.1870    6.1010   21.3250 C.2   300  SER300      0.2619
     12  O         22.1300    5.3910   21.6490 O.2   300  SER300     -0.2717
     13  CB        20.5910    7.4700   23.3250 C.3   300  SER300      0.2103
     14  OG        19.1740    7.5030   23.3670 O.3   300  SER300     -0.2182
     15  N         20.2290    5.6790   20.4980 N.am  301  TRP301     -0.1961
     16  CA        20.3150    4.3330   19.9410 C.3   301  TRP301      0.1771
     17  C         20.8410    4.2790   18.5030 C.2   301  TRP301      0.2619
     18  O         20.8960    3.2040   17.9230 O.2   301  TRP301     -0.2715
     19  CB        18.9550    3.6020   20.0240 C.3   301  TRP301      0.0590
     20  CG        17.8160    4.1800   19.2200 C.ar  301  TRP301      0.0006
     21  CD1       17.2670    3.6720   18.0620 C.ar  301  TRP301      0.0946
     22  CD2       17.0550    5.3410   19.5420 C.ar  301  TRP301      0.0152
     23  NE1       16.2300    4.4740   17.6350 N.ar  301  TRP301     -0.2442
     24  CE2       16.0810    5.5040   18.5280 C.ar  301  TRP301      0.0810
     25  CE3       17.1170    6.2750   20.5780 C.ar  301  TRP301      0.0012
     26  CZ2       15.1800    6.5630   18.5280 C.ar  301  TRP301      0.0191
     27  CZ3       16.2160    7.3230   20.5790 C.ar  301  TRP301      0.0001
     28  CH2       15.2700    7.4660   19.5560 C.ar  301  TRP301      0.0015
     29  N         21.2500    5.4000   17.9250 N.am  302  PHE302     -0.1974
     30  CA        21.7580    5.3450   16.5620 C.3   302  PHE302      0.1639
     31  C         22.7480    6.4640   16.3020 C.2   302  PHE302      0.2290
     32  O         22.8110    7.4270   17.0550 O.2   302  PHE302     -0.2864
     33  CB        20.6070    5.3780   15.5460 C.3   302  PHE302      0.0560
     34  CG        19.7590    6.6110   15.6180 C.ar  302  PHE302     -0.0200
     35  CD1       18.7810    6.7380   16.5850 C.ar  302  PHE302     -0.0042
     36  CD2       19.9090    7.6260   14.6920 C.ar  302  PHE302     -0.0042
     37  CE1       17.9980    7.8650   16.6610 C.ar  302  PHE302     -0.0003
     38  CE2       19.1200    8.7730   14.7550 C.ar  302  PHE302     -0.0003
     39  CZ        18.1640    8.8900   15.7420 C.ar  302  PHE302     -0.0000
     40  N         21.1280   11.0150   10.1530 N.3   307  PHE307     -0.1241
     41  CA        20.1080   11.9480    9.6820 C.3   307  PHE307      0.1605
     42  C         20.4570   12.5610    8.3190 C.2   307  PHE307      0.2264
     43  O         19.5560   12.9450    7.5670 O.2   307  PHE307     -0.2867
     44  CB        19.8870   13.0780   10.6890 C.3   307  PHE307      0.0534
     45  CG        18.9650   12.7280   11.8220 C.ar  307  PHE307     -0.0203
     46  CD1       17.5900   12.7440   11.6410 C.ar  307  PHE307     -0.0042
     47  CD2       19.4690   12.4530   13.0830 C.ar  307  PHE307     -0.0042
     48  CE1       16.7350   12.4520   12.6860 C.ar  307  PHE307     -0.0003
     49  CE2       18.6180   12.1680   14.1340 C.ar  307  PHE307     -0.0003
     50  CZ        17.2470   12.1710   13.9370 C.ar  307  PHE307     -0.0000
     51  N         18.7940   11.5340    4.9870 N.3   310  LEU310     -0.1245
     52  CA        17.4200   11.9240    4.6810 C.3   310  LEU310      0.1561
     53  C         17.2890   12.8500    3.4600 C.2   310  LEU310      0.2260
     54  O         16.3140   12.7580    2.7050 O.2   310  LEU310     -0.2867
     55  CB        16.8040   12.5880    5.9130 C.3   310  LEU310      0.0270
     56  CG        16.3280   11.5940    6.9680 C.3   310  LEU310      0.0019
     57  CD1       16.1070   12.2820    8.3210 C.3   310  LEU310      0.0001
     58  CD2       15.0540   10.9370    6.4630 C.3   310  LEU310      0.0001
     59  N         10.6090   14.5650   19.2010 N.3   368  SER368     -0.1203
     60  CA        10.6000   13.4770   18.2250 C.3   368  SER368      0.2005
     61  C         11.4930   13.7540   17.0220 C.2   368  SER368      0.2461
     62  O         11.4270   14.8470   16.4460 O.2   368  SER368     -0.2732
     63  CB         9.1900   13.2230   17.7230 C.3   368  SER368      0.2103
     64  OG         9.2140   12.1710   16.7690 O.3   368  SER368     -0.2182
     65  N         12.3110   12.7610   16.6260 N.am  369  PRO369     -0.2717
     66  CA        13.0680   12.8110   15.3680 C.3   369  PRO369      0.1535
     67  C         12.2100   13.2930   14.1740 C.2   369  PRO369      0.2598
     68  O         12.6690   14.0800   13.3380 O.2   369  PRO369     -0.2715
     69  CB        13.4870   11.3560   15.1560 C.3   369  PRO369      0.0310
     70  CG        13.5340   10.7910   16.5220 C.3   369  PRO369      0.0237
     71  CD        12.4330   11.4510   17.2830 C.3   369  PRO369      0.0939
     72  N         10.9650   12.8290   14.1170 N.am  370  LEU370     -0.1978
     73  CA        10.0860   13.0930   12.9870 C.3   370  LEU370      0.1596
     74  C          9.9860   14.5530   12.5540 C.2   370  LEU370      0.2287
     75  O          9.7490   14.8260   11.3810 O.2   370  LEU370     -0.2864
     76  CB         8.6810   12.5690   13.2850 C.3   370  LEU370      0.0297
     77  CG         8.5990   11.0580   13.4790 C.3   370  LEU370      0.0022
     78  CD1        7.1460   10.6480   13.7120 C.3   370  LEU370      0.0001
     79  CD2        9.1790   10.3720   12.2550 C.3   370  LEU370      0.0001
     80  N         12.5290   14.8240   10.0400 N.3   373  VAL373     -0.1245
     81  CA        11.9800   14.0870    8.9230 C.3   373  VAL373      0.1561
     82  C         11.0310   14.9460    8.1140 C.2   373  VAL373      0.2260
     83  O         11.1240   15.0100    6.8910 O.2   373  VAL373     -0.2867
     84  CB        11.2480   12.8350    9.4090 C.3   373  VAL373      0.0252
     85  CG1       10.3590   12.2790    8.3110 C.3   373  VAL373      0.0019
     86  CG2       12.2600   11.7860    9.8710 C.3   373  VAL373      0.0019
@<TRIPOS>BOND
     1    54    53    2
     2    53    52    1
     3    52    51    1
     4    52    55    1
     5    55    56    1
     6    58    56    1
     7    83    82    2
     8    56    57    1
     9    43    42    2
    10    82    81    1
    11    85    84    1
    12    42    41    1
    13    81    84    1
    14    81    80    1
    15    84    86    1
    16    41    40    1
    17    41    44    1
    18    44    45    1
    19    75    74    2
    20    46    45   ar
    21    46    48   ar
    22    45    47   ar
    23    79    77    1
    24    74    73    1
    25    48    50   ar
    26    73    76    1
    27    73    72    1
    28    47    49   ar
    29    76    77    1
    30    68    67    2
    31    77    78    1
    32    50    49   ar
    33    72    67   am
    34    67    66    1
    35    36    38   ar
    36    36    34   ar
    37    38    39   ar
    38    69    66    1
    39    69    70    1
    40    66    65    1
    41    33    34    1
    42    33    30    1
    43    34    35   ar
    44    39    37   ar
    45    31    30    1
    46    31    32    2
    47    62    61    2
    48    70    71    1
    49    30    29    1
    50    35    37   ar
    51    65    61   am
    52    65    71    1
    53    64    63    1
    54    61    60    1
    55    23    21   ar
    56    23    24   ar
    57    63    60    1
    58    18    17    2
    59    29    17   am
    60    21    20   ar
    61    60    59    1
    62    17    16    1
    63    24    26   ar
    64    24    22   ar
    65    26    28   ar
    66    20    22   ar
    67    20    19    1
    68    22    25   ar
    69    28    27   ar
    70     4     3    2
    71    16    19    1
    72    16    15    1
    73     3     2    1
    74    15    11   am
    75    25    27   ar
    76     1     2    1
    77     9    10    1
    78    11    12    2
    79    11    10    1
    80     2     5    1
    81    10    13    1
    82     5     6    1
    83     6     7   ar
    84     6     8   ar
    85    13    14    1
