@<TRIPOS>MOLECULE
tmp/4xnjA06.pdb
 101 95 0 0 0
SMALL
GASTEIGER

@<TRIPOS>ATOM
      1  N         17.3960   35.2780   -6.6040 N.3   283  ILE283     -0.1245
      2  CA        17.2670   35.4360   -5.1610 C.3   283  ILE283      0.1561
      3  C         16.5210   34.2300   -4.5750 C.2   283  ILE283      0.2260
      4  O         16.9130   33.6750   -3.5400 O.2   283  ILE283     -0.2867
      5  CB        16.5300   36.7470   -4.7750 C.3   283  ILE283      0.0252
      6  CG1       17.2510   37.9850   -5.3250 C.3   283  ILE283      0.0019
      7  CG2       16.4130   36.8630   -3.2780 C.3   283  ILE283      0.0019
      8  CD1       18.7130   38.0480   -4.9720 C.3   283  ILE283      0.0001
      9  N         18.7530   31.2920   -4.4040 N.3   286  VAL286     -0.1231
     10  CA        19.7340   31.4730   -3.3540 C.3   286  VAL286      0.1692
     11  C         19.1250   31.1240   -2.0050 C.2   286  VAL286      0.2591
     12  O         19.6910   30.3470   -1.2340 O.2   286  VAL286     -0.2718
     13  CB        20.2660   32.9080   -3.3290 C.3   286  VAL286      0.0266
     14  CG1       21.0210   33.1810   -2.0300 C.3   286  VAL286      0.0020
     15  CG2       21.1580   33.1470   -4.5240 C.3   286  VAL286      0.0020
     16  N         17.9590   31.6920   -1.7330 N.am  287  LEU287     -0.1980
     17  CA        17.2770   31.4360   -0.4810 C.3   287  LEU287      0.1596
     18  C         16.9110   29.9590   -0.3570 C.2   287  LEU287      0.2287
     19  O         17.1070   29.3600    0.6960 O.2   287  LEU287     -0.2864
     20  CB        16.0360   32.3140   -0.3750 C.3   287  LEU287      0.0297
     21  CG        16.4570   33.7870   -0.3250 C.3   287  LEU287      0.0022
     22  CD1       15.2750   34.7170   -0.5170 C.3   287  LEU287      0.0001
     23  CD2       17.2100   34.1110    0.9670 C.3   287  LEU287      0.0001
     24  N         25.6620   32.7560    2.4860 N.3   425  LEU425     -0.1245
     25  CA        24.6570   33.3330    3.3620 C.3   425  LEU425      0.1561
     26  C         24.5520   32.4790    4.6360 C.2   425  LEU425      0.2260
     27  O         24.5470   33.0100    5.7610 O.2   425  LEU425     -0.2867
     28  CB        23.3070   33.4180    2.6280 C.3   425  LEU425      0.0270
     29  CG        22.0640   33.8980    3.3980 C.3   425  LEU425      0.0019
     30  CD1       22.2840   35.2410    4.0760 C.3   425  LEU425      0.0001
     31  CD2       20.8400   33.9550    2.4920 C.3   425  LEU425      0.0001
     32  N         24.3490   33.0450    8.6840 N.3   429  LEU429     -0.1245
     33  CA        23.1080   32.8000    9.4010 C.3   429  LEU429      0.1561
     34  C         23.2000   31.7120   10.4560 C.2   429  LEU429      0.2260
     35  O         22.6550   31.8800   11.5520 O.2   429  LEU429     -0.2867
     36  CB        21.9990   32.4390    8.4210 C.3   429  LEU429      0.0270
     37  CG        21.6400   33.4870    7.3670 C.3   429  LEU429      0.0019
     38  CD1       20.4790   32.9770    6.5160 C.3   429  LEU429      0.0001
     39  CD2       21.2850   34.7980    8.0290 C.3   429  LEU429      0.0001
     40  N         23.6540   32.0640   14.1230 N.3   432  LEU432     -0.1245
     41  CA        22.5530   32.5840   14.9400 C.3   432  LEU432      0.1561
     42  C         21.7610   31.4630   15.6040 C.2   432  LEU432      0.2260
     43  O         20.9150   31.7060   16.4590 O.2   432  LEU432     -0.2867
     44  CB        21.6060   33.4150   14.0790 C.3   432  LEU432      0.0270
     45  CG        22.2050   34.6610   13.4380 C.3   432  LEU432      0.0019
     46  CD1       21.2290   35.2640   12.4390 C.3   432  LEU432      0.0001
     47  CD2       22.5700   35.6750   14.5160 C.3   432  LEU432      0.0001
     48  N         17.7390   30.4660   20.7460 N.3   437  SER437     -0.1217
     49  CA        17.1440   31.1370   19.5850 C.3   437  SER437      0.1889
     50  C         16.3450   30.2190   18.6490 C.2   437  SER437      0.2288
     51  O         15.7610   30.6930   17.6640 O.2   437  SER437     -0.2866
     52  CB        18.2290   31.8480   18.7740 C.3   437  SER437      0.2089
     53  OG        18.9530   30.9440   17.9690 O.3   437  SER437     -0.2183
     54  N         12.7640   31.0890   17.2910 N.3   440  ALA440     -0.1231
     55  CA        12.7780   32.3500   16.5550 C.3   440  ALA440      0.1694
     56  C         13.5070   32.1780   15.2240 C.2   440  ALA440      0.2592
     57  O         13.1160   32.7540   14.2010 O.2   440  ALA440     -0.2718
     58  CB        13.4310   33.4670   17.3980 C.3   440  ALA440      0.0304
     59  N         14.5730   31.3860   15.2510 N.am  441  TYR441     -0.1976
     60  CA        15.3410   31.1040   14.0470 C.3   441  TYR441      0.1639
     61  C         14.4750   30.4340   13.0050 C.2   441  TYR441      0.2290
     62  O         14.4110   30.8780   11.8660 O.2   441  TYR441     -0.2864
     63  CB        16.5310   30.2180   14.3860 C.3   441  TYR441      0.0560
     64  CG        17.4830   29.9380   13.2490 C.ar  441  TYR441     -0.0198
     65  CD1       17.2420   28.9050   12.3480 C.ar  441  TYR441     -0.0009
     66  CD2       18.6450   30.6840   13.0950 C.ar  441  TYR441     -0.0009
     67  CE1       18.1210   28.6430   11.3150 C.ar  441  TYR441      0.0417
     68  CE2       19.5330   30.4160   12.0670 C.ar  441  TYR441      0.0417
     69  CZ        19.2630   29.3930   11.1790 C.ar  441  TYR441      0.1957
     70  OH        20.1370   29.1160   10.1520 O.3   441  TYR441     -0.2866
     71  N         11.3040   32.8500   11.9130 N.3   444  TYR444     -0.1227
     72  CA        11.6640   34.0450   11.1590 C.3   444  TYR444      0.1736
     73  C         12.1080   33.6520    9.7550 C.2   444  TYR444      0.2595
     74  O         11.5400   34.1100    8.7610 O.2   444  TYR444     -0.2718
     75  CB        12.7490   34.8170   11.9220 C.3   444  TYR444      0.0548
     76  CG        13.3590   36.0180   11.2380 C.ar  444  TYR444     -0.0200
     77  CD1       12.7780   37.2840   11.3370 C.ar  444  TYR444     -0.0009
     78  CD2       14.5490   35.8980   10.5320 C.ar  444  TYR444     -0.0009
     79  CE1       13.3610   38.3880   10.7140 C.ar  444  TYR444      0.0417
     80  CE2       15.1330   36.9880    9.9120 C.ar  444  TYR444      0.0417
     81  CZ        14.5420   38.2230   10.0070 C.ar  444  TYR444      0.1957
     82  OH        15.1500   39.2800    9.3820 O.3   444  TYR444     -0.2866
     83  N         13.0900   32.7610    9.6580 N.am  445  PHE445     -0.1976
     84  CA        13.5920   32.4040    8.3340 C.3   445  PHE445      0.1639
     85  C         12.5820   31.5490    7.5750 C.2   445  PHE445      0.2290
     86  O         12.5260   31.5850    6.3470 O.2   445  PHE445     -0.2864
     87  CB        14.9540   31.7150    8.4410 C.3   445  PHE445      0.0560
     88  CG        16.0560   32.6460    8.8810 C.ar  445  PHE445     -0.0200
     89  CD1       16.5140   33.6430    8.0280 C.ar  445  PHE445     -0.0042
     90  CD2       16.6360   32.5310   10.1380 C.ar  445  PHE445     -0.0042
     91  CE1       17.5270   34.5080    8.4140 C.ar  445  PHE445     -0.0003
     92  CE2       17.6550   33.4110   10.5370 C.ar  445  PHE445     -0.0003
     93  CZ        18.0950   34.3960    9.6710 C.ar  445  PHE445     -0.0000
     94  N          8.4410   35.6730    0.6940 N.3   452  LEU452     -0.1245
     95  CA         9.1360   35.9470   -0.5590 C.3   452  LEU452      0.1561
     96  C          8.6350   35.0140   -1.6480 C.2   452  LEU452      0.2260
     97  O          8.7070   35.3280   -2.8330 O.2   452  LEU452     -0.2867
     98  CB        10.6520   35.8120   -0.3830 C.3   452  LEU452      0.0270
     99  CG        11.2620   36.9640    0.4170 C.3   452  LEU452      0.0019
    100  CD1       12.7440   36.7740    0.6960 C.3   452  LEU452      0.0001
    101  CD2       11.0280   38.2680   -0.3170 C.3   452  LEU452      0.0001
@<TRIPOS>BOND
     1     1     2    1
     2     6     8    1
     3     6     5    1
     4     2     5    1
     5     2     3    1
     6     5     7    1
     7     3     4    2
     8    15    13    1
     9     9    10    1
    10    10    13    1
    11    10    11    1
    12    13    14    1
    13    97    96    2
    14    11    16   am
    15    11    12    2
    16    16    17    1
    17    96    95    1
    18    95    98    1
    19    95    94    1
    20    22    21    1
    21    17    20    1
    22    17    18    1
    23    98    99    1
    24    20    21    1
    25    18    19    2
    26    21    23    1
    27   101    99    1
    28    99   100    1
    29    24    25    1
    30    31    29    1
    31    28    25    1
    32    28    29    1
    33    25    26    1
    34    29    30    1
    35    26    27    2
    36    86    85    2
    37    38    37    1
    38    37    39    1
    39    37    36    1
    40    85    84    1
    41    89    91   ar
    42    89    88   ar
    43    84    87    1
    44    84    83    1
    45    91    93   ar
    46    36    33    1
    47    87    88    1
    48    32    33    1
    49    74    73    2
    50    88    90   ar
    51    82    81    1
    52    33    34    1
    53    83    73   am
    54    93    92   ar
    55    73    72    1
    56    80    81   ar
    57    80    78   ar
    58    81    79   ar
    59    90    92   ar
    60    70    69    1
    61    34    35    2
    62    78    76   ar
    63    79    77   ar
    64    72    71    1
    65    72    75    1
    66    69    67   ar
    67    69    68   ar
    68    76    77   ar
    69    76    75    1
    70    67    65   ar
    71    62    61    2
    72    68    66   ar
    73    65    64   ar
    74    46    45    1
    75    61    60    1
    76    66    64   ar
    77    64    63    1
    78    45    44    1
    79    45    47    1
    80    60    63    1
    81    60    59    1
    82    44    41    1
    83    40    41    1
    84    57    56    2
    85    41    42    1
    86    56    59   am
    87    56    55    1
    88    42    43    2
    89    55    54    1
    90    55    58    1
    91    51    50    2
    92    53    52    1
    93    50    49    1
    94    52    49    1
    95    49    48    1
