@<TRIPOS>MOLECULE
tmp/4xnjA01.pdb
 107 102 0 0 0
SMALL
GASTEIGER

@<TRIPOS>ATOM
      1  N         44.5640   41.5180   -0.2400 N.3   230  ILE230     -0.1245
      2  CA        43.4640   41.7200    0.6890 C.3   230  ILE230      0.1561
      3  C         43.7640   41.0420    2.0200 C.2   230  ILE230      0.2260
      4  O         43.5080   41.5980    3.0880 O.2   230  ILE230     -0.2867
      5  CB        42.1490   41.1960    0.1080 C.3   230  ILE230      0.0252
      6  CG1       41.6980   42.1090   -1.0280 C.3   230  ILE230      0.0019
      7  CG2       41.0620   41.0940    1.1850 C.3   230  ILE230      0.0019
      8  CD1       40.5110   41.5470   -1.8080 C.3   230  ILE230      0.0001
      9  N         44.1860   42.9000    5.6250 N.3   234  MET234     -0.1245
     10  CA        43.3260   42.3600    6.6750 C.3   234  MET234      0.1570
     11  C         44.1170   42.1540    7.9450 C.2   234  MET234      0.2261
     12  O         43.6940   42.5570    9.0250 O.2   234  MET234     -0.2867
     13  CB        42.6990   41.0330    6.2460 C.3   234  MET234      0.0387
     14  CG        41.3200   41.1520    5.6400 C.3   234  MET234      0.0595
     15  SD        40.6640   39.5430    5.1280 S.3   234  MET234     -0.1393
     16  CE        40.5370   38.6450    6.6660 C.3   234  MET234      0.0692
     17  N         44.3330   43.9550   11.8350 N.3   238  GLY238     -0.1210
     18  CA        43.9500   43.0730   12.9220 C.3   238  GLY238      0.1956
     19  C         42.6910   42.2510   12.7150 C.2   238  GLY238      0.2611
     20  O         42.1630   41.6710   13.6650 O.2   238  GLY238     -0.2717
     21  N         42.2030   42.2020   11.4810 N.am  239  TRP239     -0.1976
     22  CA        41.0830   41.3300   11.1360 C.3   239  TRP239      0.1640
     23  C         41.5850   39.9550   10.6910 C.2   239  TRP239      0.2290
     24  O         41.5040   39.6040    9.5210 O.2   239  TRP239     -0.2864
     25  CB        40.2400   41.9720   10.0400 C.3   239  TRP239      0.0576
     26  CG        39.5460   43.2080   10.5010 C.ar  239  TRP239      0.0006
     27  CD1       39.3500   43.6060   11.7960 C.ar  239  TRP239      0.0946
     28  CD2       38.9580   44.2180    9.6790 C.ar  239  TRP239      0.0152
     29  NE1       38.6680   44.7930   11.8270 N.ar  239  TRP239     -0.2442
     30  CE2       38.4170   45.1930   10.5400 C.ar  239  TRP239      0.0810
     31  CE3       38.8330   44.3930    8.2990 C.ar  239  TRP239      0.0012
     32  CZ2       37.7650   46.3320   10.0610 C.ar  239  TRP239      0.0191
     33  CZ3       38.1830   45.5200    7.8260 C.ar  239  TRP239      0.0001
     34  CH2       37.6580   46.4730    8.7040 C.ar  239  TRP239      0.0015
     35  N         41.0200   36.8100   12.5290 N.3   241  SER241     -0.1217
     36  CA        40.3860   35.6800   13.1910 C.3   241  SER241      0.1889
     37  C         39.7560   34.7680   12.1430 C.2   241  SER241      0.2288
     38  O         39.5450   35.1860   11.0040 O.2   241  SER241     -0.2866
     39  CB        39.3320   36.1610   14.1800 C.3   241  SER241      0.2089
     40  OG        38.3020   36.8520   13.4980 O.3   241  SER241     -0.2183
     41  N         36.6580   33.7920   12.0070 N.3   243  PRO243     -0.2102
     42  CA        35.4530   34.4710   11.5210 C.3   243  PRO243      0.1504
     43  C         35.7130   35.5500   10.4750 C.2   243  PRO243      0.2575
     44  O         34.8710   35.7280    9.6010 O.2   243  PRO243     -0.2718
     45  CB        34.8750   35.0960   12.7950 C.3   243  PRO243      0.0282
     46  CG        35.2530   34.1320   13.8490 C.3   243  PRO243      0.0208
     47  CD        36.6480   33.6950   13.4820 C.3   243  PRO243      0.0893
     48  N         36.8390   36.2550   10.5540 N.am  244  ALA244     -0.1980
     49  CA        37.1520   37.2770    9.5620 C.3   244  ALA244      0.1597
     50  C         37.4190   36.6630    8.1840 C.2   244  ALA244      0.2287
     51  O         36.9620   37.1790    7.1570 O.2   244  ALA244     -0.2864
     52  CB        38.3460   38.1090   10.0170 C.3   244  ALA244      0.0319
     53  N         34.2380   35.5160    6.7870 N.3   247  ASN247     -0.1225
     54  CA        33.6030   36.7120    6.2650 C.3   247  ASN247      0.1785
     55  C         34.1600   37.1170    4.9010 C.2   247  ASN247      0.2597
     56  O         33.4060   37.4860    4.0110 O.2   247  ASN247     -0.2718
     57  CB        33.7520   37.8600    7.2640 C.3   247  ASN247      0.1169
     58  CG        32.7350   37.7890    8.3810 C.2   247  ASN247      0.2627
     59  OD1       31.8710   38.6500    8.4990 O.2   247  ASN247     -0.2716
     60  ND2       32.8240   36.7590    9.1980 N.am  247  ASN247     -0.0877
     61  N         35.4760   37.0410    4.7320 N.am  248  LEU248     -0.1980
     62  CA        36.0900   37.3950    3.4560 C.3   248  LEU248      0.1596
     63  C         35.6190   36.4490    2.3430 C.2   248  LEU248      0.2287
     64  O         35.3180   36.8750    1.2240 O.2   248  LEU248     -0.2864
     65  CB        37.6140   37.3680    3.5760 C.3   248  LEU248      0.0297
     66  CG        38.4580   37.3340    2.2880 C.3   248  LEU248      0.0022
     67  CD1       38.4030   38.6600    1.5130 C.3   248  LEU248      0.0001
     68  CD2       39.8990   36.9550    2.5960 C.3   248  LEU248      0.0001
     69  N         32.0880   37.3340    1.3330 N.3   251  ILE251     -0.1231
     70  CA        32.0290   38.5020    0.4660 C.3   251  ILE251      0.1692
     71  C         32.3930   38.1310   -0.9670 C.2   251  ILE251      0.2591
     72  O         31.7200   38.5340   -1.9110 O.2   251  ILE251     -0.2718
     73  CB        32.9610   39.6160    0.9970 C.3   251  ILE251      0.0266
     74  CG1       32.3500   40.2540    2.2530 C.3   251  ILE251      0.0019
     75  CG2       33.1990   40.6670   -0.0610 C.3   251  ILE251      0.0020
     76  CD1       33.3800   40.6720    3.2830 C.3   251  ILE251      0.0001
     77  N         33.4410   37.3330   -1.1270 N.am  252  VAL252     -0.1980
     78  CA        33.8730   36.9220   -2.4560 C.3   252  VAL252      0.1595
     79  C         32.7920   36.1190   -3.1670 C.2   252  VAL252      0.2287
     80  O         32.5530   36.2810   -4.3660 O.2   252  VAL252     -0.2864
     81  CB        35.1480   36.0790   -2.3910 C.3   252  VAL252      0.0276
     82  CG1       35.4810   35.5100   -3.7760 C.3   252  VAL252      0.0022
     83  CG2       36.3070   36.9040   -1.8160 C.3   252  VAL252      0.0022
     84  N         29.9770   38.5330   -4.0710 N.3   255  ALA255     -0.1231
     85  CA        30.3870   39.5490   -5.0290 C.3   255  ALA255      0.1694
     86  C         30.3970   39.0120   -6.4540 C.2   255  ALA255      0.2591
     87  O         30.0030   39.7240   -7.3780 O.2   255  ALA255     -0.2718
     88  CB        31.7450   40.1090   -4.6620 C.3   255  ALA255      0.0304
     89  N         30.8070   37.7550   -6.6290 N.am  256  ILE256     -0.1980
     90  CA        30.9160   37.1800   -7.9720 C.3   256  ILE256      0.1595
     91  C         29.6040   37.2740   -8.7820 C.2   256  ILE256      0.2287
     92  O         29.6180   37.7610   -9.9100 O.2   256  ILE256     -0.2864
     93  CB        31.4140   35.7090   -7.9200 C.3   256  ILE256      0.0276
     94  CG1       32.8900   35.6730   -7.5150 C.3   256  ILE256      0.0022
     95  CG2       31.2210   35.0480   -9.2610 C.3   256  ILE256      0.0022
     96  CD1       33.4550   34.3090   -7.3370 C.3   256  ILE256      0.0001
     97  N         28.7870   41.2270   -9.0930 N.3   259  PHE259     -0.1241
     98  CA        29.5600   41.8420  -10.1680 C.3   259  PHE259      0.1605
     99  C         29.0090   41.4620  -11.5500 C.2   259  PHE259      0.2264
    100  O         28.8560   42.3240  -12.4130 O.2   259  PHE259     -0.2867
    101  CB        31.0410   41.4630  -10.0550 C.3   259  PHE259      0.0534
    102  CG        31.8080   42.3010   -9.0610 C.ar  259  PHE259     -0.0203
    103  CD1       31.1420   43.1470   -8.1860 C.ar  259  PHE259     -0.0042
    104  CD2       33.1920   42.2530   -9.0080 C.ar  259  PHE259     -0.0042
    105  CE1       31.8390   43.9210   -7.2710 C.ar  259  PHE259     -0.0003
    106  CE2       33.8950   43.0300   -8.0940 C.ar  259  PHE259     -0.0003
    107  CZ        33.2150   43.8620   -7.2270 C.ar  259  PHE259     -0.0000
@<TRIPOS>BOND
     1   100    99    2
     2    99    98    1
     3    98   101    1
     4    98    97    1
     5   101   102    1
     6    92    91    2
     7    95    93    1
     8   102   104   ar
     9   102   103   ar
    10   104   106   ar
    11    91    90    1
    12   103   105   ar
    13   106   107   ar
    14    90    93    1
    15    90    89    1
    16    93    94    1
    17    94    96    1
    18    87    86    2
    19   105   107   ar
    20    89    86   am
    21    86    85    1
    22    85    88    1
    23    85    84    1
    24    80    79    2
    25    82    81    1
    26    79    78    1
    27    78    81    1
    28    78    77    1
    29    81    83    1
    30    72    71    2
    31     8     6    1
    32    77    71   am
    33     6     5    1
    34    71    70    1
    35     1     2    1
    36    75    73    1
    37     5     2    1
    38     5     7    1
    39    70    73    1
    40    70    69    1
    41     2     3    1
    42    73    74    1
    43    64    63    2
    44    67    66    1
    45     3     4    2
    46    74    76    1
    47    66    68    1
    48    66    65    1
    49    63    62    1
    50    62    65    1
    51    62    61    1
    52    56    55    2
    53    61    55   am
    54    55    54    1
    55    15    14    1
    56    15    16    1
    57     9    10    1
    58    14    13    1
    59    13    10    1
    60    54    53    1
    61    54    57    1
    62    10    11    1
    63    51    50    2
    64    57    58    1
    65    33    31   ar
    66    33    34   ar
    67    11    12    2
    68    50    49    1
    69    31    28   ar
    70    58    59    2
    71    58    60   am
    72    34    32   ar
    73    24    23    2
    74    49    52    1
    75    49    48    1
    76    44    43    2
    77    28    26   ar
    78    28    30   ar
    79    25    26    1
    80    25    22    1
    81    32    30   ar
    82    43    48   am
    83    43    42    1
    84    26    27   ar
    85    30    29   ar
    86    23    22    1
    87    38    37    2
    88    22    21    1
    89    21    19   am
    90    42    41    1
    91    42    45    1
    92    27    29   ar
    93    17    18    1
    94    41    47    1
    95    37    36    1
    96    35    36    1
    97    19    18    1
    98    19    20    2
    99    45    46    1
   100    36    39    1
   101    47    46    1
   102    40    39    1
