@<TRIPOS>MOLECULE
tmp/4xnjA08.pdb
 127 126 0 0 0
SMALL
GASTEIGER

@<TRIPOS>ATOM
      1  N         23.0200    8.5690   -0.2680 N.3   156  PHE156     -0.1241
      2  CA        22.1000    7.9030    0.6500 C.3   156  PHE156      0.1605
      3  C         22.7790    6.8800    1.5720 C.2   156  PHE156      0.2264
      4  O         22.5210    6.8670    2.7740 O.2   156  PHE156     -0.2867
      5  CB        20.9740    7.2140   -0.1200 C.3   156  PHE156      0.0534
      6  CG        20.1160    6.3150    0.7440 C.ar  156  PHE156     -0.0203
      7  CD1       19.2580    6.8550    1.6920 C.ar  156  PHE156     -0.0042
      8  CD2       20.1610    4.9340    0.5960 C.ar  156  PHE156     -0.0042
      9  CE1       18.4790    6.0300    2.4880 C.ar  156  PHE156     -0.0003
     10  CE2       19.3690    4.1050    1.3910 C.ar  156  PHE156     -0.0003
     11  CZ        18.5270    4.6530    2.3350 C.ar  156  PHE156     -0.0000
     12  N         24.9860    6.1620    6.3340 N.3   160  LEU160     -0.1245
     13  CA        24.6270    4.9490    7.0550 C.3   160  LEU160      0.1561
     14  C         25.8830    4.1900    7.4100 C.2   160  LEU160      0.2260
     15  O         26.0660    3.8080    8.5590 O.2   160  LEU160     -0.2867
     16  CB        23.6830    4.0680    6.2240 C.3   160  LEU160      0.0270
     17  CG        22.4480    4.7820    5.6440 C.3   160  LEU160      0.0019
     18  CD1       21.5920    3.8200    4.7960 C.3   160  LEU160      0.0001
     19  CD2       21.6070    5.4210    6.7520 C.3   160  LEU160      0.0001
     20  N         15.6410   12.4070   20.4340 N.3   308  ASP308     -0.1239
     21  CA        16.1000   11.1980   21.1050 C.3   308  ASP308      0.1674
     22  C         16.4210   10.1640   20.0520 C.2   308  ASP308      0.2266
     23  O         15.5410    9.5250   19.4770 O.2   308  ASP308     -0.2867
     24  CB        15.1130   10.6100   22.1080 C.3   308  ASP308      0.1410
     25  CG        15.7760    9.5290   22.9780 C.2   308  ASP308      0.3668
     26  OD1       16.6050    9.8960   23.8440 O.co2 308  ASP308     -0.2456
     27  OD2       15.5340    8.3190   22.7450 O.co2 308  ASP308     -0.2456
     28  N         19.3420    5.2710   20.1160 N.3   311  TRP311     -0.1227
     29  CA        19.4760    3.9210   19.5870 C.3   311  TRP311      0.1737
     30  C         20.0480    3.8420   18.1770 C.2   311  TRP311      0.2595
     31  O         20.1580    2.7480   17.6340 O.2   311  TRP311     -0.2718
     32  CB        18.1230    3.1860   19.6410 C.3   311  TRP311      0.0564
     33  CG        16.9310    3.9770   19.1740 C.ar  311  TRP311      0.0003
     34  CD1       16.2620    4.9490   19.8730 C.ar  311  TRP311      0.0946
     35  CD2       16.2280    3.8250   17.9330 C.ar  311  TRP311      0.0152
     36  NE1       15.2100    5.4260   19.1300 N.ar  311  TRP311     -0.2442
     37  CE2       15.1650    4.7500   17.9400 C.ar  311  TRP311      0.0810
     38  CE3       16.4030    3.0050   16.8150 C.ar  311  TRP311      0.0012
     39  CZ2       14.2800    4.8760   16.8730 C.ar  311  TRP311      0.0191
     40  CZ3       15.5250    3.1320   15.7540 C.ar  311  TRP311      0.0001
     41  CH2       14.4750    4.0620   15.7910 C.ar  311  TRP311      0.0015
     42  N         20.4240    4.9710   17.5750 N.am  312  PHE312     -0.1976
     43  CA        21.0900    4.9020   16.2680 C.3   312  PHE312      0.1639
     44  C         21.9530    6.1270   16.0190 C.2   312  PHE312      0.2290
     45  O         21.7570    7.1440   16.6470 O.2   312  PHE312     -0.2864
     46  CB        20.0610    4.7130   15.1390 C.3   312  PHE312      0.0560
     47  CG        19.2000    5.9150   14.8860 C.ar  312  PHE312     -0.0200
     48  CD1       18.0190    6.0970   15.5940 C.ar  312  PHE312     -0.0042
     49  CD2       19.5550    6.8570   13.9250 C.ar  312  PHE312     -0.0042
     50  CE1       17.2100    7.2050   15.3590 C.ar  312  PHE312     -0.0003
     51  CE2       18.7590    7.9690   13.6850 C.ar  312  PHE312     -0.0003
     52  CZ        17.5820    8.1410   14.3960 C.ar  312  PHE312     -0.0000
     53  N         22.8410    9.5440   10.6860 N.3   316  TRP316     -0.1227
     54  CA        21.9840    8.8670    9.7020 C.3   316  TRP316      0.1737
     55  C         20.8450    9.7610    9.1880 C.2   316  TRP316      0.2595
     56  O         20.2570    9.4830    8.1530 O.2   316  TRP316     -0.2718
     57  CB        21.3890    7.5960   10.2980 C.3   316  TRP316      0.0564
     58  CG        22.3600    6.4570   10.4180 C.ar  316  TRP316      0.0003
     59  CD1       23.7010    6.4850   10.1610 C.ar  316  TRP316      0.0946
     60  CD2       22.0650    5.1280   10.8520 C.ar  316  TRP316      0.0152
     61  NE1       24.2510    5.2580   10.3960 N.ar  316  TRP316     -0.2442
     62  CE2       23.2640    4.3990   10.8180 C.ar  316  TRP316      0.0810
     63  CE3       20.8970    4.4820   11.2570 C.ar  316  TRP316      0.0012
     64  CZ2       23.3370    3.0470   11.1720 C.ar  316  TRP316      0.0191
     65  CZ3       20.9630    3.1370   11.6080 C.ar  316  TRP316      0.0001
     66  CH2       22.1800    2.4360   11.5690 C.ar  316  TRP316      0.0015
     67  N         20.5300   10.8230    9.9220 N.am  317  PHE317     -0.1976
     68  CA        19.5050   11.7670    9.4830 C.3   317  PHE317      0.1639
     69  C         19.8930   12.3830    8.1470 C.2   317  PHE317      0.2290
     70  O         19.0230   12.7490    7.3540 O.2   317  PHE317     -0.2864
     71  CB        19.2720   12.8720   10.5230 C.3   317  PHE317      0.0560
     72  CG        18.3820   12.4520   11.6520 C.ar  317  PHE317     -0.0200
     73  CD1       17.0080   12.4480   11.4970 C.ar  317  PHE317     -0.0042
     74  CD2       18.9120   12.0400   12.8590 C.ar  317  PHE317     -0.0042
     75  CE1       16.1750   12.0480   12.5310 C.ar  317  PHE317     -0.0003
     76  CE2       18.0860   11.6430   13.8930 C.ar  317  PHE317     -0.0003
     77  CZ        16.7130   11.6500   13.7240 C.ar  317  PHE317     -0.0000
     78  N         20.6530   10.9890    5.6340 N.3   319  SER319     -0.1202
     79  CA        20.2820   10.1260    4.5140 C.3   319  SER319      0.2020
     80  C         18.8780   10.4340    4.0370 C.2   319  SER319      0.2618
     81  O         18.4860    9.9930    2.9650 O.2   319  SER319     -0.2717
     82  CB        20.3740    8.6420    4.8900 C.3   319  SER319      0.2103
     83  OG        21.7150    8.1990    4.9210 O.3   319  SER319     -0.2182
     84  N         18.1160   11.1690    4.8460 N.am  320  LEU320     -0.1979
     85  CA        16.7350   11.4890    4.5110 C.3   320  LEU320      0.1596
     86  C         16.6490   12.3880    3.2710 C.2   320  LEU320      0.2287
     87  O         15.7410   12.2480    2.4520 O.2   320  LEU320     -0.2864
     88  CB        16.0540   12.1590    5.6930 C.3   320  LEU320      0.0297
     89  CG        15.8220   11.2800    6.9170 C.3   320  LEU320      0.0022
     90  CD1       15.4930   12.1410    8.1100 C.3   320  LEU320      0.0001
     91  CD2       14.7000   10.2980    6.6680 C.3   320  LEU320      0.0001
     92  N         17.2740   10.2320    0.2200 N.3   323  LEU323     -0.1245
     93  CA        16.1580    9.2840    0.1720 C.3   323  LEU323      0.1561
     94  C         14.9120    9.9550   -0.4250 C.2   323  LEU323      0.2260
     95  O         14.2350    9.3890   -1.2830 O.2   323  LEU323     -0.2867
     96  CB        15.8350    8.7290    1.5570 C.3   323  LEU323      0.0270
     97  CG        14.6290    7.7820    1.5770 C.3   323  LEU323      0.0019
     98  CD1       14.9710    6.4630    0.8970 C.3   323  LEU323      0.0001
     99  CD2       14.1760    7.5190    2.9910 C.3   323  LEU323      0.0001
    100  N         10.4460   13.8260   18.9140 N.3   378  SER378     -0.1203
    101  CA        10.4360   12.7090   17.9750 C.3   378  SER378      0.2005
    102  C         11.3030   12.9330   16.7340 C.2   378  SER378      0.2461
    103  O         11.3380   14.0320   16.1720 O.2   378  SER378     -0.2732
    104  CB         9.0060   12.4200   17.5400 C.3   378  SER378      0.2103
    105  OG         9.0180   11.5860   16.4010 O.3   378  SER378     -0.2182
    106  N         11.9970   11.8760   16.2860 N.am  379  PRO379     -0.2717
    107  CA        12.7110   11.8940   14.9990 C.3   379  PRO379      0.1535
    108  C         11.8310   12.3200   13.8200 C.2   379  PRO379      0.2598
    109  O         12.3470   12.8390   12.8410 O.2   379  PRO379     -0.2715
    110  CB        13.1510   10.4380   14.8230 C.3   379  PRO379      0.0310
    111  CG        13.2510    9.8970   16.2230 C.3   379  PRO379      0.0237
    112  CD        12.1600   10.5950   17.0000 C.3   379  PRO379      0.0939
    113  N         10.5210   12.1170   13.9140 N.am  380  LEU380     -0.1978
    114  CA         9.6280   12.3780   12.7940 C.3   380  LEU380      0.1596
    115  C          9.4910   13.8760   12.4380 C.2   380  LEU380      0.2287
    116  O          9.1470   14.2150   11.3030 O.2   380  LEU380     -0.2864
    117  CB         8.2570   11.7770   13.0840 C.3   380  LEU380      0.0297
    118  CG         8.2270   10.2460   13.1120 C.3   380  LEU380      0.0022
    119  CD1        6.9000    9.7540   13.6420 C.3   380  LEU380      0.0001
    120  CD2        8.4970    9.6660   11.7300 C.3   380  LEU380      0.0001
    121  N         12.0250   14.2330    9.9040 N.3   383  VAL383     -0.1245
    122  CA        11.6230   13.5060    8.7140 C.3   383  VAL383      0.1561
    123  C         10.6300   14.3620    7.9320 C.2   383  VAL383      0.2260
    124  O         10.7150   14.4610    6.7180 O.2   383  VAL383     -0.2867
    125  CB        10.9820   12.1350    9.0460 C.3   383  VAL383      0.0252
    126  CG1       10.5670   11.4190    7.7540 C.3   383  VAL383      0.0019
    127  CG2       11.9310   11.2520    9.8910 C.3   383  VAL383      0.0019
@<TRIPOS>BOND
     1    95    94    2
     2    94    93    1
     3     1     2    1
     4     5     2    1
     5     5     6    1
     6    93    92    1
     7    93    96    1
     8     8     6   ar
     9     8    10   ar
    10     2     3    1
    11     6     7   ar
    12    98    97    1
    13    10    11   ar
    14    96    97    1
    15     3     4    2
    16    97    99    1
    17     7     9   ar
    18    11     9   ar
    19    87    86    2
    20    81    80    2
    21    86    85    1
    22    80    79    1
    23    80    84   am
    24    85    84    1
    25    85    88    1
    26    79    82    1
    27    79    78    1
    28    18    17    1
    29    82    83    1
    30    17    16    1
    31    17    19    1
    32    88    89    1
    33    16    13    1
    34    12    13    1
    35    91    89    1
    36   124   123    2
    37    89    90    1
    38    13    14    1
    39    70    69    2
    40    14    15    2
    41   126   125    1
    42   123   122    1
    43    69    68    1
    44    56    55    2
    45   122   125    1
    46   122   121    1
    47   125   127    1
    48    55    54    1
    49    55    67   am
    50    68    67    1
    51    68    71    1
    52    54    57    1
    53    54    53    1
    54    59    61   ar
    55    59    58   ar
    56    57    58    1
    57    61    62   ar
    58    58    60   ar
    59    71    72    1
    60    62    60   ar
    61    62    64   ar
    62    60    63   ar
    63    64    66   ar
    64    63    65   ar
    65   116   115    2
    66    73    72   ar
    67    73    75   ar
    68    66    65   ar
    69    72    74   ar
    70   120   118    1
    71   115   114    1
    72    75    77   ar
    73   114   117    1
    74   114   113    1
    75   109   108    2
    76    74    76   ar
    77   117   118    1
    78   118   119    1
    79    51    49   ar
    80    51    52   ar
    81    77    76   ar
    82   108   113   am
    83   108   107    1
    84    49    47   ar
    85    52    50   ar
    86   110   107    1
    87   110   111    1
    88    47    46    1
    89    47    48   ar
    90   107   106    1
    91    46    43    1
    92    50    48   ar
    93    40    41   ar
    94    40    38   ar
    95    41    39   ar
    96    44    43    1
    97    44    45    2
    98   103   102    2
    99   111   112    1
   100    43    42    1
   101   106   102   am
   102   106   112    1
   103   105   104    1
   104   102   101    1
   105    38    35   ar
   106    39    37   ar
   107   104   101    1
   108    42    30   am
   109    31    30    2
   110    35    37   ar
   111    35    33   ar
   112    37    36   ar
   113   101   100    1
   114    30    29    1
   115    36    34   ar
   116    33    32    1
   117    33    34   ar
   118    23    22    2
   119    29    32    1
   120    29    28    1
   121    22    21    1
   122    20    21    1
   123    21    24    1
   124    24    25    1
   125    27    25   ar
   126    25    26   ar
