@<TRIPOS>MOLECULE
tmp/4xnjA04.pdb
 84 78 0 0 0
SMALL
GASTEIGER

@<TRIPOS>ATOM
      1  N         40.5530   11.9080   -2.6350 N.3    92  MET92      -0.1245
      2  CA        41.0480   10.8190   -1.8060 C.3    92  MET92       0.1570
      3  C         42.0880   11.3020   -0.7810 C.2    92  MET92       0.2261
      4  O         42.0400   10.9320    0.3900 O.2    92  MET92      -0.2867
      5  CB        41.6360    9.7300   -2.6980 C.3    92  MET92       0.0387
      6  CG        41.9690    8.4310   -1.9720 C.3    92  MET92       0.0595
      7  SD        42.5960    7.1570   -3.1050 S.3    92  MET92      -0.1393
      8  CE        43.9300    8.0260   -3.9270 C.3    92  MET92       0.0692
      9  N         42.1830   11.0300    3.2010 N.3    96  ILE96      -0.1245
     10  CA        43.3230   10.4110    3.8520 C.3    96  ILE96       0.1561
     11  C         43.9140   11.3520    4.9000 C.2    96  ILE96       0.2260
     12  O         44.2900   10.9300    5.9890 O.2    96  ILE96      -0.2867
     13  CB        44.4100   10.0180    2.8370 C.3    96  ILE96       0.0252
     14  CG1       43.9190    8.8350    1.9900 C.3    96  ILE96       0.0019
     15  CG2       45.6970    9.6380    3.5820 C.3    96  ILE96       0.0019
     16  CD1       44.8480    8.4250    0.8620 C.3    96  ILE96       0.0001
     17  N         42.3080   10.9050    8.0590 N.3    99  ALA99      -0.1245
     18  CA        42.3880    9.5560    8.6210 C.3    99  ALA99       0.1562
     19  C         43.6400    9.4120    9.4800 C.2    99  ALA99       0.2260
     20  O         43.7080    8.5700   10.3660 O.2    99  ALA99      -0.2867
     21  CB        42.3690    8.5200    7.5180 C.3    99  ALA99       0.0290
     22  N         46.6620   10.3220   12.2880 N.3   101  PRO101     -0.2116
     23  CA        46.5040   10.5720   13.7260 C.3   101  PRO101      0.1372
     24  C         46.6160   12.0420   14.0950 C.2   101  PRO101      0.2244
     25  O         46.6490   12.3660   15.2770 O.2   101  PRO101     -0.2868
     26  CB        47.6410    9.7610   14.3540 C.3   101  PRO101      0.0268
     27  CG        48.6790    9.7110   13.2970 C.3   101  PRO101      0.0207
     28  CD        47.9270    9.6240   11.9960 C.3   101  PRO101      0.0892
     29  N         34.2340    2.3760   15.3940 N.3   169  ALA169     -0.1231
     30  CA        35.6930    2.4340   15.4270 C.3   169  ALA169      0.1694
     31  C         36.2840    3.8600   15.4280 C.2   169  ALA169      0.2592
     32  O         37.5050    4.0400   15.2980 O.2   169  ALA169     -0.2718
     33  CB        36.2500    1.6290   14.2460 C.3   169  ALA169      0.0304
     34  N         35.4300    4.8700   15.5650 N.am  170  GLY170     -0.1957
     35  CA        35.9130    6.2280   15.7180 C.3   170  GLY170      0.1869
     36  C         36.0600    7.0260   14.4370 C.2   170  GLY170      0.2309
     37  O         35.9250    6.4950   13.3470 O.2   170  GLY170     -0.2863
     38  N         38.6880    8.5370   12.8160 N.3   172  HIS172     -0.1226
     39  CA        39.7460    8.2620   11.8450 C.3   172  HIS172      0.1752
     40  C         39.4430    7.0390   10.9520 C.2   172  HIS172      0.2595
     41  O         39.6980    7.0680    9.7550 O.2   172  HIS172     -0.2718
     42  CB        41.0820    8.0650   12.5610 C.3   172  HIS172      0.0759
     43  CG        41.6240    9.3150   13.1920 C.ar  172  HIS172      0.0818
     44  ND1       41.5700   10.5440   12.5810 N.ar  172  HIS172     -0.2268
     45  CD2       42.2360    9.5070   14.3830 C.ar  172  HIS172      0.1154
     46  CE1       42.1270   11.4500   13.3710 C.ar  172  HIS172      0.1986
     47  NE2       42.5390   10.8450   14.4630 N.ar  172  HIS172     -0.2212
     48  N         38.8970    5.9730   11.5160 N.am  173  VAL173     -0.1980
     49  CA        38.4620    4.8600   10.6810 C.3   173  VAL173      0.1595
     50  C         37.3110    5.2780    9.7510 C.2   173  VAL173      0.2287
     51  O         37.3350    4.9850    8.5630 O.2   173  VAL173     -0.2864
     52  CB        38.0430    3.6480   11.5190 C.3   173  VAL173      0.0276
     53  CG1       37.4390    2.5530   10.6220 C.3   173  VAL173      0.0022
     54  CG2       39.2430    3.1110   12.2710 C.3   173  VAL173      0.0022
     55  N         38.7190    7.2030    6.9330 N.3   176  SER176     -0.1217
     56  CA        39.4000    6.3120    6.0050 C.3   176  SER176      0.1889
     57  C         38.3990    5.5750    5.0940 C.2   176  SER176      0.2288
     58  O         38.7020    5.2970    3.9350 O.2   176  SER176     -0.2866
     59  CB        40.2760    5.3110    6.7660 C.3   176  SER176      0.2089
     60  OG        39.4810    4.4030    7.4930 O.3   176  SER176     -0.2183
     61  N         37.7750    7.6500    2.2230 N.3   179  ALA179     -0.1231
     62  CA        38.9260    7.6240    1.3320 C.3   179  ALA179      0.1694
     63  C         38.8720    6.3950    0.4210 C.2   179  ALA179      0.2591
     64  O         39.2690    6.4410   -0.7370 O.2   179  ALA179     -0.2718
     65  CB        40.2210    7.6350    2.1450 C.3   179  ALA179      0.0304
     66  N         38.3740    5.3050    0.9790 N.am  180  ILE180     -0.1980
     67  CA        38.3520    4.0210    0.3170 C.3   180  ILE180      0.1595
     68  C         37.2210    4.0810   -0.6940 C.2   180  ILE180      0.2287
     69  O         37.3140    3.5270   -1.7810 O.2   180  ILE180     -0.2864
     70  CB        38.1740    2.8810    1.3610 C.3   180  ILE180      0.0276
     71  CG1       39.4620    2.7250    2.1730 C.3   180  ILE180      0.0022
     72  CG2       37.8160    1.5540    0.7120 C.3   180  ILE180      0.0022
     73  CD1       39.3530    1.7640    3.3680 C.3   180  ILE180      0.0001
     74  N         38.5850    5.7710   -3.5690 N.3   183  PHE183     -0.1241
     75  CA        39.5620    4.8840   -4.1770 C.3   183  PHE183      0.1605
     76  C         38.8770    3.8790   -5.1160 C.2   183  PHE183      0.2264
     77  O         39.2620    3.7430   -6.2770 O.2   183  PHE183     -0.2867
     78  CB        40.3720    4.1670   -3.0940 C.3   183  PHE183      0.0534
     79  CG        41.3810    3.1910   -3.6410 C.ar  183  PHE183     -0.0203
     80  CD1       42.5760    3.6350   -4.1780 C.ar  183  PHE183     -0.0042
     81  CD2       41.1310    1.8220   -3.6050 C.ar  183  PHE183     -0.0042
     82  CE1       43.5080    2.7310   -4.6810 C.ar  183  PHE183     -0.0003
     83  CE2       42.0550    0.9080   -4.0980 C.ar  183  PHE183     -0.0003
     84  CZ        43.2510    1.3630   -4.6360 C.ar  183  PHE183     -0.0000
@<TRIPOS>BOND
     1    77    76    2
     2    76    75    1
     3    82    84   ar
     4    82    80   ar
     5    84    83   ar
     6    80    79   ar
     7    75    74    1
     8    75    78    1
     9    83    81   ar
    10     8     7    1
    11    79    81   ar
    12    79    78    1
    13     7     6    1
    14     5     6    1
    15     5     2    1
    16     1     2    1
    17     2     3    1
    18    69    68    2
    19     3     4    2
    20    64    63    2
    21    68    67    1
    22    67    66    1
    23    67    70    1
    24    63    66   am
    25    63    62    1
    26    72    70    1
    27    16    14    1
    28    62    65    1
    29    62    61    1
    30    70    71    1
    31    14    13    1
    32    71    73    1
    33    13    15    1
    34    13    10    1
    35     9    10    1
    36    10    11    1
    37    58    57    2
    38    11    12    2
    39    57    56    1
    40    56    59    1
    41    56    55    1
    42    59    60    1
    43    21    18    1
    44    17    18    1
    45    51    50    2
    46    18    19    1
    47    19    20    2
    48    50    49    1
    49    41    40    2
    50    53    52    1
    51    49    48    1
    52    49    52    1
    53    40    48   am
    54    40    39    1
    55    52    54    1
    56    39    42    1
    57    39    38    1
    58    28    22    1
    59    28    27    1
    60    22    23    1
    61    42    43    1
    62    44    43   ar
    63    44    46   ar
    64    43    45   ar
    65    27    26    1
    66    37    36    2
    67    46    47   ar
    68    23    24    1
    69    23    26    1
    70    24    25    2
    71    33    30    1
    72    45    47   ar
    73    36    35    1
    74    32    31    2
    75    29    30    1
    76    30    31    1
    77    31    34   am
    78    34    35    1
