@<TRIPOS>MOLECULE
tmp/4xnjA10.pdb
 141 140 0 0 0
SMALL
GASTEIGER

@<TRIPOS>ATOM
      1  N         39.0230   13.7600  -18.9520 N.3    81  ARG81      -0.1231
      2  CA        39.3560   12.4890  -18.3070 C.3    81  ARG81       0.1679
      3  C         40.4760   12.6430  -17.2670 C.2    81  ARG81       0.2434
      4  O         40.3670   12.0930  -16.1700 O.2    81  ARG81      -0.2733
      5  CB        39.6960   11.4160  -19.3610 C.3    81  ARG81       0.0321
      6  CG        38.4510   10.9490  -20.1000 C.3    81  ARG81       0.0489
      7  CD        38.7370   10.0050  -21.2400 C.3    81  ARG81       0.2205
      8  NE        39.4160    8.7830  -20.8200 N.pl3  81  ARG81      -0.0865
      9  CZ        39.7530    7.8110  -21.6590 C.cat  81  ARG81       0.5346
     10  NH1       39.4670    7.9290  -22.9500 N.pl3  81  ARG81       0.1354
     11  NH2       40.3780    6.7300  -21.2120 N.pl3  81  ARG81       0.1354
     12  N         41.5380   13.4000  -17.5910 N.am   82  PRO82      -0.2729
     13  CA        42.5330   13.6390  -16.5410 C.3    82  PRO82       0.1401
     14  C         41.9800   14.4490  -15.3630 C.2    82  PRO82       0.2269
     15  O         42.3870   14.2240  -14.2220 O.2    82  PRO82      -0.2865
     16  CB        43.6260   14.4090  -17.2830 C.3    82  PRO82       0.0296
     17  CG        43.4900   13.9520  -18.7010 C.3    82  PRO82       0.0237
     18  CD        42.0320   13.8300  -18.9130 C.3    82  PRO82       0.0939
     19  N         40.1990   12.1610  -13.0620 N.3    85  PHE85      -0.1227
     20  CA        41.1510   11.2860  -12.3780 C.3    85  PHE85       0.1736
     21  C         41.9420   11.9880  -11.2680 C.2    85  PHE85       0.2595
     22  O         41.9820   11.4930  -10.1380 O.2    85  PHE85      -0.2718
     23  CB        42.1410   10.6490  -13.3630 C.3    85  PHE85       0.0547
     24  CG        43.0950    9.7090  -12.6940 C.ar   85  PHE85      -0.0202
     25  CD1       42.7120    8.4120  -12.3960 C.ar   85  PHE85      -0.0042
     26  CD2       44.3510   10.1290  -12.3130 C.ar   85  PHE85      -0.0042
     27  CE1       43.5670    7.5580  -11.7570 C.ar   85  PHE85      -0.0003
     28  CE2       45.2120    9.2650  -11.6580 C.ar   85  PHE85      -0.0003
     29  CZ        44.8160    7.9810  -11.3850 C.ar   85  PHE85      -0.0000
     30  N         42.5900   13.1140  -11.5910 N.am   86  TRP86      -0.1976
     31  CA        43.3490   13.8550  -10.5920 C.3    86  TRP86       0.1640
     32  C         42.4460   14.5280   -9.5820 C.2    86  TRP86       0.2290
     33  O         42.7940   14.6340   -8.4050 O.2    86  TRP86      -0.2864
     34  CB        44.2710   14.8850  -11.2570 C.3    86  TRP86       0.0576
     35  CG        45.3090   14.1620  -12.0200 C.ar   86  TRP86       0.0006
     36  CD1       45.4420   14.1050  -13.3650 C.ar   86  TRP86       0.0946
     37  CD2       46.3290   13.3170  -11.4750 C.ar   86  TRP86       0.0152
     38  NE1       46.5010   13.2930  -13.7020 N.ar   86  TRP86      -0.2442
     39  CE2       47.0630   12.7990  -12.5560 C.ar   86  TRP86       0.0810
     40  CE3       46.7040   12.9680  -10.1720 C.ar   86  TRP86       0.0012
     41  CZ2       48.1490   11.9440  -12.3820 C.ar   86  TRP86       0.0191
     42  CZ3       47.7810   12.1160   -9.9940 C.ar   86  TRP86       0.0001
     43  CH2       48.4920   11.6110  -11.0940 C.ar   86  TRP86       0.0015
     44  N         41.9160   11.9130   -7.2080 N.3    89  VAL89      -0.1245
     45  CA        43.1050   11.7130   -6.3860 C.3    89  VAL89       0.1561
     46  C         43.1650   12.7540   -5.2740 C.2    89  VAL89       0.2260
     47  O         43.4600   12.4230   -4.1280 O.2    89  VAL89      -0.2867
     48  CB        44.4030   11.7440   -7.2360 C.3    89  VAL89       0.0252
     49  CG1       45.6310   11.8100   -6.3540 C.3    89  VAL89       0.0019
     50  CG2       44.4770   10.4850   -8.0970 C.3    89  VAL89       0.0019
     51  N         40.5530   11.9080   -2.6350 N.3    92  MET92      -0.1245
     52  CA        41.0480   10.8190   -1.8060 C.3    92  MET92       0.1570
     53  C         42.0880   11.3020   -0.7810 C.2    92  MET92       0.2261
     54  O         42.0400   10.9320    0.3900 O.2    92  MET92      -0.2867
     55  CB        41.6360    9.7300   -2.6980 C.3    92  MET92       0.0387
     56  CG        41.9690    8.4310   -1.9720 C.3    92  MET92       0.0595
     57  SD        42.5960    7.1570   -3.1050 S.3    92  MET92      -0.1393
     58  CE        43.9300    8.0260   -3.9270 C.3    92  MET92       0.0692
     59  N         38.5850    5.7710   -3.5690 N.3   183  PHE183     -0.1241
     60  CA        39.5620    4.8840   -4.1770 C.3   183  PHE183      0.1605
     61  C         38.8770    3.8790   -5.1160 C.2   183  PHE183      0.2264
     62  O         39.2620    3.7430   -6.2770 O.2   183  PHE183     -0.2867
     63  CB        40.3720    4.1670   -3.0940 C.3   183  PHE183      0.0534
     64  CG        41.3810    3.1910   -3.6410 C.ar  183  PHE183     -0.0203
     65  CD1       42.5760    3.6350   -4.1780 C.ar  183  PHE183     -0.0042
     66  CD2       41.1310    1.8220   -3.6050 C.ar  183  PHE183     -0.0042
     67  CE1       43.5080    2.7310   -4.6810 C.ar  183  PHE183     -0.0003
     68  CE2       42.0550    0.9080   -4.0980 C.ar  183  PHE183     -0.0003
     69  CZ        43.2510    1.3630   -4.6360 C.ar  183  PHE183     -0.0000
     70  N         37.8770    5.6930   -8.1560 N.3   186  LEU186     -0.1231
     71  CA        39.0030    5.8490   -9.0740 C.3   186  LEU186      0.1693
     72  C         39.2980    4.5370   -9.8000 C.2   186  LEU186      0.2591
     73  O         39.5600    4.5420  -10.9940 O.2   186  LEU186     -0.2718
     74  CB        40.2550    6.3170   -8.3280 C.3   186  LEU186      0.0284
     75  CG        40.3810    7.8210   -8.0850 C.3   186  LEU186      0.0019
     76  CD1       41.5390    8.1300   -7.1280 C.3   186  LEU186      0.0001
     77  CD2       40.5310    8.5790   -9.4070 C.3   186  LEU186      0.0001
     78  N         39.2530    3.4230   -9.0710 N.am  187  LEU187     -0.1980
     79  CA        39.5500    2.1080   -9.6420 C.3   187  LEU187      0.1596
     80  C         38.6180    1.7960  -10.7900 C.2   187  LEU187      0.2287
     81  O         39.0490    1.4180  -11.8720 O.2   187  LEU187     -0.2864
     82  CB        39.4340    1.0010   -8.5850 C.3   187  LEU187      0.0297
     83  CG        40.6810    0.5890   -7.7950 C.3   187  LEU187      0.0022
     84  CD1       40.3880   -0.6280   -6.9150 C.3   187  LEU187      0.0001
     85  CD2       41.8400    0.2860   -8.7260 C.3   187  LEU187      0.0001
     86  N         36.6680    3.8980  -12.3310 N.3   189  TYR189     -0.1227
     87  CA        36.7940    4.9550  -13.3300 C.3   189  TYR189      0.1736
     88  C         37.9680    4.6880  -14.2620 C.2   189  TYR189      0.2595
     89  O         37.8300    4.7260  -15.4730 O.2   189  TYR189     -0.2718
     90  CB        36.9710    6.3300  -12.6750 C.3   189  TYR189      0.0548
     91  CG        37.3200    7.3840  -13.6930 C.ar  189  TYR189     -0.0200
     92  CD1       36.3740    7.8090  -14.6160 C.ar  189  TYR189     -0.0009
     93  CD2       38.6020    7.9150  -13.7730 C.ar  189  TYR189     -0.0009
     94  CE1       36.6740    8.7480  -15.5620 C.ar  189  TYR189      0.0417
     95  CE2       38.9160    8.8770  -14.7240 C.ar  189  TYR189      0.0417
     96  CZ        37.9410    9.2910  -15.6150 C.ar  189  TYR189      0.1957
     97  OH        38.2210   10.2280  -16.5860 O.3   189  TYR189     -0.2866
     98  N         39.1260    4.4050  -13.6850 N.am  190  TYR190     -0.1962
     99  CA        40.3290    4.2650  -14.4820 C.3   190  TYR190      0.1771
    100  C         40.1920    3.1190  -15.5000 C.2   190  TYR190      0.2619
    101  O         40.2500    3.3350  -16.7070 O.2   190  TYR190     -0.2715
    102  CB        41.5510    4.0540  -13.5740 C.3   190  TYR190      0.0574
    103  CG        42.8320    3.9300  -14.3690 C.ar  190  TYR190     -0.0198
    104  CD1       43.4750    5.0540  -14.8670 C.ar  190  TYR190     -0.0009
    105  CD2       43.3800    2.6800  -14.6520 C.ar  190  TYR190     -0.0009
    106  CE1       44.6290    4.9420  -15.6200 C.ar  190  TYR190      0.0417
    107  CE2       44.5430    2.5580  -15.3950 C.ar  190  TYR190      0.0417
    108  CZ        45.1610    3.6900  -15.8830 C.ar  190  TYR190      0.1957
    109  OH        46.3080    3.5630  -16.6300 O.3   190  TYR190     -0.2866
    110  N         39.9740    1.9070  -15.0080 N.am  191  PHE191     -0.1974
    111  CA        39.8920    0.7400  -15.8760 C.3   191  PHE191      0.1639
    112  C         38.6220    0.7070  -16.7170 C.2   191  PHE191      0.2290
    113  O         38.6600    0.3430  -17.8850 O.2   191  PHE191     -0.2864
    114  CB        40.0130   -0.5260  -15.0400 C.3   191  PHE191      0.0560
    115  CG        41.3490   -0.6730  -14.3990 C.ar  191  PHE191     -0.0200
    116  CD1       42.4480   -1.0480  -15.1520 C.ar  191  PHE191     -0.0042
    117  CD2       41.5240   -0.3940  -13.0590 C.ar  191  PHE191     -0.0042
    118  CE1       43.6910   -1.1700  -14.5780 C.ar  191  PHE191     -0.0003
    119  CE2       42.7720   -0.5070  -12.4770 C.ar  191  PHE191     -0.0003
    120  CZ        43.8560   -0.8930  -13.2420 C.ar  191  PHE191     -0.0000
    121  N         37.0040    3.2720  -17.7520 N.3   193  GLY193     -0.1210
    122  CA        37.0880    4.3850  -18.6860 C.3   193  GLY193      0.1956
    123  C         37.8750    4.0380  -19.9290 C.2   193  GLY193      0.2611
    124  O         37.4580    4.3320  -21.0410 O.2   193  GLY193     -0.2717
    125  N         39.0180    3.3960  -19.7320 N.am  194  LYS194     -0.1979
    126  CA        39.8360    2.9230  -20.8430 C.3   194  LYS194      0.1596
    127  C         39.1020    2.0240  -21.8380 C.2   194  LYS194      0.2287
    128  O         39.4660    1.9600  -23.0080 O.2   194  LYS194     -0.2864
    129  CB        41.0450    2.1650  -20.3210 C.3   194  LYS194      0.0298
    130  CG        42.1380    3.0470  -19.7730 C.3   194  LYS194      0.0038
    131  CD        43.3300    2.1800  -19.4080 C.3   194  LYS194      0.0206
    132  CE        44.6310    2.9600  -19.5600 C.3   194  LYS194      0.1093
    133  NZ        45.7220    2.4090  -18.7010 N.3   194  LYS194     -0.1314
    134  N         40.9150   12.4950  -23.4240 N.3   202  LEU202     -0.1245
    135  CA        42.2140   12.5150  -22.7610 C.3   202  LEU202      0.1561
    136  C         42.9030   13.8710  -22.9230 C.2   202  LEU202      0.2260
    137  O         43.7460   14.2410  -22.1130 O.2   202  LEU202     -0.2867
    138  CB        43.1150   11.4090  -23.3070 C.3   202  LEU202      0.0270
    139  CG        42.6060   10.0190  -22.9170 C.3   202  LEU202      0.0019
    140  CD1       43.3050    8.9400  -23.7120 C.3   202  LEU202      0.0001
    141  CD2       42.7890    9.7990  -21.4210 C.3   202  LEU202      0.0001
@<TRIPOS>BOND
     1   140   139    1
     2   134   135    1
     3   138   139    1
     4   138   135    1
     5   128   127    2
     6    10     9    1
     7   136   135    1
     8   136   137    2
     9   139   141    1
    10   127   126    1
    11     9    11    1
    12     9     8    2
    13     7     8    1
    14     7     6    1
    15   124   123    2
    16   126   129    1
    17   126   125    1
    18   129   130    1
    19     6     5    1
    20   123   125   am
    21   123   122    1
    22   130   131    1
    23   132   131    1
    24   132   133    1
    25     5     2    1
    26     1     2    1
    27    18    17    1
    28    18    12    1
    29    17    16    1
    30   122   121    1
    31     2     3    1
    32   113   112    2
    33    12     3   am
    34    12    13    1
    35    16    13    1
    36     3     4    2
    37   112   111    1
    38   101   100    2
    39   109   108    1
    40    97    96    1
    41    13    14    1
    42   108   106   ar
    43   108   107   ar
    44   111   114    1
    45   111   110    1
    46   106   104   ar
    47    96    94   ar
    48    96    95   ar
    49    94    92   ar
    50   100   110   am
    51   100    99    1
    52    89    88    2
    53   107   105   ar
    54    14    15    2
    55   116   118   ar
    56   116   115   ar
    57   114   115    1
    58   104   103   ar
    59    95    93   ar
    60   105   103   ar
    61    92    91   ar
    62   118   120   ar
    63    99    98    1
    64    99   102    1
    65   115   117   ar
    66   103   102    1
    67    88    98   am
    68    88    87    1
    69    93    91   ar
    70    38    36   ar
    71    38    39   ar
    72    91    90    1
    73    36    35   ar
    74    23    24    1
    75    23    20    1
    76    87    90    1
    77    87    86    1
    78   120   119   ar
    79    19    20    1
    80   117   119   ar
    81    24    25   ar
    82    24    26   ar
    83    39    41   ar
    84    39    37   ar
    85    25    27   ar
    86    41    43   ar
    87    20    21    1
    88    26    28   ar
    89    35    37   ar
    90    35    34    1
    91    81    80    2
    92    27    29   ar
    93    28    29   ar
    94    30    21   am
    95    30    31    1
    96    37    40   ar
    97    21    22    2
    98    34    31    1
    99    43    42   ar
   100    73    72    2
   101    80    79    1
   102    31    32    1
   103    40    42   ar
   104    72    71    1
   105    72    78   am
   106    79    78    1
   107    79    82    1
   108    32    33    2
   109    77    75    1
   110    71    74    1
   111    71    70    1
   112    85    83    1
   113    82    83    1
   114    74    75    1
   115    50    48    1
   116    75    76    1
   117    83    84    1
   118    48    45    1
   119    48    49    1
   120    44    45    1
   121    45    46    1
   122    62    61    2
   123    46    47    2
   124    61    60    1
   125    67    69   ar
   126    67    65   ar
   127    69    68   ar
   128    65    64   ar
   129    60    59    1
   130    60    63    1
   131    68    66   ar
   132    58    57    1
   133    64    66   ar
   134    64    63    1
   135    57    56    1
   136    55    56    1
   137    55    52    1
   138    51    52    1
   139    52    53    1
   140    53    54    2
