@<TRIPOS>MOLECULE
tmp/4xnjA02.pdb
 78 71 0 0 0
SMALL
GASTEIGER

@<TRIPOS>ATOM
      1  N          7.5990   25.8440    0.0950 N.3   356  PHE356     -0.1241
      2  CA         7.7940   24.5460    0.7270 C.3   356  PHE356      0.1605
      3  C          9.0510   24.5290    1.5770 C.2   356  PHE356      0.2264
      4  O          9.0190   24.0560    2.6990 O.2   356  PHE356     -0.2867
      5  CB         7.8460   23.4460   -0.3190 C.3   356  PHE356      0.0534
      6  CG         6.4940   22.9570   -0.7370 C.ar  356  PHE356     -0.0203
      7  CD1        5.6180   22.4220    0.2020 C.ar  356  PHE356     -0.0042
      8  CD2        6.0960   23.0100   -2.0640 C.ar  356  PHE356     -0.0042
      9  CE1        4.3690   21.9520   -0.1710 C.ar  356  PHE356     -0.0003
     10  CE2        4.8410   22.5420   -2.4470 C.ar  356  PHE356     -0.0003
     11  CZ         3.9780   22.0150   -1.4960 C.ar  356  PHE356     -0.0000
     12  N          8.1320   26.3400    4.5730 N.3   359  LEU359     -0.1245
     13  CA         7.2980   25.4940    5.4100 C.3   359  LEU359      0.1561
     14  C          8.1610   24.5160    6.2040 C.2   359  LEU359      0.2260
     15  O          7.8290   24.1890    7.3410 O.2   359  LEU359     -0.2867
     16  CB         6.2780   24.7250    4.5560 C.3   359  LEU359      0.0270
     17  CG         5.2020   25.5820    3.8690 C.3   359  LEU359      0.0019
     18  CD1        4.1590   24.7160    3.1640 C.3   359  LEU359      0.0001
     19  CD2        4.5440   26.5330    4.8600 C.3   359  LEU359      0.0001
     20  N          9.3130   26.4060    9.1600 N.3   362  LEU362     -0.1231
     21  CA         8.1640   26.6870   10.0230 C.3   362  LEU362      0.1693
     22  C          7.7140   25.4500   10.8040 C.2   362  LEU362      0.2591
     23  O          7.3470   25.5540   11.9720 O.2   362  LEU362     -0.2718
     24  CB         6.9900   27.2400    9.2140 C.3   362  LEU362      0.0284
     25  CG         7.1810   28.6800    8.7190 C.3   362  LEU362      0.0019
     26  CD1        6.1090   29.0730    7.7160 C.3   362  LEU362      0.0001
     27  CD2        7.1920   29.6320    9.8950 C.3   362  LEU362      0.0001
     28  N          7.7370   24.2900   10.1620 N.am  363  LEU363     -0.1980
     29  CA         7.4050   23.0380   10.8460 C.3   363  LEU363      0.1596
     30  C          8.2890   22.8170   12.0800 C.2   363  LEU363      0.2287
     31  O          7.8210   22.4290   13.1510 O.2   363  LEU363     -0.2864
     32  CB         7.5600   21.8540    9.8910 C.3   363  LEU363      0.0297
     33  CG         7.4480   20.4450   10.4920 C.3   363  LEU363      0.0022
     34  CD1        6.0200   20.1010   10.8670 C.3   363  LEU363      0.0001
     35  CD2        8.0160   19.4110    9.5310 C.3   363  LEU363      0.0001
     36  N          9.7030   24.8550   13.9260 N.3   365  ALA365     -0.1231
     37  CA         9.5330   25.7910   15.0260 C.3   365  ALA365      0.1694
     38  C          8.4810   25.2680   16.0180 C.2   365  ALA365      0.2591
     39  O          8.4660   25.6420   17.1960 O.2   365  ALA365     -0.2718
     40  CB         9.1540   27.1580   14.4990 C.3   365  ALA365      0.0304
     41  N          7.6230   24.3710   15.5480 N.am  366  ILE366     -0.1980
     42  CA         6.5240   23.8810   16.3690 C.3   366  ILE366      0.1595
     43  C          6.9500   23.0820   17.6150 C.2   366  ILE366      0.2287
     44  O          6.4190   23.3280   18.7020 O.2   366  ILE366     -0.2864
     45  CB         5.5530   23.0120   15.5350 C.3   366  ILE366      0.0276
     46  CG1        4.9250   23.8370   14.4090 C.3   366  ILE366      0.0022
     47  CG2        4.4520   22.4440   16.4300 C.3   366  ILE366      0.0022
     48  CD1        4.1290   23.0090   13.4030 C.3   366  ILE366      0.0001
     49  N          9.5830   23.1190   19.5350 N.3   368  GLY368     -0.1210
     50  CA        10.0630   24.0420   20.5450 C.3   368  GLY368      0.1956
     51  C          8.9490   24.8760   21.1660 C.2   368  GLY368      0.2611
     52  O          8.9290   25.0900   22.3760 O.2   368  GLY368     -0.2717
     53  N          8.0170   25.3510   20.3460 N.am  369  ALA369     -0.1979
     54  CA         6.9420   26.2170   20.8490 C.3   369  ALA369      0.1597
     55  C          5.9540   25.4310   21.6960 C.2   369  ALA369      0.2287
     56  O          5.3820   25.9520   22.6510 O.2   369  ALA369     -0.2864
     57  CB         6.2140   26.9020   19.6960 C.3   369  ALA369      0.0319
     58  N          9.4920   18.1030    3.3250 N.3   388  LEU388     -0.1245
     59  CA         8.9440   19.3640    2.8590 C.3   388  LEU388      0.1561
     60  C          9.9430   20.0700    1.9700 C.2   388  LEU388      0.2260
     61  O          9.6070   20.4820    0.8540 O.2   388  LEU388     -0.2867
     62  CB         8.5580   20.2430    4.0440 C.3   388  LEU388      0.0270
     63  CG         7.1970   19.9310    4.6580 C.3   388  LEU388      0.0019
     64  CD1        6.9640   20.8290    5.8390 C.3   388  LEU388      0.0001
     65  CD2        6.1020   20.1280    3.6010 C.3   388  LEU388      0.0001
     66  N         13.4110   28.6160   18.2670 N.3   439  VAL439     -0.1245
     67  CA        12.0610   28.8150   17.7480 C.3   439  VAL439      0.1561
     68  C         11.9890   30.0820   16.9070 C.2   439  VAL439      0.2260
     69  O         11.2610   30.1370   15.9180 O.2   439  VAL439     -0.2867
     70  CB        11.0020   28.8730   18.8930 C.3   439  VAL439      0.0252
     71  CG1        9.6210   29.2490   18.3440 C.3   439  VAL439      0.0019
     72  CG2       10.9340   27.5410   19.6500 C.3   439  VAL439      0.0019
     73  N         11.1210   30.0920   12.8950 N.3   443  SER443     -0.1217
     74  CA         9.9750   30.9530   12.5490 C.3   443  SER443      0.1889
     75  C         10.3060   32.0540   11.5590 C.2   443  SER443      0.2288
     76  O          9.6590   32.1910   10.5240 O.2   443  SER443     -0.2866
     77  CB         9.3990   31.6220   13.7970 C.3   443  SER443      0.2089
     78  OG         8.6510   30.6900   14.5320 O.3   443  SER443     -0.2183
@<TRIPOS>BOND
     1    10     8   ar
     2    10    11   ar
     3     8     6   ar
     4    11     9   ar
     5     6     5    1
     6     6     7   ar
     7     5     2    1
     8     9     7   ar
     9     1     2    1
    10     2     3    1
    11    61    60    2
    12     3     4    2
    13    60    59    1
    14    59    58    1
    15    59    62    1
    16    18    17    1
    17    65    63    1
    18    17    16    1
    19    17    19    1
    20    62    63    1
    21    16    13    1
    22    12    13    1
    23    63    64    1
    24    13    14    1
    25    14    15    2
    26    26    25    1
    27    25    24    1
    28    25    27    1
    29    20    21    1
    30    24    21    1
    31    35    33    1
    32    32    33    1
    33    32    29    1
    34    21    22    1
    35    28    22   am
    36    28    29    1
    37    33    34    1
    38    76    75    2
    39    22    23    2
    40    29    30    1
    41    75    74    1
    42    30    31    2
    43    74    73    1
    44    74    77    1
    45    48    46    1
    46    77    78    1
    47    36    37    1
    48    46    45    1
    49    40    37    1
    50    37    38    1
    51    45    42    1
    52    45    47    1
    53    41    38   am
    54    41    42    1
    55    69    68    2
    56    38    39    2
    57    42    43    1
    58    68    67    1
    59    43    44    2
    60    67    66    1
    61    67    70    1
    62    71    70    1
    63    70    72    1
    64    49    50    1
    65    57    54    1
    66    53    54    1
    67    53    51   am
    68    50    51    1
    69    54    55    1
    70    51    52    2
    71    55    56    2
