@<TRIPOS>MOLECULE
tmp/4xnjA03.pdb
 97 92 0 0 0
SMALL
GASTEIGER

@<TRIPOS>ATOM
      1  N         34.4330   26.2860  -12.1110 N.3    69  ILE69      -0.1245
      2  CA        35.7150   26.5280  -12.7760 C.3    69  ILE69       0.1561
      3  C         36.3590   25.2780  -13.4110 C.2    69  ILE69       0.2260
      4  O         37.1490   25.3880  -14.3500 O.2    69  ILE69      -0.2867
      5  CB        36.7140   27.1180  -11.7800 C.3    69  ILE69       0.0252
      6  CG1       36.0190   28.1510  -10.9100 C.3    69  ILE69       0.0019
      7  CG2       37.8500   27.7980  -12.4870 C.3    69  ILE69       0.0019
      8  CD1       36.7670   28.4290   -9.6450 C.3    69  ILE69       0.0001
      9  N         36.2110   24.6440  -17.2990 N.3    72  PHE72      -0.1227
     10  CA        37.1220   25.4510  -18.1000 C.3    72  PHE72       0.1736
     11  C         38.5200   24.8470  -18.1070 C.2    72  PHE72       0.2595
     12  O         39.1540   24.7420  -19.1590 O.2    72  PHE72      -0.2718
     13  CB        37.1760   26.8890  -17.5700 C.3    72  PHE72       0.0547
     14  CG        38.2460   27.7340  -18.2140 C.ar   72  PHE72      -0.0202
     15  CD1       39.5380   27.7540  -17.7020 C.ar   72  PHE72      -0.0042
     16  CD2       37.9550   28.5230  -19.3160 C.ar   72  PHE72      -0.0042
     17  CE1       40.5250   28.5260  -18.2960 C.ar   72  PHE72      -0.0003
     18  CE2       38.9340   29.3070  -19.9080 C.ar   72  PHE72      -0.0003
     19  CZ        40.2230   29.3080  -19.3950 C.ar   72  PHE72      -0.0000
     20  N         39.0050   24.4670  -16.9260 N.am   73  VAL73      -0.1980
     21  CA        40.3430   23.8950  -16.8110 C.3    73  VAL73       0.1595
     22  C         40.4680   22.6090  -17.6370 C.2    73  VAL73       0.2287
     23  O         41.4640   22.4020  -18.3200 O.2    73  VAL73      -0.2864
     24  CB        40.7120   23.6000  -15.3410 C.3    73  VAL73       0.0276
     25  CG1       42.1560   23.1260  -15.2340 C.3    73  VAL73       0.0022
     26  CG2       40.5040   24.8370  -14.4800 C.3    73  VAL73       0.0022
     27  N         40.0350   23.4900  -21.6090 N.3    76  ARG76      -0.1231
     28  CA        41.0420   24.3520  -22.2080 C.3    76  ARG76       0.1694
     29  C         42.4640   23.9020  -21.8980 C.2    76  ARG76       0.2591
     30  O         43.3740   24.1410  -22.6810 O.2    76  ARG76      -0.2718
     31  CB        40.8510   25.8000  -21.7280 C.3    76  ARG76       0.0321
     32  CG        39.4700   26.3960  -22.0300 C.3    76  ARG76       0.0489
     33  CD        39.5790   27.6880  -22.8790 C.3    76  ARG76       0.2205
     34  NE        39.9940   27.4510  -24.2630 N.pl3  76  ARG76      -0.0865
     35  CZ        40.4210   28.4130  -25.0820 C.cat  76  ARG76       0.5346
     36  NH1       40.7770   28.1360  -26.3290 N.pl3  76  ARG76       0.1354
     37  NH2       40.5190   29.6600  -24.6430 N.pl3  76  ARG76       0.1354
     38  N         42.6700   23.2710  -20.7470 N.am   77  ILE77      -0.1980
     39  CA        44.0440   22.9890  -20.3500 C.3    77  ILE77       0.1595
     40  C         44.4090   21.5020  -20.1830 C.2    77  ILE77       0.2287
     41  O         45.4100   21.0800  -20.7480 O.2    77  ILE77      -0.2864
     42  CB        44.4000   23.7470  -19.0560 C.3    77  ILE77       0.0276
     43  CG1       44.1790   25.2490  -19.2700 C.3    77  ILE77       0.0022
     44  CG2       45.8520   23.4860  -18.6690 C.3    77  ILE77       0.0022
     45  CD1       44.6730   26.1220  -18.1480 C.3    77  ILE77       0.0001
     46  N         41.8580   23.5700  -26.7660 N.3   207  PRO207     -0.2102
     47  CA        43.1560   23.9480  -26.2000 C.3   207  PRO207      0.1504
     48  C         43.4580   25.4340  -26.3690 C.2   207  PRO207      0.2575
     49  O         43.0280   26.0300  -27.3390 O.2   207  PRO207     -0.2718
     50  CB        44.1530   23.0880  -26.9910 C.3   207  PRO207      0.0282
     51  CG        43.4290   22.6610  -28.2150 C.3   207  PRO207      0.0208
     52  CD        41.9920   22.5400  -27.8130 C.3   207  PRO207      0.0893
     53  N         44.1550   26.0150  -25.3990 N.am  208  LEU208     -0.1980
     54  CA        44.6450   27.3810  -25.5080 C.3   208  LEU208      0.1596
     55  C         45.4100   27.5860  -26.8110 C.2   208  LEU208      0.2287
     56  O         46.3510   26.8520  -27.0870 O.2   208  LEU208     -0.2864
     57  CB        45.5510   27.6980  -24.3250 C.3   208  LEU208      0.0297
     58  CG        44.8750   27.7760  -22.9650 C.3   208  LEU208      0.0022
     59  CD1       45.8790   28.1170  -21.8930 C.3   208  LEU208      0.0001
     60  CD2       43.7740   28.8250  -23.0180 C.3   208  LEU208      0.0001
     61  N         48.1260   29.8530  -29.0230 N.3   210  PRO210     -0.2116
     62  CA        49.3710   30.4620  -28.5290 C.3   210  PRO210      0.1372
     63  C         49.1980   31.8750  -27.9670 C.2   210  PRO210      0.2244
     64  O         49.8290   32.2100  -26.9750 O.2   210  PRO210     -0.2868
     65  CB        50.2670   30.4820  -29.7720 C.3   210  PRO210      0.0268
     66  CG        49.7620   29.3550  -30.5900 C.3   210  PRO210      0.0207
     67  CD        48.2820   29.3430  -30.3940 C.3   210  PRO210      0.0892
     68  N         47.6140   32.1620  -24.0690 N.3   213  VAL213     -0.1245
     69  CA        48.2760   31.7670  -22.8310 C.3   213  VAL213      0.1561
     70  C         48.6760   32.9710  -21.9640 C.2   213  VAL213      0.2260
     71  O         48.3510   32.9960  -20.7810 O.2   213  VAL213     -0.2867
     72  CB        49.5130   30.8980  -23.1110 C.3   213  VAL213      0.0252
     73  CG1       50.1840   30.5150  -21.8220 C.3   213  VAL213      0.0019
     74  CG2       49.1070   29.6390  -23.9000 C.3   213  VAL213      0.0019
     75  N         45.7120   34.8470  -20.1670 N.3   216  LEU216     -0.1231
     76  CA        45.1500   33.9890  -19.1190 C.3   216  LEU216      0.1693
     77  C         46.0370   34.0140  -17.8760 C.2   216  LEU216      0.2591
     78  O         45.5570   34.1960  -16.7550 O.2   216  LEU216     -0.2718
     79  CB        44.9800   32.5510  -19.6040 C.3   216  LEU216      0.0284
     80  CG        44.5250   31.6310  -18.4650 C.3   216  LEU216      0.0019
     81  CD1       43.1430   32.0490  -17.9630 C.3   216  LEU216      0.0001
     82  CD2       44.5390   30.1810  -18.8940 C.3   216  LEU216      0.0001
     83  N         47.3330   33.8410  -18.0950 N.am  217  LEU217     -0.1980
     84  CA        48.3280   33.9530  -17.0430 C.3   217  LEU217      0.1596
     85  C         48.2520   35.2930  -16.3060 C.2   217  LEU217      0.2287
     86  O         48.3630   35.3560  -15.0860 O.2   217  LEU217     -0.2864
     87  CB        49.7190   33.7750  -17.6380 C.3   217  LEU217      0.0297
     88  CG        50.8620   33.8590  -16.6350 C.3   217  LEU217      0.0022
     89  CD1       50.6940   32.7780  -15.5820 C.3   217  LEU217      0.0001
     90  CD2       52.2130   33.7250  -17.3240 C.3   217  LEU217      0.0001
     91  N         44.9600   35.3710  -14.1410 N.3   220  VAL220     -0.1245
     92  CA        45.0090   34.5930  -12.9130 C.3   220  VAL220      0.1561
     93  C         45.9010   35.2350  -11.8590 C.2   220  VAL220      0.2260
     94  O         45.5470   35.3060  -10.6820 O.2   220  VAL220     -0.2867
     95  CB        45.5200   33.1580  -13.1930 C.3   220  VAL220      0.0252
     96  CG1       45.7610   32.4110  -11.9000 C.3   220  VAL220      0.0019
     97  CG2       44.5400   32.4060  -14.0850 C.3   220  VAL220      0.0019
@<TRIPOS>BOND
     1    66    67    1
     2    66    65    1
     3    67    61    1
     4    65    62    1
     5    61    62    1
     6    62    63    1
     7    51    52    1
     8    51    50    1
     9    63    64    2
    10    52    46    1
    11    49    48    2
    12    56    55    2
    13    50    47    1
    14    55    54    1
    15    46    47    1
    16    48    47    1
    17    48    53   am
    18    36    35    1
    19    54    53    1
    20    54    57    1
    21    35    37    1
    22    35    34    2
    23    57    58    1
    24    34    33    1
    25    68    69    1
    26    74    72    1
    27    72    69    1
    28    72    73    1
    29    60    58    1
    30    58    59    1
    31    33    32    1
    32    69    70    1
    33    30    29    2
    34    28    29    1
    35    28    31    1
    36    28    27    1
    37    32    31    1
    38    70    71    2
    39    29    38   am
    40    41    40    2
    41    38    39    1
    42    39    40    1
    43    39    42    1
    44    75    76    1
    45    18    19   ar
    46    18    16   ar
    47    79    76    1
    48    79    80    1
    49    19    17   ar
    50    16    14   ar
    51    43    42    1
    52    43    45    1
    53    12    11    2
    54    76    77    1
    55    42    44    1
    56    82    80    1
    57    80    81    1
    58    23    22    2
    59    17    15   ar
    60    14    15   ar
    61    14    13    1
    62    11    10    1
    63    11    20   am
    64    10    13    1
    65    10     9    1
    66    83    77   am
    67    83    84    1
    68    77    78    2
    69    87    84    1
    70    87    88    1
    71    22    21    1
    72    90    88    1
    73    84    85    1
    74    20    21    1
    75    21    24    1
    76    88    89    1
    77    85    86    2
    78    24    25    1
    79    24    26    1
    80     4     3    2
    81    91    92    1
    82    97    95    1
    83     3     2    1
    84    95    92    1
    85    95    96    1
    86    92    93    1
    87     2     1    1
    88     2     5    1
    89     7     5    1
    90    93    94    2
    91     5     6    1
    92     6     8    1
