@<TRIPOS>MOLECULE
tmp/4xnjA05.pdb
 118 115 0 0 0
SMALL
GASTEIGER

@<TRIPOS>ATOM
      1  N         10.7850   10.8380   -4.5290 N.3   328  TYR328     -0.1241
      2  CA         9.9890   11.8240   -5.2260 C.3   328  TYR328      0.1605
      3  C         10.2080   11.8210   -6.7370 C.2   328  TYR328      0.2264
      4  O          9.3030   12.1830   -7.5060 O.2   328  TYR328     -0.2867
      5  CB        10.3160   13.2120   -4.6850 C.3   328  TYR328      0.0534
      6  CG         9.7260   13.5630   -3.3430 C.ar  328  TYR328     -0.0201
      7  CD1        8.7070   12.8120   -2.7790 C.ar  328  TYR328     -0.0009
      8  CD2       10.1830   14.6710   -2.6480 C.ar  328  TYR328     -0.0009
      9  CE1        8.1570   13.1670   -1.5510 C.ar  328  TYR328      0.0417
     10  CE2        9.6480   15.0260   -1.4330 C.ar  328  TYR328      0.0417
     11  CZ         8.6360   14.2820   -0.8870 C.ar  328  TYR328      0.1957
     12  OH         8.1140   14.6660    0.3270 O.3   328  TYR328     -0.2866
     13  N          8.1160   10.0190   -9.3750 N.3   331  PHE331     -0.1227
     14  CA         6.8040   10.6470   -9.3040 C.3   331  PHE331      0.1736
     15  C          6.7610   11.9230  -10.1310 C.2   331  PHE331      0.2595
     16  O          5.9210   12.0630  -11.0160 O.2   331  PHE331     -0.2718
     17  CB         6.3990   10.9650   -7.8600 C.3   331  PHE331      0.0547
     18  CG         5.0470   11.6120   -7.7550 C.ar  331  PHE331     -0.0202
     19  CD1        4.8990   12.9850   -7.9070 C.ar  331  PHE331     -0.0042
     20  CD2        3.9190   10.8480   -7.5500 C.ar  331  PHE331     -0.0042
     21  CE1        3.6450   13.5770   -7.8390 C.ar  331  PHE331     -0.0003
     22  CE2        2.6650   11.4380   -7.4780 C.ar  331  PHE331     -0.0003
     23  CZ         2.5290   12.7990   -7.6220 C.ar  331  PHE331     -0.0000
     24  N          7.6420   12.8700   -9.8300 N.am  332  PHE332     -0.1976
     25  CA         7.6020   14.1430  -10.5350 C.3   332  PHE332      0.1639
     26  C          7.9290   13.9670  -12.0210 C.2   332  PHE332      0.2290
     27  O          7.4810   14.7510  -12.8540 O.2   332  PHE332     -0.2864
     28  CB         8.5440   15.1510   -9.8750 C.3   332  PHE332      0.0560
     29  CG         7.9780   15.7590   -8.6270 C.ar  332  PHE332     -0.0200
     30  CD1        8.0940   15.1150   -7.4070 C.ar  332  PHE332     -0.0042
     31  CD2        7.2970   16.9540   -8.6800 C.ar  332  PHE332     -0.0042
     32  CE1        7.5540   15.6660   -6.2590 C.ar  332  PHE332     -0.0003
     33  CE2        6.7610   17.5100   -7.5410 C.ar  332  PHE332     -0.0003
     34  CZ         6.8880   16.8640   -6.3270 C.ar  332  PHE332     -0.0000
     35  N          7.5990   25.8440    0.0950 N.3   356  PHE356     -0.1241
     36  CA         7.7940   24.5460    0.7270 C.3   356  PHE356      0.1605
     37  C          9.0510   24.5290    1.5770 C.2   356  PHE356      0.2264
     38  O          9.0190   24.0560    2.6990 O.2   356  PHE356     -0.2867
     39  CB         7.8460   23.4460   -0.3190 C.3   356  PHE356      0.0534
     40  CG         6.4940   22.9570   -0.7370 C.ar  356  PHE356     -0.0203
     41  CD1        5.6180   22.4220    0.2020 C.ar  356  PHE356     -0.0042
     42  CD2        6.0960   23.0100   -2.0640 C.ar  356  PHE356     -0.0042
     43  CE1        4.3690   21.9520   -0.1710 C.ar  356  PHE356     -0.0003
     44  CE2        4.8410   22.5420   -2.4470 C.ar  356  PHE356     -0.0003
     45  CZ         3.9780   22.0150   -1.4960 C.ar  356  PHE356     -0.0000
     46  N          7.7370   24.2900   10.1620 N.3   363  LEU363     -0.1245
     47  CA         7.4050   23.0380   10.8460 C.3   363  LEU363      0.1561
     48  C          8.2890   22.8170   12.0800 C.2   363  LEU363      0.2260
     49  O          7.8210   22.4290   13.1510 O.2   363  LEU363     -0.2867
     50  CB         7.5600   21.8540    9.8910 C.3   363  LEU363      0.0270
     51  CG         7.4480   20.4450   10.4920 C.3   363  LEU363      0.0019
     52  CD1        6.0200   20.1010   10.8670 C.3   363  LEU363      0.0001
     53  CD2        8.0160   19.4110    9.5310 C.3   363  LEU363      0.0001
     54  N          6.5530   22.1520   23.1250 N.3   371  TYR371     -0.1241
     55  CA         7.0860   21.2650   24.1640 C.3   371  TYR371      0.1605
     56  C          8.1870   21.9140   24.9790 C.2   371  TYR371      0.2264
     57  O          8.6110   21.3640   26.0000 O.2   371  TYR371     -0.2867
     58  CB         7.6380   19.9680   23.5450 C.3   371  TYR371      0.0534
     59  CG         6.6150   19.0320   22.9330 C.ar  371  TYR371     -0.0201
     60  CD1        5.6940   18.3620   23.7230 C.ar  371  TYR371     -0.0009
     61  CD2        6.5930   18.7940   21.5640 C.ar  371  TYR371     -0.0009
     62  CE1        4.7720   17.4970   23.1700 C.ar  371  TYR371      0.0417
     63  CE2        5.6660   17.9260   20.9970 C.ar  371  TYR371      0.0417
     64  CZ         4.7600   17.2890   21.8090 C.ar  371  TYR371      0.1957
     65  OH         3.8400   16.4280   21.2580 O.3   371  TYR371     -0.2866
     66  N         10.4460   13.8260   18.9140 N.3   378  SER378     -0.1217
     67  CA        10.4360   12.7090   17.9750 C.3   378  SER378      0.1889
     68  C         11.3030   12.9330   16.7340 C.2   378  SER378      0.2288
     69  O         11.3380   14.0320   16.1720 O.2   378  SER378     -0.2866
     70  CB         9.0060   12.4200   17.5400 C.3   378  SER378      0.2089
     71  OG         9.0180   11.5860   16.4010 O.3   378  SER378     -0.2183
     72  N         10.5210   12.1170   13.9140 N.3   380  LEU380     -0.1231
     73  CA         9.6280   12.3780   12.7940 C.3   380  LEU380      0.1693
     74  C          9.4910   13.8760   12.4380 C.2   380  LEU380      0.2592
     75  O          9.1470   14.2150   11.3030 O.2   380  LEU380     -0.2718
     76  CB         8.2570   11.7770   13.0840 C.3   380  LEU380      0.0284
     77  CG         8.2270   10.2460   13.1120 C.3   380  LEU380      0.0019
     78  CD1        6.9000    9.7540   13.6420 C.3   380  LEU380      0.0001
     79  CD2        8.4970    9.6660   11.7300 C.3   380  LEU380      0.0001
     80  N          9.7580   14.7580   13.3980 N.am  381  TRP381     -0.1976
     81  CA         9.7690   16.1920   13.1270 C.3   381  TRP381      0.1640
     82  C         10.7710   16.5030   12.0100 C.2   381  TRP381      0.2290
     83  O         10.4480   17.2410   11.0670 O.2   381  TRP381     -0.2864
     84  CB        10.0990   16.9960   14.3980 C.3   381  TRP381      0.0576
     85  CG         8.9370   17.0870   15.3770 C.ar  381  TRP381      0.0006
     86  CD1        8.8280   16.4660   16.5870 C.ar  381  TRP381      0.0946
     87  CD2        7.7200   17.8240   15.2000 C.ar  381  TRP381      0.0152
     88  NE1        7.6280   16.7750   17.1780 N.ar  381  TRP381     -0.2442
     89  CE2        6.9290   17.6090   16.3510 C.ar  381  TRP381      0.0810
     90  CE3        7.2310   18.6570   14.1900 C.ar  381  TRP381      0.0012
     91  CZ2        5.6760   18.1930   16.5150 C.ar  381  TRP381      0.0191
     92  CZ3        5.9900   19.2340   14.3520 C.ar  381  TRP381      0.0001
     93  CH2        5.2230   18.9960   15.5090 C.ar  381  TRP381      0.0015
     94  N          9.6890   14.9900    8.6340 N.3   384  GLY384     -0.1225
     95  CA         8.7200   15.8540    7.9850 C.3   384  GLY384      0.1811
     96  C          9.3750   17.0720    7.3340 C.2   384  GLY384      0.2280
     97  O          8.9210   17.5540    6.2970 O.2   384  GLY384     -0.2866
     98  N         11.1640   16.0710    4.1520 N.3   387  ALA387     -0.1231
     99  CA        10.1170   15.7660    3.1940 C.3   387  ALA387      0.1694
    100  C          9.6000   17.0400    2.5340 C.2   387  ALA387      0.2591
    101  O          9.2960   17.0540    1.3450 O.2   387  ALA387     -0.2718
    102  CB         8.9740   15.0190    3.8710 C.3   387  ALA387      0.0304
    103  N          9.4920   18.1030    3.3250 N.am  388  LEU388     -0.1980
    104  CA         8.9440   19.3640    2.8590 C.3   388  LEU388      0.1596
    105  C          9.9430   20.0700    1.9700 C.2   388  LEU388      0.2287
    106  O          9.6070   20.4820    0.8540 O.2   388  LEU388     -0.2864
    107  CB         8.5580   20.2430    4.0440 C.3   388  LEU388      0.0297
    108  CG         7.1970   19.9310    4.6580 C.3   388  LEU388      0.0022
    109  CD1        6.9640   20.8290    5.8390 C.3   388  LEU388      0.0001
    110  CD2        6.1020   20.1280    3.6010 C.3   388  LEU388      0.0001
    111  N         10.5520   18.3620   -1.3580 N.3   391  LEU391     -0.1245
    112  CA         9.3950   18.6420   -2.1830 C.3   391  LEU391      0.1561
    113  C          9.6280   19.9900   -2.8760 C.2   391  LEU391      0.2260
    114  O          9.3230   20.1680   -4.0570 O.2   391  LEU391     -0.2867
    115  CB         8.1360   18.6580   -1.3250 C.3   391  LEU391      0.0270
    116  CG         6.7700   18.5370   -1.9770 C.3   391  LEU391      0.0019
    117  CD1        6.7140   17.2490   -2.7580 C.3   391  LEU391      0.0001
    118  CD2        5.7170   18.5400   -0.8800 C.3   391  LEU391      0.0001
@<TRIPOS>BOND
     1    27    26    2
     2    26    25    1
     3    16    15    2
     4    25    28    1
     5    25    24    1
     6    15    24   am
     7    15    14    1
     8    28    29    1
     9    13    14    1
    10    14    17    1
    11    31    29   ar
    12    31    33   ar
    13    29    30   ar
    14    19    21   ar
    15    19    18   ar
    16    17    18    1
    17    21    23   ar
    18    18    20   ar
    19    23    22   ar
    20    20    22   ar
    21    33    34   ar
    22     4     3    2
    23    30    32   ar
    24     3     2    1
    25    34    32   ar
    26     2     5    1
    27     2     1    1
    28     5     6    1
    29   114   113    2
    30     6     7   ar
    31     6     8   ar
    32   113   112    1
    33     7     9   ar
    34   117   116    1
    35     8    10   ar
    36    44    42   ar
    37    44    45   ar
    38   112   111    1
    39   112   115    1
    40    42    40   ar
    41   116   115    1
    42   116   118    1
    43     9    11   ar
    44    45    43   ar
    45    10    11   ar
    46    11    12    1
    47    40    39    1
    48    40    41   ar
    49    39    36    1
    50    43    41   ar
    51    35    36    1
    52    36    37    1
    53   106   105    2
    54   101   100    2
    55    37    38    2
    56   105   104    1
    57   100    99    1
    58   100   103   am
    59   104   103    1
    60   104   107    1
    61    99   102    1
    62    99    98    1
    63   110   108    1
    64   107   108    1
    65   108   109    1
    66    97    96    2
    67    96    95    1
    68    95    94    1
    69    53    51    1
    70    50    51    1
    71    50    47    1
    72    46    47    1
    73    51    52    1
    74    47    48    1
    75    83    82    2
    76    75    74    2
    77    79    77    1
    78    82    81    1
    79    48    49    2
    80    74    73    1
    81    74    80   am
    82    73    76    1
    83    73    72    1
    84    76    77    1
    85    77    78    1
    86    81    80    1
    87    81    84    1
    88    90    92   ar
    89    90    87   ar
    90    92    93   ar
    91    84    85    1
    92    87    85   ar
    93    87    89   ar
    94    85    86   ar
    95    93    91   ar
    96    69    68    2
    97    89    91   ar
    98    89    88   ar
    99    71    70    1
   100    86    88   ar
   101    68    67    1
   102    70    67    1
   103    67    66    1
   104    63    61   ar
   105    63    64   ar
   106    65    64    1
   107    61    59   ar
   108    64    62   ar
   109    59    58    1
   110    59    60   ar
   111    54    55    1
   112    62    60   ar
   113    58    55    1
   114    55    56    1
   115    56    57    2
