@<TRIPOS>MOLECULE
tmp/4xnjA00.pdb
 169 158 0 0 0
SMALL
GASTEIGER

@<TRIPOS>ATOM
      1  N         40.6340   21.8910   19.2520 N.3    45  LEU45      -0.1245
      2  CA        40.2130   22.9350   18.3200 C.3    45  LEU45       0.1561
      3  C         39.5830   24.1250   19.0540 C.2    45  LEU45       0.2260
      4  O         38.5980   23.9700   19.7780 O.2    45  LEU45      -0.2867
      5  CB        39.2340   22.3530   17.3000 C.3    45  LEU45       0.0270
      6  CG        38.6190   23.2880   16.2620 C.3    45  LEU45       0.0019
      7  CD1       39.6960   23.9810   15.4640 C.3    45  LEU45       0.0001
      8  CD2       37.7130   22.4850   15.3570 C.3    45  LEU45       0.0001
      9  N         37.6450   26.9210   18.7040 N.3    47  ILE47      -0.1245
     10  CA        36.6090   27.7220   18.0750 C.3    47  ILE47       0.1561
     11  C         35.3000   27.4370   18.7850 C.2    47  ILE47       0.2260
     12  O         35.2080   26.4870   19.5490 O.2    47  ILE47      -0.2867
     13  CB        36.4760   27.4120   16.5670 C.3    47  ILE47       0.0252
     14  CG1       36.0460   25.9520   16.3490 C.3    47  ILE47       0.0019
     15  CG2       37.7860   27.6780   15.8590 C.3    47  ILE47       0.0019
     16  CD1       35.6950   25.6080   14.9090 C.3    47  ILE47       0.0001
     17  N         31.9810   27.1500    9.3800 N.3    55  ILE55      -0.1245
     18  CA        32.9480   26.4210    8.5530 C.3    55  ILE55       0.1561
     19  C         32.2810   25.4400    7.5940 C.2    55  ILE55       0.2260
     20  O         32.6390   25.3760    6.4190 O.2    55  ILE55      -0.2867
     21  CB        33.9470   25.6460    9.4200 C.3    55  ILE55       0.0252
     22  CG1       34.8670   26.6130   10.1440 C.3    55  ILE55       0.0019
     23  CG2       34.8030   24.6720    8.5790 C.3    55  ILE55       0.0019
     24  CD1       35.7960   25.9460   11.1070 C.3    55  ILE55       0.0001
     25  N         30.5940   27.4770    4.7410 N.3    58  ILE58      -0.1231
     26  CA        31.4790   28.1520    3.7960 C.3    58  ILE58       0.1692
     27  C         32.2860   27.1110    3.0160 C.2    58  ILE58       0.2592
     28  O         32.7630   27.3570    1.9040 O.2    58  ILE58      -0.2718
     29  CB        32.4190   29.1480    4.5220 C.3    58  ILE58       0.0266
     30  CG1       32.9950   30.1920    3.5480 C.3    58  ILE58       0.0019
     31  CG2       33.4970   28.4240    5.3370 C.3    58  ILE58       0.0020
     32  CD1       31.9520   31.1470    2.9330 C.3    58  ILE58       0.0001
     33  N         32.4290   25.9370    3.6140 N.am   59  TYR59      -0.1976
     34  CA        33.0400   24.7890    2.9570 C.3    59  TYR59       0.1639
     35  C         32.2120   24.3690    1.7530 C.2    59  TYR59       0.2290
     36  O         32.7230   24.2750    0.6360 O.2    59  TYR59      -0.2864
     37  CB        33.1670   23.6450    3.9590 C.3    59  TYR59       0.0560
     38  CG        33.8320   22.3870    3.4760 C.ar   59  TYR59      -0.0198
     39  CD1       35.1750   22.3600    3.2710 C.ar   59  TYR59      -0.0009
     40  CD2       33.1340   21.1890    3.3390 C.ar   59  TYR59      -0.0009
     41  CE1       35.8240   21.2180    2.8620 C.ar   59  TYR59       0.0417
     42  CE2       33.7980   20.0120    2.9430 C.ar   59  TYR59       0.0417
     43  CZ        35.1620   20.0520    2.7240 C.ar   59  TYR59       0.1957
     44  OH        35.8920   18.9540    2.3310 O.3    59  TYR59      -0.2866
     45  N         32.4520   26.9550   -1.0580 N.3    62  MET62      -0.1245
     46  CA        33.6660   26.9100   -1.8630 C.3    62  MET62       0.1570
     47  C         33.7140   25.7040   -2.8170 C.2    62  MET62       0.2261
     48  O         34.2790   25.7880   -3.9120 O.2    62  MET62      -0.2867
     49  CB        34.8840   26.9140   -0.9440 C.3    62  MET62       0.0387
     50  CG        35.0340   28.2190   -0.1470 C.3    62  MET62       0.0595
     51  SD        35.1800   29.7100   -1.1760 S.3    62  MET62      -0.1393
     52  CE        33.5390   30.4340   -1.0410 C.3    62  MET62       0.0692
     53  N         31.5150   26.7610   -5.7460 N.3    65  LEU65      -0.1231
     54  CA        32.2410   27.7590   -6.5340 C.3    65  LEU65       0.1693
     55  C         33.3690   27.1120   -7.3550 C.2    65  LEU65       0.2592
     56  O         33.5360   27.3850   -8.5420 O.2    65  LEU65      -0.2718
     57  CB        32.8160   28.8520   -5.6180 C.3    65  LEU65       0.0284
     58  CG        33.6090   29.9780   -6.3000 C.3    65  LEU65       0.0019
     59  CD1       32.7920   30.6610   -7.4000 C.3    65  LEU65       0.0001
     60  CD2       34.1490   31.0170   -5.2970 C.3    65  LEU65       0.0001
     61  N         34.1500   26.2670   -6.6990 N.am   66  SER66      -0.1952
     62  CA        35.1870   25.4640   -7.3490 C.3    66  SER66       0.1924
     63  C         34.6740   24.7090   -8.5840 C.2    66  SER66       0.2314
     64  O         35.3630   24.5950   -9.5950 O.2    66  SER66      -0.2863
     65  CB        35.7520   24.4660   -6.3410 C.3    66  SER66       0.2116
     66  OG        36.8940   23.8200   -6.8510 O.3    66  SER66      -0.2180
     67  N         34.4330   26.2860  -12.1110 N.3    69  ILE69      -0.1245
     68  CA        35.7150   26.5280  -12.7760 C.3    69  ILE69       0.1561
     69  C         36.3590   25.2780  -13.4110 C.2    69  ILE69       0.2260
     70  O         37.1490   25.3880  -14.3500 O.2    69  ILE69      -0.2867
     71  CB        36.7140   27.1180  -11.7800 C.3    69  ILE69       0.0252
     72  CG1       36.0190   28.1510  -10.9100 C.3    69  ILE69       0.0019
     73  CG2       37.8500   27.7980  -12.4870 C.3    69  ILE69       0.0019
     74  CD1       36.7670   28.4290   -9.6450 C.3    69  ILE69       0.0001
     75  N         43.1170   18.8410   14.6930 N.3   104  ALA104     -0.1245
     76  CA        42.5350   20.0420   14.1130 C.3   104  ALA104      0.1562
     77  C         43.4520   20.6490   13.0610 C.2   104  ALA104      0.2260
     78  O         42.9850   21.3410   12.1610 O.2   104  ALA104     -0.2867
     79  CB        42.2200   21.0610   15.2000 C.3   104  ALA104      0.0290
     80  N         42.6440   19.9150    9.3520 N.3   107  LEU107     -0.1231
     81  CA        41.3460   20.3160    8.8380 C.3   107  LEU107      0.1693
     82  C         41.4440   21.1890    7.6030 C.2   107  LEU107      0.2592
     83  O         40.6870   21.0000    6.6590 O.2   107  LEU107     -0.2718
     84  CB        40.5380   21.0410    9.9030 C.3   107  LEU107      0.0284
     85  CG        40.0180   20.2100   11.0690 C.3   107  LEU107      0.0019
     86  CD1       39.2980   21.1130   12.0850 C.3   107  LEU107      0.0001
     87  CD2       39.0970   19.1080   10.5590 C.3   107  LEU107      0.0001
     88  N         42.3820   22.1260    7.5830 N.am  108  PHE108     -0.1976
     89  CA        42.4670   23.0380    6.4550 C.3   108  PHE108      0.1639
     90  C         43.0260   22.3540    5.2070 C.2   108  PHE108      0.2290
     91  O         42.5810   22.6260    4.0860 O.2   108  PHE108     -0.2864
     92  CB        43.3100   24.2600    6.8240 C.3   108  PHE108      0.0560
     93  CG        43.3330   25.3210    5.7600 C.ar  108  PHE108     -0.0200
     94  CD1       42.1990   26.0760    5.4880 C.ar  108  PHE108     -0.0042
     95  CD2       44.4870   25.5720    5.0390 C.ar  108  PHE108     -0.0042
     96  CE1       42.2130   27.0620    4.5210 C.ar  108  PHE108     -0.0003
     97  CE2       44.5090   26.5580    4.0650 C.ar  108  PHE108     -0.0003
     98  CZ        43.3640   27.3050    3.8090 C.ar  108  PHE108     -0.0000
     99  N         40.2910   20.2520    3.6960 N.3   111  ILE111     -0.1231
    100  CA        39.2770   21.0900    3.0690 C.3   111  ILE111      0.1692
    101  C         39.7180   21.6130    1.7040 C.2   111  ILE111      0.2591
    102  O         38.9720   21.5250    0.7320 O.2   111  ILE111     -0.2718
    103  CB        38.9300   22.2570    4.0220 C.3   111  ILE111      0.0266
    104  CG1       38.0920   21.7370    5.1960 C.3   111  ILE111      0.0019
    105  CG2       38.2510   23.4190    3.3000 C.3   111  ILE111      0.0020
    106  CD1       38.0270   22.7210    6.3890 C.3   111  ILE111      0.0001
    107  N         40.9430   22.1210    1.6220 N.am  112  ILE112     -0.1980
    108  CA        41.4800   22.6080    0.3600 C.3   112  ILE112      0.1595
    109  C         41.6020   21.5050   -0.6880 C.2   112  ILE112      0.2287
    110  O         41.2750   21.7090   -1.8590 O.2   112  ILE112     -0.2864
    111  CB        42.8690   23.2370    0.5360 C.3   112  ILE112      0.0276
    112  CG1       42.8220   24.3720    1.5450 C.3   112  ILE112      0.0022
    113  CG2       43.3190   23.8480   -0.7700 C.3   112  ILE112      0.0022
    114  CD1       42.1830   25.6160    0.9790 C.3   112  ILE112      0.0001
    115  N         38.0350   20.7250   -1.9360 N.3   115  ILE115     -0.1245
    116  CA        37.5070   21.8250   -2.7340 C.3   115  ILE115      0.1561
    117  C         38.0900   21.8320   -4.1430 C.2   115  ILE115      0.2260
    118  O         37.3750   21.9720   -5.1410 O.2   115  ILE115     -0.2867
    119  CB        37.8010   23.1680   -2.0600 C.3   115  ILE115      0.0252
    120  CG1       36.9340   23.3190   -0.8080 C.3   115  ILE115      0.0019
    121  CG2       37.5870   24.3280   -3.0480 C.3   115  ILE115      0.0019
    122  CD1       37.3420   24.4930    0.0720 C.3   115  ILE115      0.0001
    123  N         43.9280   38.9880   -4.0920 N.3   227  PHE227     -0.1241
    124  CA        43.4510   38.1800   -2.9800 C.3   227  PHE227      0.1605
    125  C         44.4830   38.1550   -1.8630 C.2   227  PHE227      0.2264
    126  O         44.1540   38.4600   -0.7200 O.2   227  PHE227     -0.2867
    127  CB        43.1150   36.7610   -3.4340 C.3   227  PHE227      0.0534
    128  CG        42.5850   35.8750   -2.3310 C.ar  227  PHE227     -0.0203
    129  CD1       41.2890   36.0210   -1.8630 C.ar  227  PHE227     -0.0042
    130  CD2       43.3790   34.8830   -1.7750 C.ar  227  PHE227     -0.0042
    131  CE1       40.8050   35.2030   -0.8480 C.ar  227  PHE227     -0.0003
    132  CE2       42.9020   34.0610   -0.7730 C.ar  227  PHE227     -0.0003
    133  CZ        41.6130   34.2290   -0.3010 C.ar  227  PHE227     -0.0000
    134  N         39.4590   33.5300   12.5210 N.3   242  LEU242     -0.1245
    135  CA        38.7970   32.6140   11.5970 C.3   242  LEU242      0.1561
    136  C         37.4710   33.2000   11.1020 C.2   242  LEU242      0.2260
    137  O         37.1970   33.1380    9.9020 O.2   242  LEU242     -0.2867
    138  CB        38.5790   31.2450   12.2390 C.3   242  LEU242      0.0270
    139  CG        38.0030   30.1550   11.3330 C.3   242  LEU242      0.0019
    140  CD1       38.8630   29.9580   10.0880 C.3   242  LEU242      0.0001
    141  CD2       37.8790   28.8520   12.0960 C.3   242  LEU242      0.0001
    142  N         38.1590   35.5610    8.1560 N.3   245  TYR245     -0.1227
    143  CA        38.4160   34.8760    6.8980 C.3   245  TYR245      0.1736
    144  C         37.1370   34.3150    6.3020 C.2   245  TYR245      0.2595
    145  O         36.9300   34.3750    5.0950 O.2   245  TYR245     -0.2718
    146  CB        39.4180   33.7520    7.0930 C.3   245  TYR245      0.0548
    147  CG        40.8160   34.2370    7.3050 C.ar  245  TYR245     -0.0200
    148  CD1       41.5020   34.8850    6.2970 C.ar  245  TYR245     -0.0009
    149  CD2       41.4500   34.0650    8.5250 C.ar  245  TYR245     -0.0009
    150  CE1       42.7910   35.3290    6.4900 C.ar  245  TYR245      0.0417
    151  CE2       42.7370   34.5150    8.7280 C.ar  245  TYR245      0.0417
    152  CZ        43.4000   35.1460    7.7080 C.ar  245  TYR245      0.1957
    153  OH        44.6830   35.5950    7.9150 O.3   245  TYR245     -0.2866
    154  N         36.2830   33.7650    7.1570 N.am  246  ILE246     -0.1980
    155  CA        35.0040   33.2300    6.7170 C.3   246  ILE246      0.1595
    156  C         34.1690   34.3640    6.1370 C.2   246  ILE246      0.2287
    157  O         33.5020   34.2140    5.1150 O.2   246  ILE246     -0.2864
    158  CB        34.2730   32.5290    7.8790 C.3   246  ILE246      0.0276
    159  CG1       35.0480   31.2860    8.3020 C.3   246  ILE246      0.0022
    160  CG2       32.8820   32.1180    7.4810 C.3   246  ILE246      0.0022
    161  CD1       34.2830   30.3870    9.2970 C.3   246  ILE246      0.0001
    162  N         35.5400   35.1600    2.6540 N.3   249  LEU249     -0.1245
    163  CA        35.0790   34.1890    1.6630 C.3   249  LEU249      0.1561
    164  C         33.6020   34.4200    1.3460 C.2   249  LEU249      0.2260
    165  O         33.1630   34.2480    0.2150 O.2   249  LEU249     -0.2867
    166  CB        35.3040   32.7630    2.1560 C.3   249  LEU249      0.0270
    167  CG        36.7580   32.3430    2.3670 C.3   249  LEU249      0.0019
    168  CD1       36.7900   30.8920    2.7690 C.3   249  LEU249      0.0001
    169  CD2       37.5940   32.5640    1.1090 C.3   249  LEU249      0.0001
@<TRIPOS>BOND
     1    70    69    2
     2    69    68    1
     3    68    67    1
     4    68    71    1
     5    73    71    1
     6    71    72    1
     7    72    74    1
     8    64    63    2
     9    63    62    1
    10    56    55    2
    11    59    58    1
    12    55    61   am
    13    55    54    1
    14    62    61    1
    15    62    65    1
    16    66    65    1
    17    54    53    1
    18    54    57    1
    19    58    57    1
    20    58    60    1
    21   118   117    2
    22   117   116    1
    23   123   124    1
    24    48    47    2
    25   127   124    1
    26   127   128    1
    27   121   119    1
    28   124   125    1
    29    47    46    1
    30   116   119    1
    31   116   115    1
    32   128   129   ar
    33   128   130   ar
    34   119   120    1
    35   125   126    2
    36   129   131   ar
    37    46    45    1
    38    46    49    1
    39   110   109    2
    40   130   132   ar
    41    51    52    1
    42    51    50    1
    43    49    50    1
    44   131   133   ar
    45   120   122    1
    46   132   133   ar
    47   113   111    1
    48   109   108    1
    49   165   164    2
    50   108   111    1
    51   108   107    1
    52   111   112    1
    53    36    35    2
    54   102   101    2
    55   114   112    1
    56   169   167    1
    57   164   163    1
    58   107   101   am
    59   163   166    1
    60   163   162    1
    61   101   100    1
    62    35    34    1
    63    28    27    2
    64   166   167    1
    65    44    43    1
    66   167   168    1
    67    43    41   ar
    68    43    42   ar
    69    41    39   ar
    70    32    30    1
    71    42    40   ar
    72    34    33    1
    73    34    37    1
    74    27    33   am
    75    27    26    1
    76   100    99    1
    77   100   103    1
    78    39    38   ar
    79   105   103    1
    80    40    38   ar
    81    38    37    1
    82    30    29    1
    83    26    29    1
    84    26    25    1
    85    98    97   ar
    86    98    96   ar
    87   103   104    1
    88    97    95   ar
    89    91    90    2
    90    96    94   ar
    91    29    31    1
    92    95    93   ar
    93   145   144    2
    94   157   156    2
    95   104   106    1
    96    90    89    1
    97    94    93   ar
    98    93    92    1
    99   156   155    1
   100   148   150   ar
   101   148   147   ar
   102   144   143    1
   103   144   154   am
   104    20    19    2
   105    89    92    1
   106    89    88    1
   107   150   152   ar
   108    83    82    2
   109   155   154    1
   110   155   158    1
   111   143   146    1
   112   143   142    1
   113   146   147    1
   114   147   149   ar
   115   160   158    1
   116    88    82   am
   117    19    18    1
   118    82    81    1
   119   152   153    1
   120   152   151   ar
   121   158   159    1
   122   159   161    1
   123   149   151   ar
   124    18    17    1
   125    18    21    1
   126    23    21    1
   127    81    80    1
   128    81    84    1
   129    21    22    1
   130   137   136    2
   131    84    85    1
   132   140   139    1
   133    22    24    1
   134    87    85    1
   135    85    86    1
   136   136   135    1
   137   139   141    1
   138   139   138    1
   139   135   138    1
   140   135   134    1
   141    78    77    2
   142    77    76    1
   143    76    75    1
   144    76    79    1
   145    16    14    1
   146     8     6    1
   147     7     6    1
   148    15    13    1
   149     6     5    1
   150    14    13    1
   151    13    10    1
   152     5     2    1
   153    10     9    1
   154    10    11    1
   155     2     3    1
   156     2     1    1
   157    11    12    2
   158     3     4    2
