@<TRIPOS>MOLECULE
tmp/4xnlA03.pdb
 74 69 0 0 0
SMALL
GASTEIGER

@<TRIPOS>ATOM
      1  N        -12.9170    1.8140  -24.3260 N.3    33  ILE33      -0.1245
      2  CA       -13.3930    1.4390  -22.9880 C.3    33  ILE33       0.1561
      3  C        -13.6880   -0.0700  -22.9250 C.2    33  ILE33       0.2260
      4  O        -14.1840   -0.6410  -23.8950 O.2    33  ILE33      -0.2867
      5  CB       -14.5720    2.3260  -22.4840 C.3    33  ILE33       0.0252
      6  CG1      -14.9150    2.0440  -20.9930 C.3    33  ILE33       0.0019
      7  CG2      -15.8030    2.2080  -23.3910 C.3    33  ILE33       0.0019
      8  CD1      -15.5080    3.2060  -20.1870 C.3    33  ILE33       0.0001
      9  N        -15.3950   -2.9290  -20.2110 N.3    35  LEU35      -0.1245
     10  CA       -16.1200   -3.2840  -18.9970 C.3    35  LEU35       0.1561
     11  C        -16.2640   -4.7910  -18.9060 C.2    35  LEU35       0.2260
     12  O        -16.8470   -5.4260  -19.7930 O.2    35  LEU35      -0.2867
     13  CB       -17.4680   -2.5640  -18.8950 C.3    35  LEU35       0.0270
     14  CG       -17.3740   -1.0590  -18.6700 C.3    35  LEU35       0.0019
     15  CD1      -17.6640   -0.3050  -19.9490 C.3    35  LEU35       0.0001
     16  CD2      -18.3220   -0.6210  -17.5920 C.3    35  LEU35       0.0001
     17  N        -17.4410   -5.9860  -22.5510 N.3    54  ALA54      -0.1231
     18  CA       -18.1720   -4.9630  -23.3000 C.3    54  ALA54       0.1694
     19  C        -17.1340   -3.9420  -23.7290 C.2    54  ALA54       0.2592
     20  O        -16.4790   -3.3420  -22.8740 O.2    54  ALA54      -0.2718
     21  CB       -19.2360   -4.3130  -22.4230 C.3    54  ALA54       0.0304
     22  N        -16.9090   -3.8070  -25.0400 N.am   55  VAL55      -0.1966
     23  CA       -15.8750   -2.9020  -25.5380 C.3    55  VAL55       0.1727
     24  C        -16.4370   -1.9030  -26.5430 C.2    55  VAL55       0.2616
     25  O        -17.1280   -2.3080  -27.4660 O.2    55  VAL55      -0.2715
     26  CB       -14.6520   -3.6920  -26.1060 C.3    55  VAL55       0.0290
     27  CG1      -13.5780   -2.7600  -26.6740 C.3    55  VAL55       0.0023
     28  CG2      -14.0460   -4.6250  -25.0580 C.3    55  VAL55       0.0023
     29  N        -16.1260   -0.6060  -26.3690 N.am   56  ALA56      -0.1977
     30  CA       -16.5050    0.4750  -27.2850 C.3    56  ALA56       0.1597
     31  C        -15.2520    1.3100  -27.5510 C.2    56  ALA56       0.2287
     32  O        -14.7390    1.9710  -26.6470 O.2    56  ALA56      -0.2864
     33  CB       -17.6110    1.3300  -26.6860 C.3    56  ALA56       0.0319
     34  N        -15.7800   -5.1320  -35.6400 N.3    72  ASP72      -0.1239
     35  CA       -16.4360   -3.8260  -35.4840 C.3    72  ASP72       0.1674
     36  C        -15.8440   -3.0760  -34.2870 C.2    72  ASP72       0.2266
     37  O        -15.3000   -3.7110  -33.3770 O.2    72  ASP72      -0.2867
     38  CB       -17.9560   -4.0030  -35.2850 C.3    72  ASP72       0.1410
     39  CG       -18.6880   -4.7330  -36.4010 C.2    72  ASP72       0.3668
     40  OD1      -18.0950   -4.9020  -37.4970 O.co2  72  ASP72      -0.2456
     41  OD2      -19.8590   -5.1150  -36.1890 O.co2  72  ASP72      -0.2456
     42  N        -17.1630   -1.7310  -31.6930 N.3    74  SER74      -0.1202
     43  CA       -17.7450   -2.1990  -30.4390 C.3    74  SER74       0.2020
     44  C        -18.1020   -3.6820  -30.5270 C.2    74  SER74       0.2619
     45  O        -18.4480   -4.1640  -31.6120 O.2    74  SER74      -0.2717
     46  CB       -18.9710   -1.3690  -30.0620 C.3    74  SER74       0.2103
     47  OG       -19.8570   -1.1780  -31.1490 O.3    74  SER74      -0.2182
     48  N        -18.0100   -4.4060  -29.3870 N.am   75  TYR75      -0.1961
     49  CA       -18.3310   -5.8330  -29.2970 C.3    75  TYR75       0.1771
     50  C        -18.6420   -6.3170  -27.8840 C.2    75  TYR75       0.2619
     51  O        -18.1910   -5.7200  -26.9040 O.2    75  TYR75      -0.2715
     52  CB       -17.2260   -6.7130  -29.9330 C.3    75  TYR75       0.0574
     53  CG       -15.8950   -6.7210  -29.2060 C.ar   75  TYR75      -0.0198
     54  CD1      -14.9010   -5.7990  -29.5320 C.ar   75  TYR75      -0.0009
     55  CD2      -15.5970   -7.6890  -28.2530 C.ar   75  TYR75      -0.0009
     56  CE1      -13.6610   -5.8190  -28.8920 C.ar   75  TYR75       0.0417
     57  CE2      -14.3650   -7.7140  -27.6010 C.ar   75  TYR75       0.0417
     58  CZ       -13.3970   -6.7770  -27.9260 C.ar   75  TYR75       0.1957
     59  OH       -12.1780   -6.7940  -27.2890 O.3    75  TYR75      -0.2866
     60  N        -19.3870   -7.4270  -27.7930 N.am   76  LEU76      -0.1977
     61  CA       -19.6930   -8.1070  -26.5370 C.3    76  LEU76       0.1596
     62  C        -19.0490   -9.4790  -26.6130 C.2    76  LEU76       0.2287
     63  O        -19.1210  -10.1290  -27.6610 O.2    76  LEU76      -0.2864
     64  CB       -21.2030   -8.2570  -26.2750 C.3    76  LEU76       0.0297
     65  CG       -22.0440   -6.9960  -26.0710 C.3    76  LEU76       0.0022
     66  CD1      -23.5150   -7.3430  -26.0960 C.3    76  LEU76       0.0001
     67  CD2      -21.6820   -6.2690  -24.7630 C.3    76  LEU76       0.0001
     68  N        -19.4710  -10.8280  -30.5290 N.3   142  THR142     -0.1218
     69  CA       -20.5610  -10.3220  -31.3800 C.3   142  THR142      0.1862
     70  C        -20.0890   -9.8840  -32.7690 C.2   142  THR142      0.2287
     71  O        -20.8850   -9.8920  -33.7080 O.2   142  THR142     -0.2866
     72  CB       -21.3270   -9.1790  -30.6990 C.3   142  THR142      0.1770
     73  OG1      -20.4110   -8.1460  -30.3300 O.3   142  THR142     -0.2211
     74  CG2      -22.1290   -9.6420  -29.4960 C.3   142  THR142      0.0375
@<TRIPOS>BOND
     1    40    39   ar
     2    39    41   ar
     3    39    38    1
     4    34    35    1
     5    35    38    1
     6    35    36    1
     7    36    37    2
     8    71    70    2
     9    70    69    1
    10    42    43    1
    11    45    44    2
    12    69    72    1
    13    69    68    1
    14    47    46    1
    15    72    73    1
    16    72    74    1
    17    44    43    1
    18    44    48   am
    19    43    46    1
    20    52    49    1
    21    52    53    1
    22    54    53   ar
    23    54    56   ar
    24    48    49    1
    25    49    50    1
    26    53    55   ar
    27    56    58   ar
    28    55    57   ar
    29    58    57   ar
    30    58    59    1
    31    50    60   am
    32    50    51    2
    33    60    61    1
    34    63    62    2
    35    31    30    1
    36    31    32    2
    37    25    24    2
    38    30    33    1
    39    30    29    1
    40    27    26    1
    41    62    61    1
    42    24    29   am
    43    24    23    1
    44    61    64    1
    45    64    65    1
    46    26    23    1
    47    26    28    1
    48    66    65    1
    49    65    67    1
    50    23    22    1
    51    22    19   am
    52     1     2    1
    53     4     3    2
    54    19    18    1
    55    19    20    2
    56     7     5    1
    57    18    17    1
    58    18    21    1
    59     2     3    1
    60     2     5    1
    61     5     6    1
    62     6     8    1
    63     9    10    1
    64    15    14    1
    65    12    11    2
    66    10    11    1
    67    10    13    1
    68    13    14    1
    69    14    16    1
