@<TRIPOS>MOLECULE
tmp/4xnuA01.pdb
 158 148 0 0 0
SMALL
GASTEIGER

@<TRIPOS>ATOM
      1  N         -3.3930   -8.8530   27.9010 N.3    19  PHE19      -0.1227
      2  CA        -4.4340   -7.8340   27.8570 C.3    19  PHE19       0.1736
      3  C         -3.9650   -6.5010   28.4290 C.2    19  PHE19       0.2595
      4  O         -4.2290   -5.4440   27.8570 O.2    19  PHE19      -0.2718
      5  CB        -5.6810   -8.2730   28.6220 C.3    19  PHE19       0.0547
      6  CG        -6.5350   -7.1180   29.0620 C.ar   19  PHE19      -0.0202
      7  CD1       -7.3570   -6.4650   28.1570 C.ar   19  PHE19      -0.0042
      8  CD2       -6.4840   -6.6530   30.3680 C.ar   19  PHE19      -0.0042
      9  CE1       -8.1240   -5.3870   28.5480 C.ar   19  PHE19      -0.0003
     10  CE2       -7.2480   -5.5730   30.7640 C.ar   19  PHE19      -0.0003
     11  CZ        -8.0630   -4.9340   29.8500 C.ar   19  PHE19      -0.0000
     12  N         -3.2980   -6.5590   29.5770 N.am   20  ALA20      -0.1980
     13  CA        -2.9180   -5.3540   30.3070 C.3    20  ALA20       0.1597
     14  C         -1.9040   -4.5050   29.5430 C.2    20  ALA20       0.2287
     15  O         -2.0080   -3.2800   29.5260 O.2    20  ALA20      -0.2864
     16  CB        -2.3700   -5.7190   31.6800 C.3    20  ALA20       0.0319
     17  N         -0.1590   -3.0800   26.1670 N.3    22  ASP22      -0.1239
     18  CA        -0.4570   -2.8560   24.7640 C.3    22  ASP22       0.1674
     19  C          0.3010   -1.6350   24.2810 C.2    22  ASP22       0.2266
     20  O          1.3310   -1.2700   24.8510 O.2    22  ASP22      -0.2867
     21  CB        -1.9660   -2.6950   24.5400 C.3    22  ASP22       0.1410
     22  CG        -2.5250   -1.4320   25.1670 C.2    22  ASP22       0.3668
     23  OD1       -1.9710   -0.9710   26.1850 O.co2  22  ASP22      -0.2456
     24  OD2       -3.5300   -0.9070   24.6440 O.co2  22  ASP22      -0.2456
     25  N         -0.4090    1.4220   24.5310 N.3    24  ALA24      -0.1245
     26  CA        -0.4190    2.5140   25.5060 C.3    24  ALA24       0.1562
     27  C          0.8410    2.5270   26.3800 C.2    24  ALA24       0.2260
     28  O          1.2990    3.5900   26.7970 O.2    24  ALA24      -0.2867
     29  CB        -1.6620    2.4370   26.3760 C.3    24  ALA24       0.0290
     30  N        -19.3920   -1.6750   25.8230 N.3    92  ILE92      -0.1231
     31  CA       -18.1940   -0.8450   25.7310 C.3    92  ILE92       0.1692
     32  C        -17.0860   -1.6380   25.0520 C.2    92  ILE92       0.2591
     33  O        -16.4720   -1.1700   24.0970 O.2    92  ILE92      -0.2718
     34  CB       -17.7090   -0.3650   27.1080 C.3    92  ILE92       0.0266
     35  CG1      -18.5200    0.8410   27.5680 C.3    92  ILE92       0.0019
     36  CG2      -16.2420    0.0240   27.0530 C.3    92  ILE92       0.0020
     37  CD1      -18.2000    1.2740   28.9750 C.3    92  ILE92       0.0001
     38  N        -16.8450   -2.8480   25.5490 N.am   93  ALA93      -0.1980
     39  CA       -15.8730   -3.7530   24.9470 C.3    93  ALA93       0.1597
     40  C        -16.2420   -4.0280   23.4950 C.2    93  ALA93       0.2287
     41  O        -15.3770   -4.2620   22.6510 O.2    93  ALA93      -0.2864
     42  CB       -15.7960   -5.0520   25.7330 C.3    93  ALA93       0.0319
     43  N        -15.2920   -0.8050   21.3150 N.3    96  VAL96      -0.1231
     44  CA       -13.8560   -0.6230   21.1330 C.3    96  VAL96       0.1692
     45  C        -13.3020   -1.5280   20.0370 C.2    96  VAL96       0.2592
     46  O        -12.4140   -1.1290   19.2840 O.2    96  VAL96      -0.2718
     47  CB       -13.0890   -0.8800   22.4450 C.3    96  VAL96       0.0266
     48  CG1      -11.6010   -0.6460   22.2510 C.3    96  VAL96       0.0020
     49  CG2      -13.6120    0.0260   23.5390 C.3    96  VAL96       0.0020
     50  N        -13.8390   -2.7400   19.9390 N.am   97  ASP97      -0.1974
     51  CA       -13.4080   -3.6890   18.9160 C.3    97  ASP97       0.1709
     52  C        -13.6510   -3.1590   17.5040 C.2    97  ASP97       0.2293
     53  O        -13.0310   -3.6170   16.5440 O.2    97  ASP97      -0.2864
     54  CB       -14.1240   -5.0290   19.0950 C.3    97  ASP97       0.1436
     55  CG       -13.4520   -5.9220   20.1220 C.2    97  ASP97       0.3671
     56  OD1      -12.2050   -5.9250   20.1920 O.co2  97  ASP97      -0.2456
     57  OD2      -14.1740   -6.6270   20.8600 O.co2  97  ASP97      -0.2456
     58  N        -12.9430   -0.1390   16.4940 N.3    99  TYR99      -0.1227
     59  CA       -11.9020    0.7980   16.0890 C.3    99  TYR99       0.1736
     60  C        -10.5050    0.3880   16.5420 C.2    99  TYR99       0.2595
     61  O         -9.5200    0.7600   15.9100 O.2    99  TYR99      -0.2718
     62  CB       -12.2220    2.2080   16.6050 C.3    99  TYR99       0.0548
     63  CG       -11.8920    2.4680   18.0620 C.ar   99  TYR99      -0.0200
     64  CD1      -10.6370    2.9290   18.4380 C.ar   99  TYR99      -0.0009
     65  CD2      -12.8440    2.2820   19.0560 C.ar   99  TYR99      -0.0009
     66  CE1      -10.3300    3.1770   19.7600 C.ar   99  TYR99       0.0417
     67  CE2      -12.5460    2.5330   20.3840 C.ar   99  TYR99       0.0417
     68  CZ       -11.2860    2.9780   20.7280 C.ar   99  TYR99       0.1957
     69  OH       -10.9760    3.2280   22.0450 O.3    99  TYR99      -0.2866
     70  N        -10.4140   -0.3700   17.6300 N.am  100  TYR100     -0.1976
     71  CA        -9.1100   -0.7470   18.1750 C.3   100  TYR100      0.1639
     72  C         -8.3300   -1.6470   17.2210 C.2   100  TYR100      0.2290
     73  O         -7.1370   -1.4490   17.0100 O.2   100  TYR100     -0.2864
     74  CB        -9.2700   -1.4460   19.5280 C.3   100  TYR100      0.0560
     75  CG        -7.9610   -1.7650   20.2200 C.ar  100  TYR100     -0.0198
     76  CD1       -7.3020   -2.9670   19.9890 C.ar  100  TYR100     -0.0009
     77  CD2       -7.3880   -0.8670   21.1130 C.ar  100  TYR100     -0.0009
     78  CE1       -6.1080   -3.2610   20.6170 C.ar  100  TYR100      0.0417
     79  CE2       -6.1950   -1.1540   21.7490 C.ar  100  TYR100      0.0417
     80  CZ        -5.5590   -2.3510   21.4960 C.ar  100  TYR100      0.1957
     81  OH        -4.3730   -2.6400   22.1280 O.3   100  TYR100     -0.2866
     82  N         -6.3880    3.4470   32.6610 N.3   252  PHE252     -0.1227
     83  CA        -6.6070    2.8850   31.3320 C.3   252  PHE252      0.1736
     84  C         -5.5350    1.8760   30.9180 C.2   252  PHE252      0.2596
     85  O         -5.7570    1.0700   30.0160 O.2   252  PHE252     -0.2718
     86  CB        -6.6930    4.0060   30.2930 C.3   252  PHE252      0.0547
     87  CG        -7.9850    4.7680   30.3310 C.ar  252  PHE252     -0.0202
     88  CD1       -9.1370    4.2290   29.7820 C.ar  252  PHE252     -0.0042
     89  CD2       -8.0510    6.0220   30.9140 C.ar  252  PHE252     -0.0042
     90  CE1      -10.3330    4.9230   29.8170 C.ar  252  PHE252     -0.0003
     91  CE2       -9.2450    6.7220   30.9510 C.ar  252  PHE252     -0.0003
     92  CZ       -10.3860    6.1710   30.4010 C.ar  252  PHE252     -0.0000
     93  N         -4.3760    1.9150   31.5710 N.am  253  SER253     -0.1952
     94  CA        -3.2900    1.0020   31.2220 C.3   253  SER253      0.1924
     95  C         -3.3730   -0.3140   31.9900 C.2   253  SER253      0.2314
     96  O         -2.7010   -1.2830   31.6400 O.2   253  SER253     -0.2863
     97  CB        -1.9310    1.6570   31.4670 C.3   253  SER253      0.2116
     98  OG        -0.8800    0.7190   31.3060 O.3   253  SER253     -0.2180
     99  N         -6.6850   -1.3630   32.9210 N.3   255  GLY255     -0.1225
    100  CA        -8.0160   -1.7910   32.5280 C.3   255  GLY255      0.1811
    101  C         -8.8330   -2.5440   33.5690 C.2   255  GLY255      0.2280
    102  O         -9.3090   -3.6470   33.2930 O.2   255  GLY255     -0.2866
    103  N        -13.3460   -3.4980   33.5080 N.3   258  PHE258     -0.1241
    104  CA       -13.6990   -3.4920   32.0910 C.3   258  PHE258      0.1605
    105  C        -14.3860   -4.7890   31.6700 C.2   258  PHE258      0.2264
    106  O        -14.7990   -4.9310   30.5210 O.2   258  PHE258     -0.2867
    107  CB       -12.4520   -3.2700   31.2300 C.3   258  PHE258      0.0534
    108  CG       -12.0270   -1.8310   31.1180 C.ar  258  PHE258     -0.0203
    109  CD1      -11.4720   -1.1700   32.2000 C.ar  258  PHE258     -0.0042
    110  CD2      -12.1480   -1.1520   29.9170 C.ar  258  PHE258     -0.0042
    111  CE1      -11.0660    0.1490   32.0960 C.ar  258  PHE258     -0.0003
    112  CE2      -11.7440    0.1660   29.8060 C.ar  258  PHE258     -0.0003
    113  CZ       -11.2010    0.8160   30.8970 C.ar  258  PHE258     -0.0000
    114  N        -13.0410   -7.7810   31.5100 N.3   260  VAL260     -0.1245
    115  CA       -12.0910   -8.7350   30.9390 C.3   260  VAL260      0.1561
    116  C        -11.2690   -9.5200   31.9660 C.2   260  VAL260      0.2260
    117  O        -11.0760  -10.7310   31.8220 O.2   260  VAL260     -0.2867
    118  CB       -11.1470   -8.0070   29.9830 C.3   260  VAL260      0.0252
    119  CG1      -10.5430   -6.8280   30.6910 C.3   260  VAL260      0.0019
    120  CG2      -10.0450   -8.9490   29.5150 C.3   260  VAL260      0.0019
    121  N         -4.6880   -8.0170   23.6230 N.3   354  SER354     -0.1202
    122  CA        -5.6000   -7.0660   24.2450 C.3   354  SER354      0.2020
    123  C         -6.9640   -7.1930   23.5950 C.2   354  SER354      0.2619
    124  O         -7.9920   -7.1800   24.2720 O.2   354  SER354     -0.2717
    125  CB        -5.0830   -5.6330   24.1170 C.3   354  SER354      0.2103
    126  OG        -4.0500   -5.3750   25.0490 O.3   354  SER354     -0.2182
    127  N         -6.9570   -7.3230   22.2710 N.am  355  SER355     -0.1951
    128  CA        -8.1790   -7.5180   21.5020 C.3   355  SER355      0.1924
    129  C         -8.8370   -8.8490   21.8500 C.2   355  SER355      0.2314
    130  O        -10.0560   -8.9890   21.7520 O.2   355  SER355     -0.2863
    131  CB        -7.8840   -7.4540   20.0020 C.3   355  SER355      0.2116
    132  OG        -9.0720   -7.5950   19.2450 O.3   355  SER355     -0.2180
    133  N        -10.6750   -8.1120   25.2640 N.3   358  GLY358     -0.1225
    134  CA       -11.8580   -7.3100   25.0120 C.3   358  GLY358      0.1811
    135  C        -12.9990   -8.1500   24.4750 C.2   358  GLY358      0.2280
    136  O        -14.1250   -8.0670   24.9600 O.2   358  GLY358     -0.2866
    137  N        -14.2030  -10.9080   26.9430 N.3   361  ALA361     -0.1245
    138  CA       -15.0430  -10.3030   27.9680 C.3   361  ALA361      0.1562
    139  C        -16.5040  -10.3560   27.5460 C.2   361  ALA361      0.2260
    140  O        -17.3900  -10.5650   28.3710 O.2   361  ALA361     -0.2867
    141  CB       -14.6160   -8.8690   28.2320 C.3   361  ALA361      0.0290
    142  N        -12.5920    6.5910   19.2030 N.3   408  ASP408     -0.1239
    143  CA       -11.5210    6.6590   20.1910 C.3   408  ASP408      0.1674
    144  C        -11.7960    7.6930   21.2800 C.2   408  ASP408      0.2266
    145  O        -11.4700    7.4770   22.4470 O.2   408  ASP408     -0.2867
    146  CB       -10.1890    6.9720   19.5090 C.3   408  ASP408      0.1410
    147  CG        -9.0490    7.1070   20.4970 C.2   408  ASP408      0.3668
    148  OD1       -9.0290    6.3450   21.4870 O.co2 408  ASP408     -0.2456
    149  OD2       -8.1780    7.9780   20.2890 O.co2 408  ASP408     -0.2456
    150  N        -15.4580    4.5920   24.5790 N.3   412  ALA412     -0.1231
    151  CA       -15.1980    3.9790   25.8800 C.3   412  ALA412      0.1694
    152  C        -14.5750    4.9340   26.8940 C.2   412  ALA412      0.2592
    153  O        -14.5500    4.6400   28.0880 O.2   412  ALA412     -0.2718
    154  CB       -14.3060    2.7670   25.7090 C.3   412  ALA412      0.0304
    155  N        -14.0680    6.0680   26.4220 N.am  413  GLY413     -0.1957
    156  CA       -13.3850    7.0210   27.2840 C.3   413  GLY413      0.1869
    157  C        -14.1140    7.4430   28.5510 C.2   413  GLY413      0.2309
    158  O        -13.5750    7.3190   29.6500 O.2   413  GLY413     -0.2863
@<TRIPOS>BOND
     1    61    60    2
     2    59    58    1
     3    59    60    1
     4    59    62    1
     5    60    70   am
     6    53    52    2
     7    62    63    1
     8    73    72    2
     9    72    71    1
    10    52    51    1
    11    70    71    1
    12    63    64   ar
    13    63    65   ar
    14    71    74    1
    15    64    66   ar
    16    51    54    1
    17    51    50    1
    18    65    67   ar
    19    54    55    1
    20   142   143    1
    21   132   131    1
    22    46    45    2
    23   146   143    1
    24   146   147    1
    25    74    75    1
    26    66    68   ar
    27    50    45   am
    28    76    75   ar
    29    76    78   ar
    30   131   128    1
    31    45    44    1
    32    55    56   ar
    33    55    57   ar
    34   143   144    1
    35    75    77   ar
    36   149   147   ar
    37    67    68   ar
    38   147   148   ar
    39    78    80   ar
    40    68    69    1
    41    77    79   ar
    42    44    43    1
    43    44    47    1
    44   144   145    2
    45    80    79   ar
    46    80    81    1
    47   128   129    1
    48   128   127    1
    49   130   129    2
    50    48    47    1
    51   127   123   am
    52    47    49    1
    53    41    40    2
    54    40    39    1
    55   123   122    1
    56   123   124    2
    57   121   122    1
    58    33    32    2
    59   125   122    1
    60   125   126    1
    61    19    18    1
    62    19    20    2
    63   135   136    2
    64   135   134    1
    65    25    26    1
    66    21    18    1
    67    21    22    1
    68   150   151    1
    69    24    22   ar
    70    18    17    1
    71    39    38    1
    72    39    42    1
    73   134   133    1
    74    32    38   am
    75    32    31    1
    76    22    23   ar
    77    26    29    1
    78    26    27    1
    79   154   151    1
    80    31    30    1
    81    31    34    1
    82   151   152    1
    83    27    28    2
    84   155   152   am
    85   155   156    1
    86   152   153    2
    87   137   138    1
    88    36    34    1
    89    34    35    1
    90   156   157    1
    91   139   138    1
    92   139   140    2
    93    35    37    1
    94     4     3    2
    95     2     1    1
    96     2     3    1
    97     2     5    1
    98   138   141    1
    99     7     9   ar
   100     7     6   ar
   101     3    12   am
   102     9    11   ar
   103   157   158    2
   104     5     6    1
   105     6     8   ar
   106   120   118    1
   107    15    14    2
   108    14    13    1
   109    12    13    1
   110    88    90   ar
   111    88    87   ar
   112   112   110   ar
   113   112   113   ar
   114    90    92   ar
   115    11    10   ar
   116   110   108   ar
   117   118   119    1
   118   118   115    1
   119    85    84    2
   120    86    87    1
   121    86    83    1
   122    13    16    1
   123    87    89   ar
   124     8    10   ar
   125    92    91   ar
   126   106   105    2
   127   113   111   ar
   128    89    91   ar
   129    84    83    1
   130    84    93   am
   131   115   114    1
   132   115   116    1
   133   108   107    1
   134   108   109   ar
   135    94    97    1
   136    94    93    1
   137    94    95    1
   138   107   104    1
   139    98    97    1
   140    83    82    1
   141    96    95    2
   142   105   104    1
   143   117   116    2
   144   104   103    1
   145   111   109   ar
   146   100    99    1
   147   100   101    1
   148   102   101    2
