@<TRIPOS>MOLECULE
tmp/4xnvA07.pdb
 142 132 0 0 0
SMALL
GASTEIGER

@<TRIPOS>ATOM
      1  N         -8.2560   21.6420   25.7670 N.3    51  TYR51      -0.1241
      2  CA        -8.3060   20.8970   24.5080 C.3    51  TYR51       0.1605
      3  C         -9.6310   21.1080   23.7630 C.2    51  TYR51       0.2264
      4  O         -9.6320   21.2370   22.5330 O.2    51  TYR51      -0.2867
      5  CB        -8.0660   19.3890   24.7340 C.3    51  TYR51       0.0534
      6  CG        -6.7820   19.0180   25.4470 C.ar   51  TYR51      -0.0201
      7  CD1       -5.5590   19.5670   25.0610 C.ar   51  TYR51      -0.0009
      8  CD2       -6.7710   18.0410   26.4390 C.ar   51  TYR51      -0.0009
      9  CE1       -4.3700   19.1920   25.6820 C.ar   51  TYR51       0.0417
     10  CE2       -5.5870   17.6600   27.0690 C.ar   51  TYR51       0.0417
     11  CZ        -4.3900   18.2410   26.6900 C.ar   51  TYR51       0.1957
     12  OH        -3.2260   17.8700   27.3150 O.3    51  TYR51      -0.2866
     13  N         -5.8770   15.7260   16.2390 N.3   102  LEU102     -0.1245
     14  CA        -4.8970   15.8050   17.3150 C.3   102  LEU102      0.1561
     15  C         -5.5070   16.2300   18.6500 C.2   102  LEU102      0.2260
     16  O         -5.1030   15.6950   19.6810 O.2   102  LEU102     -0.2867
     17  CB        -3.6470   16.6420   16.9410 C.3   102  LEU102      0.0270
     18  CG        -2.7530   16.1720   15.7680 C.3   102  LEU102      0.0019
     19  CD1       -1.3590   16.7760   15.8750 C.3   102  LEU102      0.0001
     20  CD2       -2.6070   14.6700   15.7230 C.3   102  LEU102      0.0001
     21  N         -7.3060   13.3420   20.0450 N.3   105  THR105     -0.1203
     22  CA        -6.3030   12.4300   20.5930 C.3   105  THR105      0.1994
     23  C         -5.9070   12.9020   22.0000 C.2   105  THR105      0.2618
     24  O         -5.7890   12.0700   22.9040 O.2   105  THR105     -0.2717
     25  CB        -5.1050   12.2670   19.6480 C.3   105  THR105      0.1784
     26  OG1       -5.5700   11.9820   18.3270 O.3   105  THR105     -0.2211
     27  CG2       -4.1560   11.1640   20.0960 C.3   105  THR105      0.0376
     28  N         -5.7380   14.2340   22.1810 N.am  106  CYS106     -0.1969
     29  CA        -5.4030   14.8700   23.4630 C.3   106  CYS106      0.1712
     30  C         -6.4660   14.5550   24.5040 C.2   106  CYS106      0.2296
     31  O         -6.1220   14.1260   25.6080 O.2   106  CYS106     -0.2864
     32  CB        -5.2290   16.3760   23.2950 C.3   106  CYS106      0.0983
     33  SG        -3.6900   16.8610   22.4800 S.3   106  CYS106     -0.0798
     34  N         -6.3380   10.7570   25.3000 N.3   109  ALA109     -0.1231
     35  CA        -5.1700   10.4730   26.1460 C.3   109  ALA109      0.1694
     36  C         -5.3520   11.0260   27.5660 C.2   109  ALA109      0.2592
     37  O         -4.9130   10.3910   28.5310 O.2   109  ALA109     -0.2718
     38  CB        -3.9100   11.0430   25.5150 C.3   109  ALA109      0.0304
     39  N         -6.0360   12.1850   27.6920 N.am  110  HIS110     -0.1976
     40  CA        -6.3240   12.8210   28.9770 C.3   110  HIS110      0.1656
     41  C         -7.3160   11.9780   29.7940 C.2   110  HIS110      0.2291
     42  O         -7.0590   11.7300   30.9720 O.2   110  HIS110     -0.2864
     43  CB        -6.8280   14.2600   28.7830 C.3   110  HIS110      0.0771
     44  CG        -6.9050   15.0410   30.0540 C.ar  110  HIS110      0.0820
     45  ND1       -5.8450   15.8250   30.4850 N.ar  110  HIS110     -0.2267
     46  CD2       -7.9020   15.1160   30.9650 C.ar  110  HIS110      0.1154
     47  CE1       -6.2370   16.3610   31.6280 C.ar  110  HIS110      0.1986
     48  NE2       -7.4690   15.9660   31.9570 N.ar  110  HIS110     -0.2212
     49  N         -5.6960    8.8610   31.1720 N.3   113  SER113     -0.1217
     50  CA        -4.9010    9.2150   32.3480 C.3   113  SER113      0.1889
     51  C         -5.7860    9.3980   33.5880 C.2   113  SER113      0.2288
     52  O         -5.3880    9.0030   34.6770 O.2   113  SER113     -0.2866
     53  CB        -4.0790   10.4710   32.0880 C.3   113  SER113      0.2089
     54  OG        -2.9660   10.1850   31.2580 O.3   113  SER113     -0.2183
     55  N         -2.2790   19.7200   35.3020 N.3   125  LYS125     -0.1245
     56  CA        -2.9700   19.2090   34.1170 C.3   125  LYS125      0.1561
     57  C         -3.3720   20.3480   33.1820 C.2   125  LYS125      0.2260
     58  O         -3.2990   20.1690   31.9690 O.2   125  LYS125     -0.2867
     59  CB        -4.1850   18.3470   34.4910 C.3   125  LYS125      0.0271
     60  CG        -3.8190   16.9160   34.8750 C.3   125  LYS125      0.0035
     61  CD        -5.0360   16.0960   35.2910 C.3   125  LYS125      0.0206
     62  CE        -5.2540   16.0790   36.7870 C.3   125  LYS125      0.1093
     63  NZ        -6.4550   15.2890   37.1620 N.3   125  LYS125     -0.1314
     64  N         -0.0360   21.9040   31.5600 N.3   128  ASN128     -0.1225
     65  CA         0.4370   20.9200   30.5910 C.3   128  ASN128      0.1785
     66  C         -0.4670   20.9130   29.3560 C.2   128  ASN128      0.2597
     67  O          0.0500   20.8880   28.2430 O.2   128  ASN128     -0.2718
     68  CB         0.5430   19.5240   31.2140 C.3   128  ASN128      0.1169
     69  CG         1.8070   19.2680   32.0090 C.2   128  ASN128      0.2627
     70  OD1        2.5690   20.1760   32.3620 O.2   128  ASN128     -0.2716
     71  ND2        2.0530   18.0100   32.3240 N.am  128  ASN128     -0.0877
     72  N         -1.8060   20.9970   29.5510 N.am  129  ALA129     -0.1979
     73  CA        -2.7880   21.0480   28.4630 C.3   129  ALA129      0.1597
     74  C         -2.5780   22.2670   27.5740 C.2   129  ALA129      0.2287
     75  O         -2.6610   22.1280   26.3560 O.2   129  ALA129     -0.2864
     76  CB        -4.2060   21.0290   29.0080 C.3   129  ALA129      0.0319
     77  N          0.7920   21.6070   25.6450 N.3   132  ILE132     -0.1245
     78  CA         0.5180   20.5730   24.6480 C.3   132  ILE132      0.1561
     79  C         -0.2870   21.1620   23.4790 C.2   132  ILE132      0.2260
     80  O          0.0880   20.9410   22.3220 O.2   132  ILE132     -0.2867
     81  CB        -0.1010   19.2970   25.3050 C.3   132  ILE132      0.0252
     82  CG1        0.9810   18.5300   26.1130 C.3   132  ILE132      0.0019
     83  CG2       -0.7730   18.3740   24.2790 C.3   132  ILE132      0.0019
     84  CD1        0.4580   17.6400   27.2440 C.3   132  ILE132      0.0001
     85  N          1.9570   23.2620   21.2170 N.3   135  LEU135     -0.1231
     86  CA         2.7650   22.3230   20.4320 C.3   135  LEU135      0.1693
     87  C          1.9410   21.7110   19.2990 C.2   135  LEU135      0.2591
     88  O          2.4080   21.7000   18.1630 O.2   135  LEU135     -0.2718
     89  CB         3.3870   21.2240   21.3180 C.3   135  LEU135      0.0284
     90  CG         4.3210   21.6940   22.4550 C.3   135  LEU135      0.0019
     91  CD1        4.7030   20.5330   23.3680 C.3   135  LEU135      0.0001
     92  CD2        5.5770   22.4180   21.9220 C.3   135  LEU135      0.0001
     93  N          0.6890   21.2800   19.5980 N.am  136  VAL136     -0.1980
     94  CA        -0.2350   20.7080   18.6190 C.3   136  VAL136      0.1595
     95  C         -0.4730   21.7010   17.4710 C.2   136  VAL136      0.2287
     96  O         -0.3150   21.3240   16.3110 O.2   136  VAL136     -0.2864
     97  CB        -1.5560   20.1690   19.2550 C.3   136  VAL136      0.0276
     98  CG1       -2.5840   19.8110   18.1840 C.3   136  VAL136      0.0022
     99  CG2       -1.2850   18.9610   20.1520 C.3   136  VAL136      0.0022
    100  N          2.8050   21.9290   15.4280 N.3   139  ILE139     -0.1245
    101  CA         2.9560   20.7140   14.6230 C.3   139  ILE139      0.1561
    102  C          2.0230   20.7640   13.3890 C.2   139  ILE139      0.2260
    103  O          2.4910   20.5670   12.2620 O.2   139  ILE139     -0.2867
    104  CB         2.7320   19.4290   15.4850 C.3   139  ILE139      0.0252
    105  CG1        3.8820   19.2150   16.5040 C.3   139  ILE139      0.0019
    106  CG2        2.5320   18.1810   14.6110 C.3   139  ILE139      0.0019
    107  CD1        3.4810   18.4510   17.7920 C.3   139  ILE139      0.0001
    108  N          0.9880    9.9960    9.5070 N.3   185  ALA185     -0.1231
    109  CA         1.4280   10.6380   10.7390 C.3   185  ALA185      0.1694
    110  C          0.3510   11.3330   11.5590 C.2   185  ALA185      0.2591
    111  O          0.4290   11.3130   12.7890 O.2   185  ALA185     -0.2718
    112  CB         2.5950   11.5810   10.4590 C.3   185  ALA185      0.0304
    113  N         -0.6350   11.9670   10.9020 N.am  186  MET186     -0.1979
    114  CA        -1.6570   12.7410   11.6250 C.3   186  MET186      0.1605
    115  C         -3.0760   12.2050   11.5900 C.2   186  MET186      0.2287
    116  O         -3.9830   12.8080   12.1650 O.2   186  MET186     -0.2864
    117  CB        -1.5740   14.2270   11.2990 C.3   186  MET186      0.0413
    118  CG        -0.2620   14.8530   11.7590 C.3   186  MET186      0.0598
    119  SD        -0.2590   16.6380   11.6340 S.3   186  MET186     -0.1393
    120  CE        -0.4820   16.8250    9.8760 C.3   186  MET186      0.0692
    121  N         -1.6520    7.1790   12.8660 N.3   189  VAL189     -0.1231
    122  CA        -1.0210    7.0980   14.1860 C.3   189  VAL189      0.1678
    123  C         -1.9870    7.5970   15.2720 C.2   189  VAL189      0.2434
    124  O         -2.3120    6.7980   16.1450 O.2   189  VAL189     -0.2733
    125  CB         0.4040    7.7050   14.2740 C.3   189  VAL189      0.0265
    126  CG1        0.9530    7.6040   15.6990 C.3   189  VAL189      0.0020
    127  CG2        1.3500    7.0300   13.2820 C.3   189  VAL189      0.0020
    128  N         -2.5620    8.8250   15.2050 N.am  190  PRO190     -0.2729
    129  CA        -3.5610    9.2070   16.2170 C.3   190  PRO190      0.1401
    130  C         -4.7310    8.2150   16.3360 C.2   190  PRO190      0.2269
    131  O         -5.1760    7.9640   17.4500 O.2   190  PRO190     -0.2865
    132  CB        -4.0180   10.5910   15.7500 C.3   190  PRO190      0.0296
    133  CG        -2.8310   11.1320   15.0130 C.3   190  PRO190      0.0237
    134  CD        -2.3270    9.9390   14.2600 C.3   190  PRO190      0.0939
    135  N         -3.6520    5.2720   18.4110 N.3   193  LEU193     -0.1245
    136  CA        -3.4960    5.7930   19.7600 C.3   193  LEU193      0.1561
    137  C         -4.8390    5.9840   20.4580 C.2   193  LEU193      0.2260
    138  O         -4.9680    5.6130   21.6260 O.2   193  LEU193     -0.2867
    139  CB        -2.6570    7.0820   19.7680 C.3   193  LEU193      0.0270
    140  CG        -2.0820    7.4730   21.1250 C.3   193  LEU193      0.0019
    141  CD1       -1.0520    6.4380   21.6240 C.3   193  LEU193      0.0001
    142  CD2       -1.4400    8.8180   21.0570 C.3   193  LEU193      0.0001
@<TRIPOS>BOND
     1   108   109    1
     2   120   119    1
     3   112   109    1
     4   109   110    1
     5   113   110   am
     6   113   114    1
     7   117   114    1
     8   117   118    1
     9   110   111    2
    10   115   114    1
    11   115   116    2
    12   119   118    1
    13   103   102    2
    14   121   122    1
    15   127   125    1
    16   102   101    1
    17   122   125    1
    18   122   123    1
    19   134   133    1
    20   134   128    1
    21   125   126    1
    22   106   104    1
    23   101   100    1
    24   101   104    1
    25   133   132    1
    26   128   123   am
    27   128   129    1
    28   123   124    2
    29   104   105    1
    30    20    18    1
    31   132   129    1
    32    18    19    1
    33    18    17    1
    34   129   130    1
    35    13    14    1
    36    96    95    2
    37   130   131    2
    38   105   107    1
    39    17    14    1
    40    14    15    1
    41    95    94    1
    42    88    87    2
    43    98    97    1
    44    26    25    1
    45   135   136    1
    46    94    97    1
    47    94    93    1
    48    15    16    2
    49    97    99    1
    50    87    93   am
    51    87    86    1
    52    25    27    1
    53    25    22    1
    54   136   139    1
    55   136   137    1
    56   139   140    1
    57    21    22    1
    58    86    85    1
    59    86    89    1
    60   137   138    2
    61    22    23    1
    62   142   140    1
    63   140   141    1
    64    89    90    1
    65    92    90    1
    66    23    28   am
    67    23    24    2
    68    28    29    1
    69    80    79    2
    70    90    91    1
    71    33    32    1
    72     4     3    2
    73    32    29    1
    74    29    30    1
    75    79    78    1
    76     3     2    1
    77    83    81    1
    78    30    31    2
    79     2     5    1
    80     2     1    1
    81    78    81    1
    82    78    77    1
    83     5     6    1
    84     7     6   ar
    85     7     9   ar
    86    34    35    1
    87    81    82    1
    88     6     8   ar
    89    38    35    1
    90     9    11   ar
    91    82    84    1
    92    35    36    1
    93    75    74    2
    94     8    10   ar
    95    11    10   ar
    96    11    12    1
    97    36    39   am
    98    36    37    2
    99    74    73    1
   100    39    40    1
   101    67    66    2
   102    73    76    1
   103    73    72    1
   104    43    40    1
   105    43    44    1
   106    40    41    1
   107    66    72   am
   108    66    65    1
   109    41    42    2
   110    44    45   ar
   111    44    46   ar
   112    45    47   ar
   113    65    68    1
   114    65    64    1
   115    46    48   ar
   116    49    50    1
   117    68    69    1
   118    54    53    1
   119    47    48   ar
   120    58    57    2
   121    69    71   am
   122    69    70    2
   123    53    50    1
   124    50    51    1
   125    57    56    1
   126    51    52    2
   127    56    59    1
   128    56    55    1
   129    59    60    1
   130    60    61    1
   131    61    62    1
   132    62    63    1
