@<TRIPOS>MOLECULE
tmp/4xnvA00.pdb
 107 105 0 0 0
SMALL
GASTEIGER

@<TRIPOS>ATOM
      1  N        -22.5520   19.4210   -7.5510 N.3    13  PHE13      -0.1227
      2  CA       -22.7120   20.8750   -7.6190 C.3    13  PHE13       0.1736
      3  C        -23.9240   21.3920   -6.8350 C.2    13  PHE13       0.2595
      4  O        -24.1800   22.5960   -6.8080 O.2    13  PHE13      -0.2718
      5  CB       -22.6510   21.3780   -9.0700 C.3    13  PHE13       0.0547
      6  CG       -21.3110   21.0990   -9.7160 C.ar   13  PHE13      -0.0202
      7  CD1      -20.2130   21.9160   -9.4610 C.ar   13  PHE13      -0.0042
      8  CD2      -21.1390   20.0030  -10.5540 C.ar   13  PHE13      -0.0042
      9  CE1      -18.9710   21.6460  -10.0420 C.ar   13  PHE13      -0.0003
     10  CE2      -19.8970   19.7370  -11.1380 C.ar   13  PHE13      -0.0003
     11  CZ       -18.8220   20.5600  -10.8780 C.ar   13  PHE13      -0.0000
     12  N        -24.6270   20.4780   -6.1510 N.am   14  TYR14      -0.1976
     13  CA       -25.7570   20.7680   -5.2800 C.3    14  TYR14       0.1639
     14  C        -25.4460   20.2490   -3.8670 C.2    14  TYR14       0.2290
     15  O        -25.7070   20.9510   -2.8910 O.2    14  TYR14      -0.2864
     16  CB       -27.0460   20.1370   -5.8290 C.3    14  TYR14       0.0560
     17  CG       -27.5900   20.8260   -7.0620 C.ar   14  TYR14      -0.0198
     18  CD1      -27.1270   20.4920   -8.3340 C.ar   14  TYR14      -0.0009
     19  CD2      -28.5930   21.7860   -6.9640 C.ar   14  TYR14      -0.0009
     20  CE1      -27.6300   21.1190   -9.4750 C.ar   14  TYR14       0.0417
     21  CE2      -29.1090   22.4130   -8.0980 C.ar   14  TYR14       0.0417
     22  CZ       -28.6280   22.0730   -9.3530 C.ar   14  TYR14       0.1957
     23  OH       -29.1390   22.6850  -10.4750 O.3    14  TYR14      -0.2866
     24  N        -22.4460   22.4450   -1.7940 N.3    17  PRO17      -0.2102
     25  CA       -22.9870   23.7320   -1.3040 C.3    17  PRO17       0.1504
     26  C        -24.0940   23.5880   -0.2570 C.2    17  PRO17       0.2575
     27  O        -24.1120   24.4050    0.6570 O.2    17  PRO17      -0.2718
     28  CB       -23.4820   24.4440   -2.5690 C.3    17  PRO17       0.0282
     29  CG       -23.5590   23.4110   -3.6060 C.3    17  PRO17       0.0208
     30  CD       -22.5790   22.3350   -3.2640 C.3    17  PRO17       0.0893
     31  N        -24.9690   22.5350   -0.3470 N.am   18  ALA18      -0.1980
     32  CA       -26.0330   22.3020    0.6390 C.3    18  ALA18       0.1597
     33  C        -25.4390   21.9040    1.9930 C.2    18  ALA18       0.2287
     34  O        -25.8140   22.4850    3.0110 O.2    18  ALA18      -0.2864
     35  CB       -27.0190   21.2500    0.1490 C.3    18  ALA18       0.0319
     36  N        -23.7720   24.9410    3.6040 N.3    21  ILE21      -0.1231
     37  CA       -24.7640   25.8710    4.1680 C.3    21  ILE21       0.1692
     38  C        -25.1870   25.3270    5.5470 C.2    21  ILE21       0.2591
     39  O        -25.1950   26.0760    6.5290 O.2    21  ILE21      -0.2718
     40  CB       -25.9980   26.0650    3.2170 C.3    21  ILE21       0.0266
     41  CG1      -25.6510   26.9480    2.0010 C.3    21  ILE21       0.0019
     42  CG2      -27.2120   26.6350    3.9610 C.3    21  ILE21       0.0020
     43  CD1      -26.6500   26.8200    0.7820 C.3    21  ILE21       0.0001
     44  N        -25.5150   24.0130    5.6020 N.am   22  LEU22      -0.1980
     45  CA       -25.9350   23.2740    6.7950 C.3    22  LEU22       0.1596
     46  C        -24.8570   23.3480    7.8810 C.2    22  LEU22       0.2287
     47  O        -25.1710   23.6850    9.0300 O.2    22  LEU22      -0.2864
     48  CB       -26.2240   21.8140    6.4000 C.3    22  LEU22       0.0297
     49  CG       -26.9740   20.9340    7.4000 C.3    22  LEU22       0.0022
     50  CD1      -28.1130   20.1940    6.7180 C.3    22  LEU22       0.0001
     51  CD2      -26.0320   19.9200    8.0310 C.3    22  LEU22       0.0001
     52  N        -24.4710   27.1140    9.1910 N.3    25  ILE25      -0.1231
     53  CA       -25.5570   27.4900   10.1060 C.3    25  ILE25       0.1692
     54  C        -25.4290   26.7950   11.4680 C.2    25  ILE25       0.2591
     55  O        -25.3710   27.4830   12.4830 O.2    25  ILE25      -0.2718
     56  CB       -26.9750   27.3510    9.4570 C.3    25  ILE25       0.0266
     57  CG1      -27.0800   28.1930    8.1520 C.3    25  ILE25       0.0019
     58  CG2      -28.0990   27.7360   10.4500 C.3    25  ILE25       0.0020
     59  CD1      -28.3270   27.8980    7.2520 C.3    25  ILE25       0.0001
     60  N        -25.3480   25.4510   11.4800 N.am   26  ILE26      -0.1980
     61  CA       -25.2420   24.6480   12.7050 C.3    26  ILE26       0.1595
     62  C        -23.8660   24.8380   13.3980 C.2    26  ILE26       0.2287
     63  O        -23.8230   25.0250   14.6190 O.2    26  ILE26      -0.2864
     64  CB       -25.6410   23.1590   12.4390 C.3    26  ILE26       0.0276
     65  CG1      -27.0710   23.0780   11.8460 C.3    26  ILE26       0.0022
     66  CG2      -25.5370   22.2940   13.7160 C.3    26  ILE26       0.0022
     67  CD1      -27.4230   21.7770   11.1250 C.3    26  ILE26       0.0001
     68  N        -23.4340   28.4250   14.9440 N.3    29  LEU29      -0.1245
     69  CA       -24.2690   28.4620   16.1500 C.3    29  LEU29       0.1561
     70  C        -23.6270   27.7090   17.3250 C.2    29  LEU29       0.2260
     71  O        -23.3220   28.3300   18.3420 O.2    29  LEU29      -0.2867
     72  CB       -25.7040   27.9490   15.8740 C.3    29  LEU29       0.0270
     73  CG       -26.6560   28.8750   15.0960 C.3    29  LEU29       0.0019
     74  CD1      -27.9060   28.1240   14.6510 C.3    29  LEU29       0.0001
     75  CD2      -27.0380   30.1120   15.9030 C.3    29  LEU29       0.0001
     76  N        -19.4980   27.8480   -5.3040 N.3    73  TYR73      -0.1227
     77  CA       -20.4200   26.8620   -5.8990 C.3    73  TYR73       0.1736
     78  C        -21.6450   27.5020   -6.5260 C.2    73  TYR73       0.2595
     79  O        -22.1310   27.0130   -7.5460 O.2    73  TYR73      -0.2718
     80  CB       -20.7910   25.7340   -4.9200 C.3    73  TYR73       0.0548
     81  CG       -19.6540   24.7520   -4.7250 C.ar   73  TYR73      -0.0200
     82  CD1      -19.3710   23.7830   -5.6840 C.ar   73  TYR73      -0.0009
     83  CD2      -18.8550   24.7990   -3.5880 C.ar   73  TYR73      -0.0009
     84  CE1      -18.3150   22.8910   -5.5210 C.ar   73  TYR73       0.0417
     85  CE2      -17.7890   23.9170   -3.4160 C.ar   73  TYR73       0.0417
     86  CZ       -17.5160   22.9710   -4.3910 C.ar   73  TYR73       0.1957
     87  OH       -16.4670   22.0960   -4.2300 O.3    73  TYR73      -0.2866
     88  N        -22.1140   28.6200   -5.9480 N.am   74  PHE74      -0.1976
     89  CA       -23.2450   29.4030   -6.4540 C.3    74  PHE74       0.1639
     90  C        -22.8120   30.3330   -7.6090 C.2    74  PHE74       0.2290
     91  O        -23.6670   30.9480   -8.2480 O.2    74  PHE74      -0.2864
     92  CB       -23.8700   30.2210   -5.3130 C.3    74  PHE74       0.0560
     93  CG       -24.9580   29.5130   -4.5420 C.ar   74  PHE74      -0.0200
     94  CD1      -24.6470   28.5350   -3.6030 C.ar   74  PHE74      -0.0042
     95  CD2      -26.2940   29.8480   -4.7280 C.ar   74  PHE74      -0.0042
     96  CE1      -25.6530   27.8850   -2.8840 C.ar   74  PHE74      -0.0003
     97  CE2      -27.3020   29.1970   -4.0080 C.ar   74  PHE74      -0.0003
     98  CZ       -26.9720   28.2200   -3.0890 C.ar   74  PHE74      -0.0000
     99  N        -20.9240   29.2290  -10.3590 N.3    76  LYS76      -0.1245
    100  CA       -20.5090   28.2740  -11.3980 C.3    76  LYS76       0.1561
    101  C        -19.0380   27.8570  -11.2770 C.2    76  LYS76       0.2260
    102  O        -18.3370   27.7530  -12.2870 O.2    76  LYS76      -0.2867
    103  CB       -20.8260   28.8320  -12.8070 C.3    76  LYS76       0.0271
    104  CG       -22.2590   28.5850  -13.2810 C.3    76  LYS76       0.0035
    105  CD       -22.4050   27.2520  -14.0360 C.3    76  LYS76       0.0206
    106  CE       -23.7740   27.0720  -14.6510 C.3    76  LYS76       0.1093
    107  NZ       -24.8190   26.7790  -13.6310 N.3    76  LYS76      -0.1314
@<TRIPOS>BOND
     1   106   105    1
     2   106   107    1
     3   105   104    1
     4   104   103    1
     5   103   100    1
     6   102   101    2
     7   100   101    1
     8   100    99    1
     9    10    11   ar
    10    10     8   ar
    11    11     9   ar
    12     8     6   ar
    13    23    22    1
    14     9     7   ar
    15     6     7   ar
    16     6     5    1
    17    20    22   ar
    18    20    18   ar
    19    22    21   ar
    20     5     2    1
    21    18    17   ar
    22    91    90    2
    23    21    19   ar
    24     2     1    1
    25     2     3    1
    26    90    89    1
    27    79    78    2
    28    17    19   ar
    29    17    16    1
    30     3     4    2
    31     3    12   am
    32    78    88   am
    33    78    77    1
    34    89    88    1
    35    89    92    1
    36    12    13    1
    37    77    76    1
    38    77    80    1
    39    16    13    1
    40    82    84   ar
    41    82    81   ar
    42    84    86   ar
    43    92    93    1
    44    13    14    1
    45    80    81    1
    46    95    93   ar
    47    95    97   ar
    48    81    83   ar
    49    93    94   ar
    50    86    87    1
    51    86    85   ar
    52    97    98   ar
    53    14    15    2
    54    29    30    1
    55    29    28    1
    56    94    96   ar
    57    83    85   ar
    58    30    24    1
    59    98    96   ar
    60    28    25    1
    61    24    25    1
    62    25    26    1
    63    31    26   am
    64    31    32    1
    65    26    27    2
    66    35    32    1
    67    32    33    1
    68    43    41    1
    69    33    34    2
    70    41    40    1
    71    40    42    1
    72    40    37    1
    73    36    37    1
    74    37    38    1
    75    38    44   am
    76    38    39    2
    77    44    45    1
    78    48    45    1
    79    48    49    1
    80    50    49    1
    81    45    46    1
    82    59    57    1
    83    49    51    1
    84    46    47    2
    85    57    56    1
    86    52    53    1
    87    56    53    1
    88    56    58    1
    89    53    54    1
    90    67    65    1
    91    54    60   am
    92    54    55    2
    93    60    61    1
    94    65    64    1
    95    64    61    1
    96    64    66    1
    97    61    62    1
    98    62    63    2
    99    74    73    1
   100    68    69    1
   101    73    72    1
   102    73    75    1
   103    72    69    1
   104    69    70    1
   105    70    71    2
