@<TRIPOS>MOLECULE
tmp/4xnvA06.pdb
 86 80 0 0 0
SMALL
GASTEIGER

@<TRIPOS>ATOM
      1  N        -15.5130    6.6000   11.9490 N.3   276  ALA276     -0.1245
      2  CA       -16.1630    5.6470   11.0480 C.3   276  ALA276      0.1562
      3  C        -16.9800    6.3020    9.9480 C.2   276  ALA276      0.2260
      4  O        -17.0360    5.7700    8.8470 O.2   276  ALA276     -0.2867
      5  CB       -17.0250    4.6740   11.8350 C.3   276  ALA276      0.0290
      6  N        -12.2000    8.2290    8.5450 N.3   280  ILE280     -0.1231
      7  CA       -11.7860    7.0550    7.7730 C.3   280  ILE280      0.1678
      8  C        -12.3110    7.1190    6.3320 C.2   280  ILE280      0.2434
      9  O        -11.4660    7.0910    5.4430 O.2   280  ILE280     -0.2733
     10  CB       -12.0190    5.6860    8.4670 C.3   280  ILE280      0.0265
     11  CG1      -11.3880    5.6470    9.8790 C.3   280  ILE280      0.0019
     12  CG2      -11.5010    4.5230    7.5900 C.3   280  ILE280      0.0020
     13  CD1      -12.0100    4.5920   10.8450 C.3   280  ILE280      0.0001
     14  N        -13.6360    7.2760    6.0350 N.am  281  PRO281     -0.2729
     15  CA       -14.0490    7.3460    4.6200 C.3   281  PRO281      0.1401
     16  C        -13.3070    8.4210    3.8190 C.2   281  PRO281      0.2269
     17  O        -12.8340    8.1210    2.7330 O.2   281  PRO281     -0.2865
     18  CB       -15.5630    7.5860    4.6920 C.3   281  PRO281      0.0296
     19  CG       -15.9620    7.0770    5.9990 C.3   281  PRO281      0.0237
     20  CD       -14.8160    7.3470    6.9240 C.3   281  PRO281      0.0939
     21  N         -9.5410    7.4370    3.0400 N.3   284  VAL284     -0.1231
     22  CA        -9.5150    6.3280    2.0850 C.3   284  VAL284      0.1692
     23  C         -9.8180    6.8990    0.6810 C.2   284  VAL284      0.2591
     24  O         -9.0920    6.6240   -0.2700 O.2   284  VAL284     -0.2718
     25  CB       -10.5150    5.1790    2.4660 C.3   284  VAL284      0.0266
     26  CG1      -10.6350    4.1430    1.3490 C.3   284  VAL284      0.0020
     27  CG2      -10.1330    4.5030    3.7840 C.3   284  VAL284      0.0020
     28  N        -10.8990    7.6760    0.5710 N.am  285  MET285     -0.1979
     29  CA       -11.3520    8.2460   -0.7040 C.3   285  MET285      0.1605
     30  C        -10.4490    9.3280   -1.2810 C.2   285  MET285      0.2287
     31  O        -10.2850    9.3920   -2.4990 O.2   285  MET285     -0.2864
     32  CB       -12.8200    8.6860   -0.6210 C.3   285  MET285      0.0413
     33  CG       -13.7990    7.5220   -0.3850 C.3   285  MET285      0.0598
     34  SD       -13.4610    5.9480   -1.2410 S.3   285  MET285     -0.1393
     35  CE       -13.7020    6.4510   -2.9850 C.3   285  MET285      0.0692
     36  N         -7.6620    7.2150   -2.6980 N.3   288  MET288     -0.1245
     37  CA        -8.1610    6.4680   -3.8560 C.3   288  MET288      0.1570
     38  C         -8.3200    7.3760   -5.0730 C.2   288  MET288      0.2261
     39  O         -7.9110    6.9890   -6.1600 O.2   288  MET288     -0.2867
     40  CB        -9.4870    5.7590   -3.5420 C.3   288  MET288      0.0387
     41  CG        -9.3270    4.4590   -2.7640 C.3   288  MET288      0.0595
     42  SD       -10.8480    3.4640   -2.6840 S.3   288  MET288     -0.1393
     43  CE       -11.1100    3.1490   -4.3720 C.3   288  MET288      0.0692
     44  N        -14.7950    3.0090  -13.2200 N.3   304  PHE304     -0.1241
     45  CA       -14.4430    2.8240  -11.8110 C.3   304  PHE304      0.1605
     46  C        -13.9610    4.1410  -11.1990 C.2   304  PHE304      0.2264
     47  O        -14.3930    4.4670  -10.0950 O.2   304  PHE304     -0.2867
     48  CB       -13.4020    1.6990  -11.6210 C.3   304  PHE304      0.0534
     49  CG       -12.8820    1.5680  -10.2050 C.ar  304  PHE304     -0.0203
     50  CD1      -13.6690    1.0080   -9.2040 C.ar  304  PHE304     -0.0042
     51  CD2      -11.6070    2.0100   -9.8700 C.ar  304  PHE304     -0.0042
     52  CE1      -13.1900    0.8970   -7.8980 C.ar  304  PHE304     -0.0003
     53  CE2      -11.1240    1.8760   -8.5720 C.ar  304  PHE304     -0.0003
     54  CZ       -11.9200    1.3220   -7.5940 C.ar  304  PHE304     -0.0000
     55  N        -16.8280    6.4180  -10.1780 N.3   307  ARG307     -0.1231
     56  CA       -17.4510    5.9570   -8.9380 C.3   307  ARG307      0.1694
     57  C        -16.6150    6.3770   -7.7350 C.2   307  ARG307      0.2591
     58  O        -17.1770    6.8010   -6.7280 O.2   307  ARG307     -0.2718
     59  CB       -17.6400    4.4300   -8.9460 C.3   307  ARG307      0.0321
     60  CG       -18.5140    3.9330  -10.0880 C.3   307  ARG307      0.0489
     61  CD       -18.8390    2.4590   -9.9390 C.3   307  ARG307      0.2205
     62  NE       -20.2290    2.2500   -9.5260 N.pl3 307  ARG307     -0.0865
     63  CZ       -20.6320    2.1550   -8.2630 C.cat 307  ARG307      0.5346
     64  NH1      -19.7590    2.2530   -7.2710 N.pl3 307  ARG307      0.1354
     65  NH2      -21.9130    1.9590   -7.9830 N.pl3 307  ARG307      0.1354
     66  N        -15.2770    6.2590   -7.8390 N.am  308  VAL308     -0.1980
     67  CA       -14.3310    6.6640   -6.7970 C.3   308  VAL308      0.1595
     68  C        -14.4730    8.1920   -6.5630 C.2   308  VAL308      0.2287
     69  O        -14.5450    8.6390   -5.4140 O.2   308  VAL308     -0.2864
     70  CB       -12.8850    6.2600   -7.2090 C.3   308  VAL308      0.0276
     71  CG1      -11.8170    7.0130   -6.4110 C.3   308  VAL308      0.0022
     72  CG2      -12.6870    4.7600   -7.0870 C.3   308  VAL308      0.0022
     73  N        -17.8700    8.9880   -4.8900 N.3   311  THR311     -0.1218
     74  CA       -17.8110    8.5570   -3.4870 C.3   311  THR311      0.1862
     75  C        -16.9530    9.5040   -2.6680 C.2   311  THR311      0.2287
     76  O        -17.3160    9.8140   -1.5280 O.2   311  THR311     -0.2866
     77  CB       -17.4000    7.0940   -3.3790 C.3   311  THR311      0.1770
     78  OG1      -18.3250    6.3250   -4.1340 O.3   311  THR311     -0.2211
     79  CG2      -17.3670    6.5880   -1.9330 C.3   311  THR311      0.0375
     80  N        -17.6910   11.9250    0.8350 N.3   315  THR315     -0.1218
     81  CA       -16.8100   11.9840    2.0070 C.3   315  THR315      0.1862
     82  C        -16.3020   13.3940    2.2990 C.2   315  THR315      0.2287
     83  O        -16.0480   13.7030    3.4530 O.2   315  THR315     -0.2866
     84  CB       -15.6930   10.9290    1.9340 C.3   315  THR315      0.1770
     85  OG1      -14.7030   11.3370    0.9840 O.3   315  THR315     -0.2211
     86  CG2      -16.2230    9.5340    1.6200 C.3   315  THR315      0.0375
@<TRIPOS>BOND
     1    44    45    1
     2    45    48    1
     3    45    46    1
     4    48    49    1
     5    46    47    2
     6    49    51   ar
     7    49    50   ar
     8    55    56    1
     9    60    61    1
    10    60    59    1
    11    61    62    1
    12    51    53   ar
    13    62    63    2
    14    50    52   ar
    15    59    56    1
    16    56    57    1
    17    53    54   ar
    18    63    65    1
    19    63    64    1
    20    52    54   ar
    21    66    57   am
    22    66    67    1
    23    57    58    2
    24    70    72    1
    25    70    67    1
    26    70    71    1
    27    67    68    1
    28    68    69    2
    29    39    38    2
    30    38    37    1
    31    73    74    1
    32    43    42    1
    33    78    77    1
    34    37    40    1
    35    37    36    1
    36    40    41    1
    37    74    77    1
    38    74    75    1
    39    77    79    1
    40    35    34    1
    41    41    42    1
    42    75    76    2
    43    31    30    2
    44    30    29    1
    45    34    33    1
    46    29    32    1
    47    29    28    1
    48    32    33    1
    49    24    23    2
    50    28    23   am
    51    23    22    1
    52    80    81    1
    53    85    84    1
    54    26    25    1
    55    86    84    1
    56    84    81    1
    57    81    82    1
    58    22    25    1
    59    22    21    1
    60    82    83    2
    61    25    27    1
    62    17    16    2
    63    16    15    1
    64    15    18    1
    65    15    14    1
    66    18    19    1
    67     9     8    2
    68    19    20    1
    69    14     8   am
    70    14    20    1
    71     8     7    1
    72    12    10    1
    73     7    10    1
    74     7     6    1
    75    10    11    1
    76     4     3    2
    77    11    13    1
    78     3     2    1
    79     2     5    1
    80     2     1    1
