@<TRIPOS>MOLECULE
tmp/4xnvA01.pdb
 135 128 0 0 0
SMALL
GASTEIGER

@<TRIPOS>ATOM
      1  N          0.3790   13.8190   -3.7670 N.3   176  PHE176     -0.1241
      2  CA        -0.0610   12.4900   -3.3090 C.3   176  PHE176      0.1605
      3  C          0.9010   11.9460   -2.2600 C.2   176  PHE176      0.2264
      4  O          0.4470   11.4030   -1.2510 O.2   176  PHE176     -0.2867
      5  CB        -0.1450   11.4990   -4.4820 C.3   176  PHE176      0.0534
      6  CG        -0.5400   10.0940   -4.0860 C.ar  176  PHE176     -0.0203
      7  CD1       -1.8440    9.8010   -3.7050 C.ar  176  PHE176     -0.0042
      8  CD2        0.3870    9.0620   -4.1060 C.ar  176  PHE176     -0.0042
      9  CE1       -2.2120    8.5060   -3.3410 C.ar  176  PHE176     -0.0003
     10  CE2        0.0150    7.7610   -3.7500 C.ar  176  PHE176     -0.0003
     11  CZ        -1.2790    7.4960   -3.3570 C.ar  176  PHE176     -0.0000
     12  N          0.1050   11.3150    1.6950 N.3   180  MET180     -0.1245
     13  CA         0.3070   10.0050    2.3200 C.3   180  MET180      0.1570
     14  C          1.0580   10.1560    3.6370 C.2   180  MET180      0.2261
     15  O          0.7220    9.4600    4.5900 O.2   180  MET180     -0.2867
     16  CB         1.0660    9.0420    1.4020 C.3   180  MET180      0.0387
     17  CG         0.2340    8.4560    0.2810 C.3   180  MET180      0.0595
     18  SD        -1.3680    7.6960    0.7220 S.3   180  MET180     -0.1393
     19  CE        -0.8600    6.4680    2.0000 C.3   180  MET180      0.0692
     20  N         -1.3850   11.6920    6.1490 N.3   183  THR183     -0.1203
     21  CA        -2.4210   10.6720    6.4030 C.3   183  THR183      0.1994
     22  C         -1.9050    9.6650    7.4360 C.2   183  THR183      0.2617
     23  O         -2.6170    9.3540    8.3790 O.2   183  THR183     -0.2717
     24  CB        -2.8610    9.9980    5.0830 C.3   183  THR183      0.1784
     25  OG1       -3.5710   10.9690    4.3120 O.3   183  THR183     -0.2211
     26  CG2       -3.7640    8.7700    5.2970 C.3   183  THR183      0.0376
     27  N         -0.6720    9.1850    7.2630 N.am  184  VAL184     -0.1979
     28  CA        -0.0530    8.2170    8.1650 C.3   184  VAL184      0.1595
     29  C          0.2600    8.8620    9.5220 C.2   184  VAL184      0.2287
     30  O         -0.1630    8.3440   10.5640 O.2   184  VAL184     -0.2864
     31  CB         1.1890    7.5150    7.5320 C.3   184  VAL184      0.0276
     32  CG1        1.8880    6.5890    8.5340 C.3   184  VAL184      0.0022
     33  CG2        0.8130    6.7410    6.2650 C.3   184  VAL184      0.0022
     34  N         -3.2540   11.0530   10.9670 N.3   187  PHE187     -0.1227
     35  CA        -4.5360   10.3800   10.9570 C.3   187  PHE187      0.1736
     36  C         -4.3590    8.9440   11.4680 C.2   187  PHE187      0.2595
     37  O         -4.8890    8.6350   12.5310 O.2   187  PHE187     -0.2718
     38  CB        -5.2520   10.4750    9.5920 C.3   187  PHE187      0.0547
     39  CG        -6.3740    9.4810    9.4380 C.ar  187  PHE187     -0.0202
     40  CD1       -7.5820    9.6630   10.1030 C.ar  187  PHE187     -0.0042
     41  CD2       -6.1980    8.3200    8.6890 C.ar  187  PHE187     -0.0042
     42  CE1       -8.6040    8.7200    9.9980 C.ar  187  PHE187     -0.0003
     43  CE2       -7.2240    7.3750    8.5850 C.ar  187  PHE187     -0.0003
     44  CZ        -8.4230    7.5890    9.2330 C.ar  187  PHE187     -0.0000
     45  N         -3.5580    8.1010   10.7620 N.am  188  CYS188     -0.1970
     46  CA        -3.3100    6.6930   11.1310 C.3   188  CYS188      0.1712
     47  C         -2.7690    6.4860   12.5230 C.2   188  CYS188      0.2296
     48  O         -3.3680    5.7150   13.2810 O.2   188  CYS188     -0.2864
     49  CB        -2.4610    5.9760   10.0880 C.3   188  CYS188      0.0983
     50  SG        -3.2670    5.8190    8.4800 S.3   188  CYS188     -0.0798
     51  N         -5.1990    7.6290   15.2150 N.3   191  LEU191     -0.1231
     52  CA        -6.2810    6.6340   15.2270 C.3   191  LEU191      0.1693
     53  C         -5.9010    5.3870   16.0260 C.2   191  LEU191      0.2591
     54  O         -6.7290    4.9010   16.7880 O.2   191  LEU191     -0.2718
     55  CB        -6.7670    6.2650   13.8040 C.3   191  LEU191      0.0284
     56  CG        -7.8800    5.1970   13.6520 C.3   191  LEU191      0.0019
     57  CD1       -9.1270    5.5200   14.5080 C.3   191  LEU191      0.0001
     58  CD2       -8.2930    5.0500   12.1950 C.3   191  LEU191      0.0001
     59  N         -4.6630    4.8810   15.8700 N.am  192  VAL192     -0.1980
     60  CA        -4.2120    3.7020   16.6150 C.3   192  VAL192      0.1595
     61  C         -4.0940    4.0320   18.1090 C.2   192  VAL192      0.2287
     62  O         -4.4850    3.2210   18.9510 O.2   192  VAL192     -0.2864
     63  CB        -2.9740    2.9680   16.0130 C.3   192  VAL192      0.0276
     64  CG1       -3.1560    2.7100   14.5200 C.3   192  VAL192      0.0022
     65  CG2       -1.6660    3.7090   16.2700 C.3   192  VAL192      0.0022
     66  N         -7.7220    4.3550   19.6940 N.3   195  LEU195     -0.1245
     67  CA        -8.2350    2.9820   19.8520 C.3   195  LEU195      0.1561
     68  C         -7.6540    2.2590   21.0620 C.2   195  LEU195      0.2260
     69  O         -8.3860    1.5500   21.7550 O.2   195  LEU195     -0.2867
     70  CB        -7.9890    2.1510   18.5840 C.3   195  LEU195      0.0270
     71  CG        -8.8670    2.4500   17.3810 C.3   195  LEU195      0.0019
     72  CD1       -8.2480    1.8740   16.1210 C.3   195  LEU195      0.0001
     73  CD2      -10.2780    1.9140   17.5750 C.3   195  LEU195      0.0001
     74  N        -12.2000    8.2290    8.5450 N.3   280  ILE280     -0.1245
     75  CA       -11.7860    7.0550    7.7730 C.3   280  ILE280      0.1561
     76  C        -12.3110    7.1190    6.3320 C.2   280  ILE280      0.2260
     77  O        -11.4660    7.0910    5.4430 O.2   280  ILE280     -0.2867
     78  CB       -12.0190    5.6860    8.4670 C.3   280  ILE280      0.0252
     79  CG1      -11.3880    5.6470    9.8790 C.3   280  ILE280      0.0019
     80  CG2      -11.5010    4.5230    7.5900 C.3   280  ILE280      0.0019
     81  CD1      -12.0100    4.5920   10.8450 C.3   280  ILE280      0.0001
     82  N        -10.2090    9.8640    4.3110 N.3   283  HIS283     -0.1226
     83  CA        -8.8060    9.5370    4.0590 C.3   283  HIS283      0.1752
     84  C         -8.6320    8.4350    3.0400 C.2   283  HIS283      0.2595
     85  O         -7.6910    8.5020    2.2560 O.2   283  HIS283     -0.2718
     86  CB        -8.0260    9.2400    5.3510 C.3   283  HIS283      0.0759
     87  CG        -7.7110   10.4860    6.1110 C.ar  283  HIS283      0.0818
     88  ND1       -8.5560   10.9560    7.1040 N.ar  283  HIS283     -0.2268
     89  CD2       -6.6800   11.3500    5.9620 C.ar  283  HIS283      0.1154
     90  CE1       -8.0090   12.0840    7.5340 C.ar  283  HIS283      0.1986
     91  NE2       -6.8900   12.3720    6.8610 N.ar  283  HIS283     -0.2212
     92  N         -9.5410    7.4370    3.0400 N.am  284  VAL284     -0.1980
     93  CA        -9.5150    6.3280    2.0850 C.3   284  VAL284      0.1595
     94  C         -9.8180    6.8990    0.6810 C.2   284  VAL284      0.2287
     95  O         -9.0920    6.6240   -0.2700 O.2   284  VAL284     -0.2864
     96  CB       -10.5150    5.1790    2.4660 C.3   284  VAL284      0.0276
     97  CG1      -10.6350    4.1430    1.3490 C.3   284  VAL284      0.0022
     98  CG2      -10.1330    4.5030    3.7840 C.3   284  VAL284      0.0022
     99  N         -7.2150    9.4570   -0.9090 N.3   287  THR287     -0.1203
    100  CA        -6.1090    8.6400   -1.4080 C.3   287  THR287      0.1994
    101  C         -6.5010    7.9160   -2.7040 C.2   287  THR287      0.2617
    102  O         -5.7430    7.9750   -3.6740 O.2   287  THR287     -0.2717
    103  CB        -5.6750    7.6520   -0.3250 C.3   287  THR287      0.1784
    104  OG1       -5.3860    8.3660    0.8720 O.3   287  THR287     -0.2211
    105  CG2       -4.4720    6.8230   -0.7370 C.3   287  THR287      0.0376
    106  N         -7.6620    7.2150   -2.6980 N.am  288  MET288     -0.1979
    107  CA        -8.1610    6.4680   -3.8560 C.3   288  MET288      0.1605
    108  C         -8.3200    7.3760   -5.0730 C.2   288  MET288      0.2287
    109  O         -7.9110    6.9890   -6.1600 O.2   288  MET288     -0.2864
    110  CB        -9.4870    5.7590   -3.5420 C.3   288  MET288      0.0413
    111  CG        -9.3270    4.4590   -2.7640 C.3   288  MET288      0.0598
    112  SD       -10.8480    3.4640   -2.6840 S.3   288  MET288     -0.1393
    113  CE       -11.1100    3.1490   -4.3720 C.3   288  MET288      0.0692
    114  N         -4.9080    8.4920   -6.4830 N.3   291  ARG291     -0.1245
    115  CA        -4.3520    7.2800   -7.0970 C.3   291  ARG291      0.1563
    116  C         -4.9640    7.0440   -8.5000 C.2   291  ARG291      0.2260
    117  O         -4.2320    6.7520   -9.4420 O.2   291  ARG291     -0.2867
    118  CB        -4.5630    6.0690   -6.1550 C.3   291  ARG291      0.0307
    119  CG        -3.9510    4.7720   -6.6450 C.3   291  ARG291      0.0489
    120  CD        -2.7030    4.3890   -5.8780 C.3   291  ARG291      0.2205
    121  NE        -2.5190    2.9370   -5.8380 N.pl3 291  ARG291     -0.0865
    122  CZ        -1.8470    2.2340   -6.7440 C.cat 291  ARG291      0.5346
    123  NH1       -1.2870    2.8390   -7.7850 N.pl3 291  ARG291      0.1354
    124  NH2       -1.7320    0.9180   -6.6170 N.pl3 291  ARG291      0.1354
    125  N         -4.3740    5.5130  -12.8970 N.3   296  PHE296     -0.1241
    126  CA        -5.4100    4.7160  -13.5400 C.3   296  PHE296      0.1605
    127  C         -6.1040    5.3840  -14.7200 C.2   296  PHE296      0.2264
    128  O         -7.2950    5.1690  -14.9430 O.2   296  PHE296     -0.2867
    129  CB        -6.3770    4.1260  -12.4910 C.3   296  PHE296      0.0534
    130  CG        -5.6920    3.1540  -11.5500 C.ar  296  PHE296     -0.0203
    131  CD1       -5.4420    1.8410  -11.9390 C.ar  296  PHE296     -0.0042
    132  CD2       -5.3020    3.5500  -10.2790 C.ar  296  PHE296     -0.0042
    133  CE1       -4.8040    0.9440  -11.0720 C.ar  296  PHE296     -0.0003
    134  CE2       -4.6620    2.6540   -9.4140 C.ar  296  PHE296     -0.0003
    135  CZ        -4.4160    1.3600   -9.8140 C.ar  296  PHE296     -0.0000
@<TRIPOS>BOND
     1   128   127    2
     2   127   126    1
     3   126   125    1
     4   126   129    1
     5   129   130    1
     6   131   130   ar
     7   131   133   ar
     8   130   132   ar
     9   133   135   ar
    10   132   134   ar
    11   135   134   ar
    12   117   116    2
    13   116   115    1
    14   123   122    1
    15   115   114    1
    16   115   118    1
    17   122   124    1
    18   122   121    2
    19   119   118    1
    20   119   120    1
    21   109   108    2
    22   120   121    1
    23   108   107    1
    24     5     6    1
    25     5     2    1
    26   113   112    1
    27     8     6   ar
    28     8    10   ar
    29     6     7   ar
    30   107   110    1
    31   107   106    1
    32     1     2    1
    33    10    11   ar
    34     7     9   ar
    35   102   101    2
    36   110   111    1
    37    11     9   ar
    38     2     3    1
    39   111   112    1
    40   101   106   am
    41   101   100    1
    42     3     4    2
    43   100    99    1
    44   100   103    1
    45   105   103    1
    46   103   104    1
    47    95    94    2
    48    17    18    1
    49    17    16    1
    50    94    93    1
    51    18    19    1
    52    97    96    1
    53    16    13    1
    54    12    13    1
    55    93    96    1
    56    93    92    1
    57    85    84    2
    58    13    14    1
    59    96    98    1
    60    92    84   am
    61    84    83    1
    62    14    15    2
    63    83    82    1
    64    83    86    1
    65    25    24    1
    66    24    26    1
    67    24    21    1
    68    86    87    1
    69    77    76    2
    70    89    87   ar
    71    89    91   ar
    72    87    88   ar
    73    20    21    1
    74    33    31    1
    75    76    75    1
    76    21    22    1
    77    91    90   ar
    78    88    90   ar
    79    27    22   am
    80    27    28    1
    81    22    23    2
    82    31    28    1
    83    31    32    1
    84    80    78    1
    85    75    78    1
    86    75    74    1
    87    28    29    1
    88    78    79    1
    89    50    49    1
    90    43    41   ar
    91    43    44   ar
    92    41    39   ar
    93    44    42   ar
    94    39    38    1
    95    39    40   ar
    96    29    30    2
    97    38    35    1
    98    79    81    1
    99    42    40   ar
   100    49    46    1
   101    45    46    1
   102    45    36   am
   103    35    34    1
   104    35    36    1
   105    46    47    1
   106    36    37    2
   107    58    56    1
   108    47    48    2
   109    56    55    1
   110    56    57    1
   111    55    52    1
   112    64    63    1
   113    51    52    1
   114    52    53    1
   115    59    53   am
   116    59    60    1
   117    63    65    1
   118    63    60    1
   119    53    54    2
   120    72    71    1
   121    60    61    1
   122    71    73    1
   123    71    70    1
   124    61    62    2
   125    70    67    1
   126    66    67    1
   127    67    68    1
   128    68    69    2
