@<TRIPOS>MOLECULE
tmp/4xnvA08.pdb
 91 90 0 0 0
SMALL
GASTEIGER

@<TRIPOS>ATOM
      1  N        -23.7720   24.9410    3.6040 N.3    21  ILE21      -0.1245
      2  CA       -24.7640   25.8710    4.1680 C.3    21  ILE21       0.1561
      3  C        -25.1870   25.3270    5.5470 C.2    21  ILE21       0.2260
      4  O        -25.1950   26.0760    6.5290 O.2    21  ILE21      -0.2867
      5  CB       -25.9980   26.0650    3.2170 C.3    21  ILE21       0.0252
      6  CG1      -25.6510   26.9480    2.0010 C.3    21  ILE21       0.0019
      7  CG2      -27.2120   26.6350    3.9610 C.3    21  ILE21       0.0019
      8  CD1      -26.6500   26.8200    0.7820 C.3    21  ILE21       0.0001
      9  N        -22.3270   25.5680    7.9410 N.3    24  PHE24      -0.1227
     10  CA       -22.1670   26.9650    8.3570 C.3    24  PHE24       0.1736
     11  C        -23.1700   27.3750    9.4190 C.2    24  PHE24       0.2595
     12  O        -22.7510   27.9060   10.4420 O.2    24  PHE24      -0.2718
     13  CB       -22.1330   27.9760    7.1910 C.3    24  PHE24       0.0547
     14  CG       -21.8850   29.3970    7.6710 C.ar   24  PHE24      -0.0202
     15  CD1      -20.6110   29.8150    8.0320 C.ar   24  PHE24      -0.0042
     16  CD2      -22.9360   30.3030    7.7950 C.ar   24  PHE24      -0.0042
     17  CE1      -20.3890   31.1130    8.5030 C.ar   24  PHE24      -0.0003
     18  CE2      -22.7100   31.6010    8.2660 C.ar   24  PHE24      -0.0003
     19  CZ       -21.4370   31.9990    8.6050 C.ar   24  PHE24      -0.0000
     20  N        -24.4710   27.1140    9.1910 N.am   25  ILE25      -0.1980
     21  CA       -25.5570   27.4900   10.1060 C.3    25  ILE25       0.1595
     22  C        -25.4290   26.7950   11.4680 C.2    25  ILE25       0.2287
     23  O        -25.3710   27.4830   12.4830 O.2    25  ILE25      -0.2864
     24  CB       -26.9750   27.3510    9.4570 C.3    25  ILE25       0.0276
     25  CG1      -27.0800   28.1930    8.1520 C.3    25  ILE25       0.0022
     26  CG2      -28.0990   27.7360   10.4500 C.3    25  ILE25       0.0022
     27  CD1      -28.3270   27.8980    7.2520 C.3    25  ILE25       0.0001
     28  N        -21.6380   27.4660   13.0150 N.3    28  PHE28      -0.1227
     29  CA       -21.4420   28.8140   13.5450 C.3    28  PHE28       0.1736
     30  C        -22.1810   28.9380   14.8680 C.2    28  PHE28       0.2595
     31  O        -21.5860   29.4180   15.8240 O.2    28  PHE28      -0.2718
     32  CB       -21.8710   29.9070   12.5480 C.3    28  PHE28       0.0547
     33  CG       -21.5580   31.3200   12.9810 C.ar   28  PHE28      -0.0202
     34  CD1      -20.2940   31.8660   12.7760 C.ar   28  PHE28      -0.0042
     35  CD2      -22.5310   32.1110   13.5860 C.ar   28  PHE28      -0.0042
     36  CE1      -20.0070   33.1700   13.1770 C.ar   28  PHE28      -0.0003
     37  CE2      -22.2410   33.4180   13.9880 C.ar   28  PHE28      -0.0003
     38  CZ       -20.9810   33.9380   13.7800 C.ar   28  PHE28      -0.0000
     39  N        -23.4340   28.4250   14.9440 N.am   29  LEU29      -0.1980
     40  CA       -24.2690   28.4620   16.1500 C.3    29  LEU29       0.1596
     41  C        -23.6270   27.7090   17.3250 C.2    29  LEU29       0.2287
     42  O        -23.3220   28.3300   18.3420 O.2    29  LEU29      -0.2864
     43  CB       -25.7040   27.9490   15.8740 C.3    29  LEU29       0.0297
     44  CG       -26.6560   28.8750   15.0960 C.3    29  LEU29       0.0022
     45  CD1      -27.9060   28.1240   14.6510 C.3    29  LEU29       0.0001
     46  CD2      -27.0380   30.1120   15.9030 C.3    29  LEU29       0.0001
     47  N        -18.8000   30.5770    3.8650 N.3    67  PRO67      -0.2116
     48  CA       -19.5450   31.4170    2.9030 C.3    67  PRO67       0.1372
     49  C        -18.8360   31.6570    1.5690 C.2    67  PRO67       0.2244
     50  O        -19.5040   31.6310    0.5360 O.2    67  PRO67      -0.2868
     51  CB       -19.7910   32.7110    3.6820 C.3    67  PRO67       0.0268
     52  CG       -19.8110   32.2810    5.0980 C.3    67  PRO67       0.0207
     53  CD       -18.7110   31.2580    5.1760 C.3    67  PRO67       0.0892
     54  N        -19.3070   28.4660   -0.3960 N.3    70  ILE70      -0.1231
     55  CA       -20.7200   28.4150   -0.7710 C.3    70  ILE70       0.1692
     56  C        -20.9530   29.3470   -1.9830 C.2    70  ILE70       0.2592
     57  O        -21.6450   28.9520   -2.9270 O.2    70  ILE70      -0.2718
     58  CB       -21.6420   28.7610    0.4400 C.3    70  ILE70       0.0266
     59  CG1      -21.4930   27.7300    1.5840 C.3    70  ILE70       0.0019
     60  CG2      -23.1110   28.8940    0.0120 C.3    70  ILE70       0.0020
     61  CD1      -21.9420   28.2170    3.0070 C.3    70  ILE70       0.0001
     62  N        -20.3420   30.5660   -1.9570 N.am   71  PHE71      -0.1976
     63  CA       -20.4010   31.5590   -3.0380 C.3    71  PHE71       0.1639
     64  C        -19.8090   30.9870   -4.3220 C.2    71  PHE71       0.2290
     65  O        -20.4260   31.1210   -5.3760 O.2    71  PHE71      -0.2864
     66  CB       -19.6740   32.8690   -2.6430 C.3    71  PHE71       0.0560
     67  CG       -19.7410   33.9630   -3.6860 C.ar   71  PHE71      -0.0200
     68  CD1      -18.8400   33.9950   -4.7470 C.ar   71  PHE71      -0.0042
     69  CD2      -20.6960   34.9680   -3.6040 C.ar   71  PHE71      -0.0042
     70  CE1      -18.9250   34.9840   -5.7280 C.ar   71  PHE71      -0.0003
     71  CE2      -20.7660   35.9720   -4.5770 C.ar   71  PHE71      -0.0003
     72  CZ       -19.8770   35.9750   -5.6290 C.ar   71  PHE71      -0.0000
     73  N        -22.1140   28.6200   -5.9480 N.3    74  PHE74      -0.1227
     74  CA       -23.2450   29.4030   -6.4540 C.3    74  PHE74       0.1736
     75  C        -22.8120   30.3330   -7.6090 C.2    74  PHE74       0.2595
     76  O        -23.6670   30.9480   -8.2480 O.2    74  PHE74      -0.2718
     77  CB       -23.8700   30.2210   -5.3130 C.3    74  PHE74       0.0547
     78  CG       -24.9580   29.5130   -4.5420 C.ar   74  PHE74      -0.0202
     79  CD1      -24.6470   28.5350   -3.6030 C.ar   74  PHE74      -0.0042
     80  CD2      -26.2940   29.8480   -4.7280 C.ar   74  PHE74      -0.0042
     81  CE1      -25.6530   27.8850   -2.8840 C.ar   74  PHE74      -0.0003
     82  CE2      -27.3020   29.1970   -4.0080 C.ar   74  PHE74      -0.0003
     83  CZ       -26.9720   28.2200   -3.0890 C.ar   74  PHE74      -0.0000
     84  N        -21.4910   30.4290   -7.8700 N.am   75  ASN75      -0.1974
     85  CA       -20.9070   31.2520   -8.9330 C.3    75  ASN75       0.1688
     86  C        -20.2780   30.3820  -10.0410 C.2    75  ASN75       0.2292
     87  O        -19.2380   30.7410  -10.5990 O.2    75  ASN75      -0.2864
     88  CB       -19.8910   32.2540   -8.3450 C.3    75  ASN75       0.1181
     89  CG       -19.4920   33.3790   -9.2760 C.2    75  ASN75       0.2629
     90  OD1      -20.3240   33.9780   -9.9660 O.2    75  ASN75      -0.2716
     91  ND2      -18.2000   33.6810   -9.3230 N.am   75  ASN75      -0.0877
@<TRIPOS>BOND
     1    87    86    2
     2    86    85    1
     3    90    89    2
     4    91    89   am
     5    89    88    1
     6    85    88    1
     7    85    84    1
     8    76    75    2
     9    84    75   am
    10    75    74    1
    11    74    73    1
    12    74    77    1
    13    70    72   ar
    14    70    68   ar
    15    72    71   ar
    16    65    64    2
    17    77    78    1
    18    68    67   ar
    19    80    78   ar
    20    80    82   ar
    21    71    69   ar
    22    78    79   ar
    23    64    63    1
    24    82    83   ar
    25    67    69   ar
    26    67    66    1
    27    79    81   ar
    28    83    81   ar
    29    63    66    1
    30    63    62    1
    31    57    56    2
    32    56    62   am
    33    56    55    1
    34    55    54    1
    35    55    58    1
    36    60    58    1
    37    58    59    1
    38    50    49    2
    39     8     6    1
    40    49    48    1
    41    59    61    1
    42     6     5    1
    43    48    51    1
    44    48    47    1
    45     5     7    1
    46     5     2    1
    47     1     2    1
    48    51    52    1
    49    47    53    1
    50     2     3    1
    51    52    53    1
    52     3     4    2
    53    13    14    1
    54    13    10    1
    55    27    25    1
    56    14    16   ar
    57    14    15   ar
    58    16    18   ar
    59     9    10    1
    60    15    17   ar
    61    25    24    1
    62    18    19   ar
    63    10    11    1
    64    17    19   ar
    65    20    11   am
    66    20    21    1
    67    11    12    2
    68    24    21    1
    69    24    26    1
    70    21    22    1
    71    22    23    2
    72    32    33    1
    73    32    29    1
    74    34    33   ar
    75    34    36   ar
    76    33    35   ar
    77    28    29    1
    78    36    38   ar
    79    29    30    1
    80    35    37   ar
    81    38    37   ar
    82    45    44    1
    83    30    39   am
    84    30    31    2
    85    39    40    1
    86    44    43    1
    87    44    46    1
    88    43    40    1
    89    40    41    1
    90    41    42    2
