@<TRIPOS>MOLECULE
tmp/4xnvA09.pdb
 87 80 0 0 0
SMALL
GASTEIGER

@<TRIPOS>ATOM
      1  N         -5.1990    7.6290   15.2150 N.3   191  LEU191     -0.1231
      2  CA        -6.2810    6.6340   15.2270 C.3   191  LEU191      0.1693
      3  C         -5.9010    5.3870   16.0260 C.2   191  LEU191      0.2591
      4  O         -6.7290    4.9010   16.7880 O.2   191  LEU191     -0.2718
      5  CB        -6.7670    6.2650   13.8040 C.3   191  LEU191      0.0284
      6  CG        -7.8800    5.1970   13.6520 C.3   191  LEU191      0.0019
      7  CD1       -9.1270    5.5200   14.5080 C.3   191  LEU191      0.0001
      8  CD2       -8.2930    5.0500   12.1950 C.3   191  LEU191      0.0001
      9  N         -4.6630    4.8810   15.8700 N.am  192  VAL192     -0.1980
     10  CA        -4.2120    3.7020   16.6150 C.3   192  VAL192      0.1595
     11  C         -4.0940    4.0320   18.1090 C.2   192  VAL192      0.2287
     12  O         -4.4850    3.2210   18.9510 O.2   192  VAL192     -0.2864
     13  CB        -2.9740    2.9680   16.0130 C.3   192  VAL192      0.0276
     14  CG1       -3.1560    2.7100   14.5200 C.3   192  VAL192      0.0022
     15  CG2       -1.6660    3.7090   16.2700 C.3   192  VAL192      0.0022
     16  N         -7.7220    4.3550   19.6940 N.3   195  LEU195     -0.1245
     17  CA        -8.2350    2.9820   19.8520 C.3   195  LEU195      0.1561
     18  C         -7.6540    2.2590   21.0620 C.2   195  LEU195      0.2260
     19  O         -8.3860    1.5500   21.7550 O.2   195  LEU195     -0.2867
     20  CB        -7.9890    2.1510   18.5840 C.3   195  LEU195      0.0270
     21  CG        -8.8670    2.4500   17.3810 C.3   195  LEU195      0.0019
     22  CD1       -8.2480    1.8740   16.1210 C.3   195  LEU195      0.0001
     23  CD2      -10.2780    1.9140   17.5750 C.3   195  LEU195      0.0001
     24  N        -12.2000    8.2290    8.5450 N.3   280  ILE280     -0.1245
     25  CA       -11.7860    7.0550    7.7730 C.3   280  ILE280      0.1561
     26  C        -12.3110    7.1190    6.3320 C.2   280  ILE280      0.2260
     27  O        -11.4660    7.0910    5.4430 O.2   280  ILE280     -0.2867
     28  CB       -12.0190    5.6860    8.4670 C.3   280  ILE280      0.0252
     29  CG1      -11.3880    5.6470    9.8790 C.3   280  ILE280      0.0019
     30  CG2      -11.5010    4.5230    7.5900 C.3   280  ILE280      0.0019
     31  CD1      -12.0100    4.5920   10.8450 C.3   280  ILE280      0.0001
     32  N         -9.5410    7.4370    3.0400 N.3   284  VAL284     -0.1245
     33  CA        -9.5150    6.3280    2.0850 C.3   284  VAL284      0.1561
     34  C         -9.8180    6.8990    0.6810 C.2   284  VAL284      0.2260
     35  O         -9.0920    6.6240   -0.2700 O.2   284  VAL284     -0.2867
     36  CB       -10.5150    5.1790    2.4660 C.3   284  VAL284      0.0252
     37  CG1      -10.6350    4.1430    1.3490 C.3   284  VAL284      0.0019
     38  CG2      -10.1330    4.5030    3.7840 C.3   284  VAL284      0.0019
     39  N         -7.6620    7.2150   -2.6980 N.3   288  MET288     -0.1245
     40  CA        -8.1610    6.4680   -3.8560 C.3   288  MET288      0.1570
     41  C         -8.3200    7.3760   -5.0730 C.2   288  MET288      0.2261
     42  O         -7.9110    6.9890   -6.1600 O.2   288  MET288     -0.2867
     43  CB        -9.4870    5.7590   -3.5420 C.3   288  MET288      0.0387
     44  CG        -9.3270    4.4590   -2.7640 C.3   288  MET288      0.0595
     45  SD       -10.8480    3.4640   -2.6840 S.3   288  MET288     -0.1393
     46  CE       -11.1100    3.1490   -4.3720 C.3   288  MET288      0.0692
     47  N         -4.9080    8.4920   -6.4830 N.3   291  ARG291     -0.1245
     48  CA        -4.3520    7.2800   -7.0970 C.3   291  ARG291      0.1563
     49  C         -4.9640    7.0440   -8.5000 C.2   291  ARG291      0.2260
     50  O         -4.2320    6.7520   -9.4420 O.2   291  ARG291     -0.2867
     51  CB        -4.5630    6.0690   -6.1550 C.3   291  ARG291      0.0307
     52  CG        -3.9510    4.7720   -6.6450 C.3   291  ARG291      0.0489
     53  CD        -2.7030    4.3890   -5.8780 C.3   291  ARG291      0.2205
     54  NE        -2.5190    2.9370   -5.8380 N.pl3 291  ARG291     -0.0865
     55  CZ        -1.8470    2.2340   -6.7440 C.cat 291  ARG291      0.5346
     56  NH1       -1.2870    2.8390   -7.7850 N.pl3 291  ARG291      0.1354
     57  NH2       -1.7320    0.9180   -6.6170 N.pl3 291  ARG291      0.1354
     58  N         -4.3740    5.5130  -12.8970 N.3   296  PHE296     -0.1241
     59  CA        -5.4100    4.7160  -13.5400 C.3   296  PHE296      0.1605
     60  C         -6.1040    5.3840  -14.7200 C.2   296  PHE296      0.2264
     61  O         -7.2950    5.1690  -14.9430 O.2   296  PHE296     -0.2867
     62  CB        -6.3770    4.1260  -12.4910 C.3   296  PHE296      0.0534
     63  CG        -5.6920    3.1540  -11.5500 C.ar  296  PHE296     -0.0203
     64  CD1       -5.4420    1.8410  -11.9390 C.ar  296  PHE296     -0.0042
     65  CD2       -5.3020    3.5500  -10.2790 C.ar  296  PHE296     -0.0042
     66  CE1       -4.8040    0.9440  -11.0720 C.ar  296  PHE296     -0.0003
     67  CE2       -4.6620    2.6540   -9.4140 C.ar  296  PHE296     -0.0003
     68  CZ        -4.4160    1.3600   -9.8140 C.ar  296  PHE296     -0.0000
     69  N        -10.4910    1.7010  -17.0020 N.3   301  MET301     -0.1245
     70  CA       -10.5760    2.1550  -15.6140 C.3   301  MET301      0.1570
     71  C        -11.4930    3.3540  -15.3900 C.2   301  MET301      0.2261
     72  O        -11.8630    3.6110  -14.2450 O.2   301  MET301     -0.2867
     73  CB        -9.1720    2.4620  -15.0590 C.3   301  MET301      0.0387
     74  CG        -8.3620    1.2270  -14.7180 C.3   301  MET301      0.0595
     75  SD        -9.1910    0.1020  -13.5680 S.3   301  MET301     -0.1393
     76  CE        -9.0700    1.0420  -12.0580 C.3   301  MET301      0.0692
     77  N        -14.7950    3.0090  -13.2200 N.3   304  PHE304     -0.1241
     78  CA       -14.4430    2.8240  -11.8110 C.3   304  PHE304      0.1605
     79  C        -13.9610    4.1410  -11.1990 C.2   304  PHE304      0.2264
     80  O        -14.3930    4.4670  -10.0950 O.2   304  PHE304     -0.2867
     81  CB       -13.4020    1.6990  -11.6210 C.3   304  PHE304      0.0534
     82  CG       -12.8820    1.5680  -10.2050 C.ar  304  PHE304     -0.0203
     83  CD1      -13.6690    1.0080   -9.2040 C.ar  304  PHE304     -0.0042
     84  CD2      -11.6070    2.0100   -9.8700 C.ar  304  PHE304     -0.0042
     85  CE1      -13.1900    0.8970   -7.8980 C.ar  304  PHE304     -0.0003
     86  CE2      -11.1240    1.8760   -8.5720 C.ar  304  PHE304     -0.0003
     87  CZ       -11.9200    1.3220   -7.5940 C.ar  304  PHE304     -0.0000
@<TRIPOS>BOND
     1    69    70    1
     2    70    71    1
     3    70    73    1
     4    71    72    2
     5    73    74    1
     6    61    60    2
     7    60    59    1
     8    74    75    1
     9    75    76    1
    10    59    58    1
    11    59    62    1
    12    77    78    1
    13    62    63    1
    14    64    63   ar
    15    64    66   ar
    16    78    81    1
    17    78    79    1
    18    81    82    1
    19    63    65   ar
    20    79    80    2
    21    66    68   ar
    22    65    67   ar
    23    82    84   ar
    24    82    83   ar
    25    84    86   ar
    26    68    67   ar
    27    50    49    2
    28    83    85   ar
    29    86    87   ar
    30    49    48    1
    31    85    87   ar
    32    56    55    1
    33    48    47    1
    34    48    51    1
    35    55    57    1
    36    55    54    2
    37    52    51    1
    38    52    53    1
    39    42    41    2
    40    53    54    1
    41    41    40    1
    42    46    45    1
    43    40    43    1
    44    40    39    1
    45    43    44    1
    46    44    45    1
    47    35    34    2
    48    34    33    1
    49    37    36    1
    50    33    36    1
    51    33    32    1
    52    36    38    1
    53    27    26    2
    54    26    25    1
    55    30    28    1
    56    25    28    1
    57    25    24    1
    58    28    29    1
    59    29    31    1
    60     8     6    1
    61     6     5    1
    62     6     7    1
    63     5     2    1
    64    14    13    1
    65     1     2    1
    66     2     3    1
    67     9     3   am
    68     9    10    1
    69    13    15    1
    70    13    10    1
    71     3     4    2
    72    22    21    1
    73    10    11    1
    74    21    23    1
    75    21    20    1
    76    11    12    2
    77    20    17    1
    78    16    17    1
    79    17    18    1
    80    18    19    2
