@<TRIPOS>MOLECULE
tmp/4xnvA05.pdb
 86 82 0 0 0
SMALL
GASTEIGER

@<TRIPOS>ATOM
      1  N          1.4530   24.2070   16.6090 N.3   138  LEU138     -0.1231
      2  CA         2.7410   24.3400   15.9160 C.3   138  LEU138      0.1693
      3  C          3.0060   23.1850   14.9630 C.2   138  LEU138      0.2591
      4  O          3.3080   23.4360   13.7960 O.2   138  LEU138     -0.2718
      5  CB         3.9180   24.5810   16.8810 C.3   138  LEU138      0.0284
      6  CG         3.9190   25.9340   17.6220 C.3   138  LEU138      0.0019
      7  CD1        5.0080   25.9870   18.6780 C.3   138  LEU138      0.0001
      8  CD2        4.0510   27.1130   16.6580 C.3   138  LEU138      0.0001
      9  N          2.8050   21.9290   15.4280 N.am  139  ILE139     -0.1980
     10  CA         2.9560   20.7140   14.6230 C.3   139  ILE139      0.1595
     11  C          2.0230   20.7640   13.3890 C.2   139  ILE139      0.2287
     12  O          2.4910   20.5670   12.2620 O.2   139  ILE139     -0.2864
     13  CB         2.7320   19.4290   15.4850 C.3   139  ILE139      0.0276
     14  CG1        3.8820   19.2150   16.5040 C.3   139  ILE139      0.0022
     15  CG2        2.5320   18.1810   14.6110 C.3   139  ILE139      0.0022
     16  CD1        3.4810   18.4510   17.7920 C.3   139  ILE139      0.0001
     17  N          2.9950   23.6850   10.7780 N.3   142  VAL142     -0.1231
     18  CA         4.2000   23.2600   10.0680 C.3   142  VAL142      0.1692
     19  C          3.9010   22.1340    9.0760 C.2   142  VAL142      0.2591
     20  O          4.1850   22.2930    7.8880 O.2   142  VAL142     -0.2718
     21  CB         5.3700   22.9290   11.0330 C.3   142  VAL142      0.0266
     22  CG1        6.5270   22.2500   10.3040 C.3   142  VAL142      0.0020
     23  CG2        5.8510   24.1820   11.7560 C.3   142  VAL142      0.0020
     24  N          3.2890   21.0270    9.5470 N.am  143  ALA143     -0.1980
     25  CA         2.9850   19.8750    8.6930 C.3   143  ALA143      0.1597
     26  C          1.9870   20.1620    7.5670 C.2   143  ALA143      0.2287
     27  O          2.0620   19.5240    6.5140 O.2   143  ALA143     -0.2864
     28  CB         2.5310   18.6920    9.5300 C.3   143  ALA143      0.0319
     29  N          2.7050   23.0170    3.5360 N.3   146  PRO146     -0.2116
     30  CA         2.8370   22.7700    2.0850 C.3   146  PRO146      0.1372
     31  C          1.5540   22.9610    1.2760 C.2   146  PRO146      0.2244
     32  O          1.6540   23.1930    0.0730 O.2   146  PRO146     -0.2868
     33  CB         3.3410   21.3250    2.0150 C.3   146  PRO146      0.0268
     34  CG         4.0590   21.1320    3.3110 C.3   146  PRO146      0.0207
     35  CD         3.1680   21.8360    4.2960 C.3   146  PRO146      0.0892
     36  N          0.9990   23.9380   -2.7280 N.3   150  TYR150     -0.1241
     37  CA         0.2110   23.0990   -3.6460 C.3   150  TYR150      0.1605
     38  C         -1.0930   23.7060   -4.1330 C.2   150  TYR150      0.2264
     39  O         -1.3760   23.6810   -5.3340 O.2   150  TYR150     -0.2867
     40  CB        -0.0760   21.7170   -3.0270 C.3   150  TYR150      0.0534
     41  CG         1.1440   20.8410   -2.8310 C.ar  150  TYR150     -0.0201
     42  CD1        1.8390   20.3230   -3.9220 C.ar  150  TYR150     -0.0009
     43  CD2        1.5400   20.4430   -1.5580 C.ar  150  TYR150     -0.0009
     44  CE1        2.9500   19.4950   -3.7460 C.ar  150  TYR150      0.0417
     45  CE2        2.6340   19.6030   -1.3700 C.ar  150  TYR150      0.0417
     46  CZ         3.3380   19.1350   -2.4650 C.ar  150  TYR150      0.1957
     47  OH         4.4110   18.3240   -2.2580 O.3   150  TYR150     -0.2866
     48  N          3.6940   14.7070   -6.3770 N.3   174  SER174     -0.1217
     49  CA         4.3570   15.2240   -5.1780 C.3   174  SER174      0.1889
     50  C          3.3030   15.4200   -4.0750 C.2   174  SER174      0.2288
     51  O          3.5160   15.0100   -2.9310 O.2   174  SER174     -0.2866
     52  CB         5.0630   16.5390   -5.5070 C.3   174  SER174      0.2089
     53  OG         5.6070   17.1620   -4.3610 O.3   174  SER174     -0.2183
     54  N          2.2180   12.0780   -2.5140 N.3   177  ILE177     -0.1231
     55  CA         3.2880   11.6240   -1.6120 C.3   177  ILE177      0.1692
     56  C          3.1920   12.3660   -0.2830 C.2   177  ILE177      0.2592
     57  O          3.1330   11.7390    0.7760 O.2   177  ILE177     -0.2718
     58  CB         4.6870   11.7180   -2.2850 C.3   177  ILE177      0.0266
     59  CG1        4.7990   10.6970   -3.4430 C.3   177  ILE177      0.0019
     60  CG2        5.8170   11.5220   -1.2630 C.3   177  ILE177      0.0020
     61  CD1        5.8250   11.0420   -4.4880 C.3   177  ILE177      0.0001
     62  N          3.0910   13.6900   -0.3560 N.am  178  TYR178     -0.1976
     63  CA         2.9370   14.5500    0.8010 C.3   178  TYR178      0.1639
     64  C          1.6680   14.1810    1.5850 C.2   178  TYR178      0.2290
     65  O          1.7330   14.0600    2.8050 O.2   178  TYR178     -0.2864
     66  CB         2.9420   16.0300    0.3720 C.3   178  TYR178      0.0560
     67  CG         2.3090   16.9360    1.4010 C.ar  178  TYR178     -0.0198
     68  CD1        2.9150   17.1480    2.6370 C.ar  178  TYR178     -0.0009
     69  CD2        1.0670   17.5150    1.1760 C.ar  178  TYR178     -0.0009
     70  CE1        2.3060   17.9270    3.6170 C.ar  178  TYR178      0.0417
     71  CE2        0.4540   18.3130    2.1430 C.ar  178  TYR178      0.0417
     72  CZ         1.0760   18.5100    3.3640 C.ar  178  TYR178      0.1957
     73  OH         0.4760   19.2770    4.3310 O.3   178  TYR178     -0.2866
     74  N          2.0640   11.0830    3.6880 N.3   181  CYS181     -0.1221
     75  CA         2.8780   11.3460    4.8720 C.3   181  CYS181      0.1808
     76  C          2.0290   11.9050    6.0080 C.2   181  CYS181      0.2601
     77  O          2.1060   11.3900    7.1200 O.2   181  CYS181     -0.2717
     78  CB         4.0670   12.2480    4.5420 C.3   181  CYS181      0.0970
     79  SG         5.2740   11.4980    3.4170 S.3   181  CYS181     -0.0800
     80  N          1.1690   12.8970    5.7110 N.am  182  THR182     -0.1953
     81  CA         0.2490   13.4810    6.6850 C.3   182  THR182      0.1897
     82  C         -0.8910   12.5210    7.0920 C.2   182  THR182      0.2313
     83  O         -1.2950   12.5300    8.2570 O.2   182  THR182     -0.2863
     84  CB        -0.2370   14.8650    6.2530 C.3   182  THR182      0.1794
     85  OG1       -0.8970   14.7690    4.9900 O.3   182  THR182     -0.2208
     86  CG2        0.8920   15.8790    6.1990 C.3   182  THR182      0.0378
@<TRIPOS>BOND
     1    48    49    1
     2    52    49    1
     3    52    53    1
     4    39    38    2
     5    49    50    1
     6    61    59    1
     7    38    37    1
     8    50    51    2
     9    42    44   ar
    10    42    41   ar
    11    44    46   ar
    12    37    40    1
    13    37    36    1
    14    59    58    1
    15    40    41    1
    16    41    43   ar
    17    54    55    1
    18    46    47    1
    19    46    45   ar
    20    58    55    1
    21    58    60    1
    22    55    56    1
    23    43    45   ar
    24    62    56   am
    25    62    63    1
    26    56    57    2
    27    32    31    2
    28    66    63    1
    29    66    67    1
    30    63    64    1
    31    69    67   ar
    32    69    71   ar
    33    31    30    1
    34    67    68   ar
    35    64    65    2
    36    33    30    1
    37    33    34    1
    38    30    29    1
    39    71    72   ar
    40    68    70   ar
    41    34    35    1
    42    72    70   ar
    43    72    73    1
    44    79    78    1
    45    29    35    1
    46    74    75    1
    47    78    75    1
    48    75    76    1
    49    85    84    1
    50    80    76   am
    51    80    81    1
    52    76    77    2
    53    86    84    1
    54    84    81    1
    55    27    26    2
    56    81    82    1
    57    82    83    2
    58    26    25    1
    59    20    19    2
    60    25    28    1
    61    25    24    1
    62    19    24   am
    63    19    18    1
    64    18    17    1
    65    18    21    1
    66    22    21    1
    67    21    23    1
    68    12    11    2
    69    11    10    1
    70     4     3    2
    71    15    13    1
    72    10     9    1
    73    10    13    1
    74     3     9   am
    75     3     2    1
    76    13    14    1
    77     2     1    1
    78     2     5    1
    79    14    16    1
    80     8     6    1
    81     5     6    1
    82     6     7    1
