@<TRIPOS>MOLECULE
tmp/4xnvA02.pdb
 103 95 0 0 0
SMALL
GASTEIGER

@<TRIPOS>ATOM
      1  N        -19.5850   14.4790  -14.2290 N.3     8  LYS8       -0.1245
      2  CA       -20.3800   14.4180  -13.0040 C.3     8  LYS8        0.1561
      3  C        -21.0140   15.7970  -12.7420 C.2     8  LYS8        0.2260
      4  O        -20.3590   16.7000  -12.2110 O.2     8  LYS8       -0.2867
      5  CB       -19.5470   13.9100  -11.8070 C.3     8  LYS8        0.0271
      6  CG       -20.3740   13.7740  -10.5350 C.3     8  LYS8        0.0035
      7  CD       -19.6670   13.0820   -9.3940 C.3     8  LYS8        0.0206
      8  CE       -20.4210   13.2790   -8.1000 C.3     8  LYS8        0.1093
      9  NZ       -21.6400   12.4320   -8.0180 N.3     8  LYS8       -0.1314
     10  N        -16.0800    7.9210   23.8440 N.3   268  VAL268     -0.1231
     11  CA       -15.7480    6.6990   23.1060 C.3   268  VAL268      0.1692
     12  C        -16.7300    6.5200   21.9300 C.2   268  VAL268      0.2591
     13  O        -16.2890    6.4390   20.7860 O.2   268  VAL268     -0.2718
     14  CB       -15.6570    5.4650   24.0490 C.3   268  VAL268      0.0266
     15  CG1      -15.6680    4.1460   23.2740 C.3   268  VAL268      0.0020
     16  CG2      -14.4200    5.5530   24.9400 C.3   268  VAL268      0.0020
     17  N        -18.0510    6.5800   22.2130 N.am  269  ILE269     -0.1980
     18  CA       -19.1300    6.4500   21.2280 C.3   269  ILE269      0.1595
     19  C        -19.0590    7.5170   20.1290 C.2   269  ILE269      0.2287
     20  O        -19.0080    7.1460   18.9580 O.2   269  ILE269     -0.2864
     21  CB       -20.5260    6.3670   21.9120 C.3   269  ILE269      0.0276
     22  CG1      -20.6710    5.0440   22.7110 C.3   269  ILE269      0.0022
     23  CG2      -21.6760    6.5380   20.8920 C.3   269  ILE269      0.0022
     24  CD1      -21.6800    5.0800   23.8470 C.3   269  ILE269      0.0001
     25  N        -15.5640    7.4060   17.9650 N.3   272  LEU272     -0.1231
     26  CA       -15.5240    6.2410   17.0810 C.3   272  LEU272      0.1693
     27  C        -16.4950    6.3910   15.9060 C.2   272  LEU272      0.2592
     28  O        -16.1220    6.0750   14.7720 O.2   272  LEU272     -0.2718
     29  CB       -15.7430    4.9140   17.8410 C.3   272  LEU272      0.0284
     30  CG       -14.5910    4.4650   18.7690 C.3   272  LEU272      0.0019
     31  CD1      -14.9930    3.2750   19.6030 C.3   272  LEU272      0.0001
     32  CD2      -13.3260    4.1400   17.9910 C.3   272  LEU272      0.0001
     33  N        -17.7090    6.9380   16.1660 N.am  273  THR273     -0.1953
     34  CA       -18.7230    7.1760   15.1320 C.3   273  THR273      0.1897
     35  C        -18.1720    8.1700   14.1090 C.2   273  THR273      0.2313
     36  O        -18.2200    7.9150   12.9070 O.2   273  THR273     -0.2863
     37  CB       -20.0360    7.6730   15.7630 C.3   273  THR273      0.1794
     38  OG1      -20.5240    6.6760   16.6670 O.3   273  THR273     -0.2208
     39  CG2      -21.0980    7.9970   14.7220 C.3   273  THR273      0.0378
     40  N        -15.5130    6.6000   11.9490 N.3   276  ALA276     -0.1231
     41  CA       -16.1630    5.6470   11.0480 C.3   276  ALA276      0.1694
     42  C        -16.9800    6.3020    9.9480 C.2   276  ALA276      0.2591
     43  O        -17.0360    5.7700    8.8470 O.2   276  ALA276     -0.2718
     44  CB       -17.0250    4.6740   11.8350 C.3   276  ALA276      0.0304
     45  N        -17.6180    7.4340   10.2400 N.am  277  VAL277     -0.1980
     46  CA       -18.4810    8.1430    9.2950 C.3   277  VAL277      0.1595
     47  C        -17.7310    9.2240    8.4980 C.2   277  VAL277      0.2287
     48  O        -18.0190    9.4150    7.3180 O.2   277  VAL277     -0.2864
     49  CB       -19.7510    8.6920   10.0230 C.3   277  VAL277      0.0276
     50  CG1      -20.5310    9.6770    9.1620 C.3   277  VAL277      0.0022
     51  CG2      -20.6570    7.5540   10.4820 C.3   277  VAL277      0.0022
     52  N        -13.6360    7.2760    6.0350 N.3   281  PRO281     -0.2116
     53  CA       -14.0490    7.3460    4.6200 C.3   281  PRO281      0.1372
     54  C        -13.3070    8.4210    3.8190 C.2   281  PRO281      0.2244
     55  O        -12.8340    8.1210    2.7330 O.2   281  PRO281     -0.2868
     56  CB       -15.5630    7.5860    4.6920 C.3   281  PRO281      0.0268
     57  CG       -15.9620    7.0770    5.9990 C.3   281  PRO281      0.0207
     58  CD       -14.8160    7.3470    6.9240 C.3   281  PRO281      0.0892
     59  N        -16.8280    6.4180  -10.1780 N.3   307  ARG307     -0.1245
     60  CA       -17.4510    5.9570   -8.9380 C.3   307  ARG307      0.1563
     61  C        -16.6150    6.3770   -7.7350 C.2   307  ARG307      0.2260
     62  O        -17.1770    6.8010   -6.7280 O.2   307  ARG307     -0.2867
     63  CB       -17.6400    4.4300   -8.9460 C.3   307  ARG307      0.0307
     64  CG       -18.5140    3.9330  -10.0880 C.3   307  ARG307      0.0489
     65  CD       -18.8390    2.4590   -9.9390 C.3   307  ARG307      0.2205
     66  NE       -20.2290    2.2500   -9.5260 N.pl3 307  ARG307     -0.0865
     67  CZ       -20.6320    2.1550   -8.2630 C.cat 307  ARG307      0.5346
     68  NH1      -19.7590    2.2530   -7.2710 N.pl3 307  ARG307      0.1354
     69  NH2      -21.9130    1.9590   -7.9830 N.pl3 307  ARG307      0.1354
     70  N        -17.0840   10.2280   -7.3390 N.3   310  ALA310     -0.1231
     71  CA       -18.4070   10.4880   -6.7740 C.3   310  ALA310      0.1694
     72  C        -18.4500   10.1370   -5.2790 C.2   310  ALA310      0.2592
     73  O        -18.9680   10.9230   -4.4910 O.2   310  ALA310     -0.2718
     74  CB       -19.4690    9.7050   -7.5340 C.3   310  ALA310      0.0304
     75  N        -17.8700    8.9880   -4.8900 N.am  311  THR311     -0.1953
     76  CA       -17.8110    8.5570   -3.4870 C.3   311  THR311      0.1897
     77  C        -16.9530    9.5040   -2.6680 C.2   311  THR311      0.2313
     78  O        -17.3160    9.8140   -1.5280 O.2   311  THR311     -0.2863
     79  CB       -17.4000    7.0940   -3.3790 C.3   311  THR311      0.1794
     80  OG1      -18.3250    6.3250   -4.1340 O.3   311  THR311     -0.2208
     81  CG2      -17.3670    6.5880   -1.9330 C.3   311  THR311      0.0378
     82  N        -18.8330   12.6370   -1.6950 N.3   314  VAL314     -0.1231
     83  CA       -19.6750   12.3360   -0.5360 C.3   314  VAL314      0.1692
     84  C        -18.8850   12.5180    0.7640 C.2   314  VAL314      0.2592
     85  O        -19.3420   13.2190    1.6630 O.2   314  VAL314     -0.2718
     86  CB       -20.3650   10.9430   -0.6220 C.3   314  VAL314      0.0266
     87  CG1      -21.0780   10.6000    0.6870 C.3   314  VAL314      0.0020
     88  CG2      -21.3390   10.8850   -1.7890 C.3   314  VAL314      0.0020
     89  N        -17.6910   11.9250    0.8350 N.am  315  THR315     -0.1953
     90  CA       -16.8100   11.9840    2.0070 C.3   315  THR315      0.1897
     91  C        -16.3020   13.3940    2.2990 C.2   315  THR315      0.2313
     92  O        -16.0480   13.7030    3.4530 O.2   315  THR315     -0.2863
     93  CB       -15.6930   10.9290    1.9340 C.3   315  THR315      0.1794
     94  OG1      -14.7030   11.3370    0.9840 O.3   315  THR315     -0.2208
     95  CG2      -16.2230    9.5340    1.6200 C.3   315  THR315      0.0378
     96  N        -19.0480   14.7890    4.3620 N.3   318  LEU318     -0.1245
     97  CA       -18.9930   14.1210    5.6730 C.3   318  LEU318      0.1561
     98  C        -17.8370   14.6650    6.5220 C.2   318  LEU318      0.2260
     99  O        -18.0160   14.8750    7.7270 O.2   318  LEU318     -0.2867
    100  CB       -18.9110   12.5860    5.5460 C.3   318  LEU318      0.0270
    101  CG       -20.1130   11.8660    4.8960 C.3   318  LEU318      0.0019
    102  CD1      -19.8220   10.3560    4.6890 C.3   318  LEU318      0.0001
    103  CD2      -21.3800   12.0460    5.7070 C.3   318  LEU318      0.0001
@<TRIPOS>BOND
     1     1     2    1
     2     2     3    1
     3     2     5    1
     4     3     4    2
     5     5     6    1
     6     6     7    1
     7    59    60    1
     8    64    65    1
     9    64    63    1
    10    65    66    1
    11    66    67    2
    12     7     8    1
    13    63    60    1
    14    60    61    1
    15    67    69    1
    16    67    68    1
    17     8     9    1
    18    61    62    2
    19    74    71    1
    20    70    71    1
    21    71    72    1
    22    72    75   am
    23    72    73    2
    24    75    76    1
    25    80    79    1
    26    76    79    1
    27    76    77    1
    28    79    81    1
    29    77    78    2
    30    88    86    1
    31    82    83    1
    32    86    83    1
    33    86    87    1
    34    83    84    1
    35    84    89   am
    36    84    85    2
    37    89    90    1
    38    94    93    1
    39    95    93    1
    40    93    90    1
    41    90    91    1
    42    91    92    2
    43    55    54    2
    44    54    53    1
    45    96    97    1
    46    53    56    1
    47    53    52    1
    48   102   101    1
    49    56    57    1
    50   101   100    1
    51   101   103    1
    52   100    97    1
    53    97    98    1
    54    57    58    1
    55    52    58    1
    56    98    99    2
    57    48    47    2
    58    47    46    1
    59    43    42    2
    60    50    49    1
    61    46    49    1
    62    46    45    1
    63    42    45   am
    64    42    41    1
    65    49    51    1
    66    41    44    1
    67    41    40    1
    68    36    35    2
    69    35    34    1
    70    39    37    1
    71    28    27    2
    72    34    37    1
    73    34    33    1
    74    37    38    1
    75    27    33   am
    76    27    26    1
    77    26    29    1
    78    26    25    1
    79    29    30    1
    80    32    30    1
    81    30    31    1
    82    20    19    2
    83    19    18    1
    84    13    12    2
    85    23    21    1
    86    18    21    1
    87    18    17    1
    88    21    22    1
    89    12    17   am
    90    12    11    1
    91    22    24    1
    92    11    10    1
    93    11    14    1
    94    15    14    1
    95    14    16    1
