@<TRIPOS>MOLECULE
tmp/4xnvA04.pdb
 115 111 0 0 0
SMALL
GASTEIGER

@<TRIPOS>ATOM
      1  N        -22.3270   25.5680    7.9410 N.3    24  PHE24      -0.1241
      2  CA       -22.1670   26.9650    8.3570 C.3    24  PHE24       0.1605
      3  C        -23.1700   27.3750    9.4190 C.2    24  PHE24       0.2264
      4  O        -22.7510   27.9060   10.4420 O.2    24  PHE24      -0.2867
      5  CB       -22.1330   27.9760    7.1910 C.3    24  PHE24       0.0534
      6  CG       -21.8850   29.3970    7.6710 C.ar   24  PHE24      -0.0203
      7  CD1      -20.6110   29.8150    8.0320 C.ar   24  PHE24      -0.0042
      8  CD2      -22.9360   30.3030    7.7950 C.ar   24  PHE24      -0.0042
      9  CE1      -20.3890   31.1130    8.5030 C.ar   24  PHE24      -0.0003
     10  CE2      -22.7100   31.6010    8.2660 C.ar   24  PHE24      -0.0003
     11  CZ       -21.4370   31.9990    8.6050 C.ar   24  PHE24      -0.0000
     12  N        -21.6380   27.4660   13.0150 N.3    28  PHE28      -0.1241
     13  CA       -21.4420   28.8140   13.5450 C.3    28  PHE28       0.1605
     14  C        -22.1810   28.9380   14.8680 C.2    28  PHE28       0.2264
     15  O        -21.5860   29.4180   15.8240 O.2    28  PHE28      -0.2867
     16  CB       -21.8710   29.9070   12.5480 C.3    28  PHE28       0.0534
     17  CG       -21.5580   31.3200   12.9810 C.ar   28  PHE28      -0.0203
     18  CD1      -20.2940   31.8660   12.7760 C.ar   28  PHE28      -0.0042
     19  CD2      -22.5310   32.1110   13.5860 C.ar   28  PHE28      -0.0042
     20  CE1      -20.0070   33.1700   13.1770 C.ar   28  PHE28      -0.0003
     21  CE2      -22.2410   33.4180   13.9880 C.ar   28  PHE28      -0.0003
     22  CZ       -20.9810   33.9380   13.7800 C.ar   28  PHE28      -0.0000
     23  N        -13.0420   28.7290   13.1020 N.3    61  LEU61      -0.1245
     24  CA       -12.1470   29.3160   12.0900 C.3    61  LEU61       0.1561
     25  C        -12.4900   28.7500   10.7110 C.2    61  LEU61       0.2260
     26  O        -12.6870   29.5230    9.7710 O.2    61  LEU61      -0.2867
     27  CB       -10.6540   29.0650   12.4330 C.3    61  LEU61       0.0270
     28  CG        -9.6060   29.3530   11.3230 C.3    61  LEU61       0.0019
     29  CD1       -9.4230   30.8550   11.0910 C.3    61  LEU61       0.0001
     30  CD2       -8.2650   28.7030   11.6420 C.3    61  LEU61       0.0001
     31  N        -15.9170   29.8600    9.5520 N.3    64  LEU64      -0.1231
     32  CA       -15.7840   31.2490    9.0900 C.3    64  LEU64       0.1693
     33  C        -15.4860   31.3640    7.5840 C.2    64  LEU64       0.2592
     34  O        -15.8980   32.3320    6.9640 O.2    64  LEU64      -0.2718
     35  CB       -14.6880   31.9540    9.9100 C.3    64  LEU64       0.0284
     36  CG       -15.0950   33.1030   10.8370 C.3    64  LEU64       0.0019
     37  CD1      -16.2870   32.7500   11.7250 C.3    64  LEU64       0.0001
     38  CD2      -13.9130   33.5580   11.6740 C.3    64  LEU64       0.0001
     39  N        -14.8180   30.3630    6.9990 N.am   65  THR65      -0.1953
     40  CA       -14.4350   30.3450    5.5810 C.3    65  THR65       0.1897
     41  C        -15.5250   29.8020    4.6580 C.2    65  THR65       0.2313
     42  O        -15.4470   30.0010    3.4460 O.2    65  THR65      -0.2863
     43  CB       -13.1600   29.5110    5.3830 C.3    65  THR65       0.1794
     44  OG1      -13.4800   28.1180    5.5310 O.3    65  THR65      -0.2208
     45  CG2      -12.0360   29.9200    6.3140 C.3    65  THR65       0.0378
     46  N        -18.8000   30.5770    3.8650 N.3    67  PRO67      -0.2102
     47  CA       -19.5450   31.4170    2.9030 C.3    67  PRO67       0.1504
     48  C        -18.8360   31.6570    1.5690 C.2    67  PRO67       0.2575
     49  O        -19.5040   31.6310    0.5360 O.2    67  PRO67      -0.2718
     50  CB       -19.7910   32.7110    3.6820 C.3    67  PRO67       0.0282
     51  CG       -19.8110   32.2810    5.0980 C.3    67  PRO67       0.0208
     52  CD       -18.7110   31.2580    5.1760 C.3    67  PRO67       0.0893
     53  N        -17.4910   31.8260    1.5840 N.am   68  ALA68      -0.1980
     54  CA       -16.6510   31.9810    0.3850 C.3    68  ALA68       0.1597
     55  C        -16.8120   30.7480   -0.5270 C.2    68  ALA68       0.2287
     56  O        -17.0190   30.8890   -1.7360 O.2    68  ALA68      -0.2864
     57  CB       -15.1840   32.1180    0.7850 C.3    68  ALA68       0.0319
     58  N        -13.7780   31.1620   -8.8440 N.3    79  TRP79      -0.1241
     59  CA       -13.1620   31.7880   -7.6720 C.3    79  TRP79       0.1605
     60  C        -12.7890   33.2380   -7.9750 C.2    79  TRP79       0.2264
     61  O        -11.9800   33.5000   -8.8660 O.2    79  TRP79      -0.2867
     62  CB       -11.9590   30.9690   -7.1740 C.3    79  TRP79       0.0550
     63  CG       -11.4150   31.4270   -5.8530 C.ar   79  TRP79       0.0003
     64  CD1      -10.3930   32.3010   -5.6500 C.ar   79  TRP79       0.0946
     65  CD2      -11.8560   31.0160   -4.5530 C.ar   79  TRP79       0.0152
     66  NE1      -10.1690   32.4640   -4.3050 N.ar   79  TRP79      -0.2442
     67  CE2      -11.0470   31.6800   -3.6070 C.ar   79  TRP79       0.0810
     68  CE3      -12.8530   30.1380   -4.0920 C.ar   79  TRP79       0.0012
     69  CZ2      -11.2040   31.5020   -2.2260 C.ar   79  TRP79       0.0191
     70  CZ3      -13.0050   29.9610   -2.7210 C.ar   79  TRP79       0.0001
     71  CH2      -12.1900   30.6420   -1.8060 C.ar   79  TRP79       0.0015
     72  N        -11.9890   35.4300   -5.3210 N.3    81  PHE81      -0.1241
     73  CA       -11.2450   35.9300   -4.1660 C.3    81  PHE81       0.1605
     74  C         -9.7160   35.9780   -4.2810 C.2    81  PHE81       0.2264
     75  O         -9.0490   36.4630   -3.3640 O.2    81  PHE81      -0.2867
     76  CB       -11.7370   35.2670   -2.8740 C.3    81  PHE81       0.0534
     77  CG       -13.2350   35.3800   -2.7050 C.ar   81  PHE81      -0.0203
     78  CD1      -13.8300   36.6040   -2.4190 C.ar   81  PHE81      -0.0042
     79  CD2      -14.0520   34.2660   -2.8470 C.ar   81  PHE81      -0.0042
     80  CE1      -15.2180   36.7110   -2.2690 C.ar   81  PHE81      -0.0003
     81  CE2      -15.4390   34.3740   -2.6990 C.ar   81  PHE81      -0.0003
     82  CZ       -16.0120   35.5960   -2.4140 C.ar   81  PHE81      -0.0000
     83  N         -6.3350   33.7910   -1.1910 N.3    85  MET85      -0.1245
     84  CA        -7.5310   33.3950   -0.4460 C.3    85  MET85       0.1570
     85  C         -7.9010   31.9580   -0.7180 C.2    85  MET85       0.2261
     86  O         -8.4320   31.2790    0.1690 O.2    85  MET85      -0.2867
     87  CB        -8.7130   34.3280   -0.7230 C.3    85  MET85       0.0387
     88  CG        -8.5870   35.6760   -0.0260 C.3    85  MET85       0.0595
     89  SD        -8.5640   35.5910    1.7860 S.3    85  MET85      -0.1393
     90  CE       -10.3220   35.3240    2.1240 C.3    85  MET85       0.0692
     91  N         -5.4130   29.9590    1.3860 N.3    88  LEU88      -0.1231
     92  CA        -5.8300   30.0840    2.7770 C.3    88  LEU88       0.1693
     93  C         -7.0840   29.2530    3.0480 C.2    88  LEU88       0.2591
     94  O         -7.1820   28.6360    4.1060 O.2    88  LEU88      -0.2718
     95  CB        -6.0580   31.5620    3.1220 C.3    88  LEU88       0.0284
     96  CG        -6.2620   31.9240    4.5990 C.3    88  LEU88       0.0019
     97  CD1       -5.0490   31.5440    5.4600 C.3    88  LEU88       0.0001
     98  CD2       -6.5820   33.4100    4.7460 C.3    88  LEU88       0.0001
     99  N         -8.0160   29.2070    2.0810 N.am   89  GLN89      -0.1979
    100  CA        -9.2320   28.4000    2.1930 C.3    89  GLN89       0.1601
    101  C         -8.8300   26.9340    2.3640 C.2    89  GLN89       0.2287
    102  O         -9.2980   26.2720    3.2880 O.2    89  GLN89      -0.2864
    103  CB       -10.1180   28.5820    0.9420 C.3    89  GLN89       0.0394
    104  CG       -11.4040   27.7490    0.9390 C.3    89  GLN89       0.0908
    105  CD       -12.5490   28.4400    1.6370 C.2    89  GLN89       0.2608
    106  OE1      -12.8430   29.6170    1.3990 O.2    89  GLN89      -0.2717
    107  NE2      -13.2710   27.7000    2.4600 N.am   89  GLN89      -0.0878
    108  N         -6.7490   26.1880    5.8030 N.3    92  ILE92      -0.1245
    109  CA        -7.6470   26.1670    6.9600 C.3    92  ILE92       0.1561
    110  C         -8.4270   24.8470    7.0440 C.2    92  ILE92       0.2260
    111  O         -8.5570   24.2990    8.1440 O.2    92  ILE92      -0.2867
    112  CB        -8.5340   27.4410    6.9950 C.3    92  ILE92       0.0252
    113  CG1       -7.6620   28.6710    7.3790 C.3    92  ILE92       0.0019
    114  CG2       -9.7170   27.2760    7.9510 C.3    92  ILE92       0.0019
    115  CD1       -8.3030   30.0820    7.1760 C.3    92  ILE92       0.0001
@<TRIPOS>BOND
     1    61    60    2
     2    58    59    1
     3    60    59    1
     4    59    62    1
     5    62    63    1
     6    63    64   ar
     7    63    65   ar
     8    64    66   ar
     9    72    73    1
    10    65    68   ar
    11    65    67   ar
    12    66    67   ar
    13    74    73    1
    14    74    75    2
    15    73    76    1
    16    68    70   ar
    17    67    69   ar
    18    76    77    1
    19    79    77   ar
    20    79    81   ar
    21    70    71   ar
    22    77    78   ar
    23    81    82   ar
    24    78    80   ar
    25    82    80   ar
    26    69    71   ar
    27    56    55    2
    28    83    84    1
    29    87    84    1
    30    87    88    1
    31    85    84    1
    32    85    86    2
    33    55    54    1
    34    88    89    1
    35    54    57    1
    36    54    53    1
    37    49    48    2
    38   104   103    1
    39   104   105    1
    40   103   100    1
    41    91    92    1
    42   106   105    2
    43    48    53   am
    44    48    47    1
    45   105   107   am
    46    89    90    1
    47    99   100    1
    48    99    93   am
    49   100   101    1
    50   101   102    2
    51    92    93    1
    52    92    95    1
    53    47    50    1
    54    47    46    1
    55    93    94    2
    56    95    96    1
    57    42    41    2
    58    50    51    1
    59    46    52    1
    60    96    98    1
    61    96    97    1
    62    41    40    1
    63    51    52    1
    64    43    44    1
    65    43    40    1
    66    43    45    1
    67    40    39    1
    68   108   109    1
    69   109   112    1
    70   109   110    1
    71    34    33    2
    72   112   113    1
    73   112   114    1
    74    39    33   am
    75   110   111    2
    76   115   113    1
    77     5     6    1
    78     5     2    1
    79    33    32    1
    80     6     8   ar
    81     6     7   ar
    82     8    10   ar
    83     1     2    1
    84     7     9   ar
    85    10    11   ar
    86     2     3    1
    87     9    11   ar
    88    32    31    1
    89    32    35    1
    90     3     4    2
    91    26    25    2
    92    35    36    1
    93    25    24    1
    94    36    38    1
    95    36    37    1
    96    29    28    1
    97    28    30    1
    98    28    27    1
    99    24    27    1
   100    24    23    1
   101    16    17    1
   102    16    13    1
   103    18    17   ar
   104    18    20   ar
   105    17    19   ar
   106    12    13    1
   107    20    22   ar
   108    13    14    1
   109    19    21   ar
   110    22    21   ar
   111    14    15    2
