@<TRIPOS>MOLECULE
tmp/4xnvA12.pdb
 133 123 0 0 0
SMALL
GASTEIGER

@<TRIPOS>ATOM
      1  N        -19.5850   14.4790  -14.2290 N.3     8  LYS8       -0.1245
      2  CA       -20.3800   14.4180  -13.0040 C.3     8  LYS8        0.1561
      3  C        -21.0140   15.7970  -12.7420 C.2     8  LYS8        0.2260
      4  O        -20.3590   16.7000  -12.2110 O.2     8  LYS8       -0.2867
      5  CB       -19.5470   13.9100  -11.8070 C.3     8  LYS8        0.0271
      6  CG       -20.3740   13.7740  -10.5350 C.3     8  LYS8        0.0035
      7  CD       -19.6670   13.0820   -9.3940 C.3     8  LYS8        0.0206
      8  CE       -20.4210   13.2790   -8.1000 C.3     8  LYS8        0.1093
      9  NZ       -21.6400   12.4320   -8.0180 N.3     8  LYS8       -0.1314
     10  N        -25.2850   16.5990   -9.3240 N.3    11  PHE11      -0.1227
     11  CA       -25.1930   15.9280   -8.0260 C.3    11  PHE11       0.1736
     12  C        -24.2380   16.6480   -7.0710 C.2    11  PHE11       0.2595
     13  O        -24.6930   17.2050   -6.0720 O.2    11  PHE11      -0.2718
     14  CB       -24.8170   14.4340   -8.1760 C.3    11  PHE11       0.0547
     15  CG       -24.9420   13.8290   -9.5560 C.ar   11  PHE11      -0.0202
     16  CD1      -26.1760   13.4150  -10.0450 C.ar   11  PHE11      -0.0042
     17  CD2      -23.8220   13.6490  -10.3560 C.ar   11  PHE11      -0.0042
     18  CE1      -26.2890   12.8530  -11.3220 C.ar   11  PHE11      -0.0003
     19  CE2      -23.9320   13.0810  -11.6290 C.ar   11  PHE11      -0.0003
     20  CZ       -25.1640   12.6880  -12.1050 C.ar   11  PHE11      -0.0000
     21  N        -22.9250   16.6480   -7.3860 N.am   12  GLN12      -0.1979
     22  CA       -21.8650   17.2720   -6.5790 C.3    12  GLN12       0.1601
     23  C        -21.9570   18.7990   -6.5160 C.2    12  GLN12       0.2287
     24  O        -21.5030   19.3980   -5.5370 O.2    12  GLN12      -0.2864
     25  CB       -20.4590   16.8190   -7.0330 C.3    12  GLN12       0.0394
     26  CG       -20.1600   17.0520   -8.5220 C.3    12  GLN12       0.0908
     27  CD       -18.6970   16.9470   -8.8950 C.2    12  GLN12       0.2608
     28  OE1      -17.7900   17.0780   -8.0630 O.2    12  GLN12      -0.2717
     29  NE2      -18.4370   16.7720  -10.1820 N.am   12  GLN12      -0.0878
     30  N        -24.8530   19.0340   -3.7680 N.3    15  TYR15      -0.1241
     31  CA       -24.5100   18.3760   -2.5060 C.3    15  TYR15       0.1605
     32  C        -23.5610   19.1710   -1.6020 C.2    15  TYR15       0.2264
     33  O        -23.9400   19.5050   -0.4770 O.2    15  TYR15      -0.2867
     34  CB       -24.0150   16.9450   -2.7570 C.3    15  TYR15       0.0534
     35  CG       -23.4210   16.2570   -1.5490 C.ar   15  TYR15      -0.0201
     36  CD1      -24.2350   15.7580   -0.5320 C.ar   15  TYR15      -0.0009
     37  CD2      -22.0470   16.0660   -1.4370 C.ar   15  TYR15      -0.0009
     38  CE1      -23.6900   15.1100    0.5780 C.ar   15  TYR15       0.0417
     39  CE2      -21.4930   15.4300   -0.3290 C.ar   15  TYR15       0.0417
     40  CZ       -22.3170   14.9550    0.6760 C.ar   15  TYR15       0.1957
     41  OH       -21.7620   14.3390    1.7670 O.3    15  TYR15      -0.2866
     42  N        -24.4760   20.9580    1.9960 N.3    19  VAL19      -0.1245
     43  CA       -23.7700   20.5200    3.1960 C.3    19  VAL19       0.1561
     44  C        -23.0360   21.7180    3.8000 C.2    19  VAL19       0.2260
     45  O        -23.1510   21.9350    5.0060 O.2    19  VAL19      -0.2867
     46  CB       -22.8150   19.3340    2.8950 C.3    19  VAL19       0.0252
     47  CG1      -21.7900   19.1430    4.0070 C.3    19  VAL19       0.0019
     48  CG2      -23.5980   18.0450    2.6570 C.3    19  VAL19       0.0019
     49  N        -25.5150   24.0130    5.6020 N.3    22  LEU22      -0.1245
     50  CA       -25.9350   23.2740    6.7950 C.3    22  LEU22       0.1561
     51  C        -24.8570   23.3480    7.8810 C.2    22  LEU22       0.2260
     52  O        -25.1710   23.6850    9.0300 O.2    22  LEU22      -0.2867
     53  CB       -26.2240   21.8140    6.4000 C.3    22  LEU22       0.0270
     54  CG       -26.9740   20.9340    7.4000 C.3    22  LEU22       0.0019
     55  CD1      -28.1130   20.1940    6.7180 C.3    22  LEU22       0.0001
     56  CD2      -26.0320   19.9200    8.0310 C.3    22  LEU22       0.0001
     57  N        -25.3480   25.4510   11.4800 N.3    26  ILE26      -0.1245
     58  CA       -25.2420   24.6480   12.7050 C.3    26  ILE26       0.1561
     59  C        -23.8660   24.8380   13.3980 C.2    26  ILE26       0.2260
     60  O        -23.8230   25.0250   14.6190 O.2    26  ILE26      -0.2867
     61  CB       -25.6410   23.1590   12.4390 C.3    26  ILE26       0.0252
     62  CG1      -27.0710   23.0780   11.8460 C.3    26  ILE26       0.0019
     63  CG2      -25.5370   22.2940   13.7160 C.3    26  ILE26       0.0019
     64  CD1      -27.4230   21.7770   11.1250 C.3    26  ILE26       0.0001
     65  N        -23.3840   26.4090   17.1440 N.3    30  GLY30      -0.1225
     66  CA       -22.7720   25.5330   18.1410 C.3    30  GLY30       0.1811
     67  C        -21.4120   25.9850   18.6370 C.2    30  GLY30       0.2280
     68  O        -21.1680   25.9920   19.8500 O.2    30  GLY30      -0.2866
     69  N        -17.0840   10.2280   -7.3390 N.3   310  ALA310     -0.1245
     70  CA       -18.4070   10.4880   -6.7740 C.3   310  ALA310      0.1562
     71  C        -18.4500   10.1370   -5.2790 C.2   310  ALA310      0.2260
     72  O        -18.9680   10.9230   -4.4910 O.2   310  ALA310     -0.2867
     73  CB       -19.4690    9.7050   -7.5340 C.3   310  ALA310      0.0290
     74  N        -16.4820   12.7590   -3.2930 N.3   313  GLN313     -0.1231
     75  CA       -17.3160   13.9730   -3.1300 C.3   313  GLN313      0.1698
     76  C        -18.2240   13.8400   -1.9060 C.2   313  GLN313      0.2592
     77  O        -18.3050   14.7810   -1.1330 O.2   313  GLN313     -0.2718
     78  CB       -18.1690   14.2730   -4.3820 C.3   313  GLN313      0.0381
     79  CG       -17.4110   14.5840   -5.6750 C.3   313  GLN313      0.0905
     80  CD       -16.1410   15.3770   -5.4730 C.2   313  GLN313      0.2608
     81  OE1      -16.1580   16.5100   -4.9960 O.2   313  GLN313     -0.2717
     82  NE2      -15.0070   14.7780   -5.8100 N.am  313  GLN313     -0.0878
     83  N        -18.8330   12.6370   -1.6950 N.am  314  VAL314     -0.1980
     84  CA       -19.6750   12.3360   -0.5360 C.3   314  VAL314      0.1595
     85  C        -18.8850   12.5180    0.7640 C.2   314  VAL314      0.2287
     86  O        -19.3420   13.2190    1.6630 O.2   314  VAL314     -0.2864
     87  CB       -20.3650   10.9430   -0.6220 C.3   314  VAL314      0.0276
     88  CG1      -21.0780   10.6000    0.6870 C.3   314  VAL314      0.0022
     89  CG2      -21.3390   10.8850   -1.7890 C.3   314  VAL314      0.0022
     90  N        -19.0480   14.7890    4.3620 N.3   318  LEU318     -0.1245
     91  CA       -18.9930   14.1210    5.6730 C.3   318  LEU318      0.1561
     92  C        -17.8370   14.6650    6.5220 C.2   318  LEU318      0.2260
     93  O        -18.0160   14.8750    7.7270 O.2   318  LEU318     -0.2867
     94  CB       -18.9110   12.5860    5.5460 C.3   318  LEU318      0.0270
     95  CG       -20.1130   11.8660    4.8960 C.3   318  LEU318      0.0019
     96  CD1      -19.8220   10.3560    4.6890 C.3   318  LEU318      0.0001
     97  CD2      -21.3800   12.0460    5.7070 C.3   318  LEU318      0.0001
     98  N        -18.8620   18.0490    8.0180 N.3   321  LEU321     -0.1245
     99  CA       -19.8910   17.8550    9.0440 C.3   321  LEU321      0.1561
    100  C        -19.3870   17.7960   10.4910 C.2   321  LEU321      0.2260
    101  O        -20.1450   18.1360   11.4020 O.2   321  LEU321     -0.2867
    102  CB       -20.7760   16.6370    8.7290 C.3   321  LEU321      0.0270
    103  CG       -21.8060   16.8230    7.6200 C.3   321  LEU321      0.0019
    104  CD1      -22.2340   15.4820    7.0560 C.3   321  LEU321      0.0001
    105  CD2      -23.0220   17.5980    8.1150 C.3   321  LEU321      0.0001
    106  N        -19.8640   20.8000   12.9860 N.3   324  CYS324     -0.1221
    107  CA       -21.1390   21.0090   13.6600 C.3   324  CYS324      0.1808
    108  C        -21.5760   19.8330   14.5490 C.2   324  CYS324      0.2601
    109  O        -22.5930   19.9350   15.2240 O.2   324  CYS324     -0.2717
    110  CB       -22.2260   21.4440   12.6800 C.3   324  CYS324      0.0970
    111  SG       -22.6520   20.2130   11.4300 S.3   324  CYS324     -0.0800
    112  N        -20.7700   18.7470   14.5890 N.am  325  VAL325     -0.1979
    113  CA       -20.9850   17.5520   15.4170 C.3   325  VAL325      0.1595
    114  C        -20.1710   17.6890   16.7250 C.2   325  VAL325      0.2287
    115  O        -20.7010   17.4150   17.8050 O.2   325  VAL325     -0.2864
    116  CB       -20.6910   16.2360   14.6350 C.3   325  VAL325      0.0276
    117  CG1      -20.6720   15.0130   15.5530 C.3   325  VAL325      0.0022
    118  CG2      -21.7040   16.0330   13.5080 C.3   325  VAL325      0.0022
    119  N        -19.4130   20.2780   18.8090 N.3   327  PRO327     -0.2102
    120  CA       -19.9690   20.9420   20.0060 C.3   327  PRO327      0.1504
    121  C        -20.7050   20.0320   21.0020 C.2   327  PRO327      0.2575
    122  O        -20.6250   20.2820   22.2000 O.2   327  PRO327     -0.2718
    123  CB       -20.8880   22.0220   19.4230 C.3   327  PRO327      0.0282
    124  CG       -20.3100   22.3110   18.0980 C.3   327  PRO327      0.0208
    125  CD       -19.8480   20.9820   17.5830 C.3   327  PRO327      0.0893
    126  N        -21.3710   18.9610   20.5170 N.am  328  ILE328     -0.1980
    127  CA       -22.0990   17.9720   21.3330 C.3   328  ILE328      0.1595
    128  C        -21.1700   17.3640   22.4160 C.2   328  ILE328      0.2287
    129  O        -21.6110   17.1110   23.5410 O.2   328  ILE328     -0.2864
    130  CB       -22.7560   16.8800   20.4190 C.3   328  ILE328      0.0276
    131  CG1      -23.7370   17.5040   19.3930 C.3   328  ILE328      0.0022
    132  CG2      -23.4540   15.7820   21.2330 C.3   328  ILE328      0.0022
    133  CD1      -24.0120   16.6310   18.1390 C.3   328  ILE328      0.0001
@<TRIPOS>BOND
     1     1     2    1
     2     2     3    1
     3     2     5    1
     4     3     4    2
     5    20    19   ar
     6    20    18   ar
     7     5     6    1
     8    19    17   ar
     9    18    16   ar
    10     6     7    1
    11    17    15   ar
    12    29    27   am
    13    16    15   ar
    14    15    14    1
    15     7     8    1
    16    10    11    1
    17    27    26    1
    18    27    28    2
    19    26    25    1
    20    14    11    1
    21     8     9    1
    22    11    12    1
    23    73    70    1
    24    21    12   am
    25    21    22    1
    26    69    70    1
    27    12    13    2
    28    25    22    1
    29    70    71    1
    30    22    23    1
    31    23    24    2
    32    82    80   am
    33    79    80    1
    34    79    78    1
    35    80    81    2
    36    71    72    2
    37    78    75    1
    38    30    31    1
    39    74    75    1
    40    75    76    1
    41    34    31    1
    42    34    35    1
    43    31    32    1
    44    76    83   am
    45    76    77    2
    46    89    87    1
    47    83    84    1
    48    32    33    2
    49    35    37   ar
    50    35    36   ar
    51    37    39   ar
    52    87    84    1
    53    87    88    1
    54    84    85    1
    55    36    38   ar
    56    39    40   ar
    57    38    40   ar
    58    40    41    1
    59    85    86    2
    60    42    43    1
    61    48    46    1
    62    46    43    1
    63    46    47    1
    64    43    44    1
    65    44    45    2
    66    90    91    1
    67    96    95    1
    68    95    94    1
    69    95    97    1
    70    94    91    1
    71    49    50    1
    72    91    92    1
    73    53    50    1
    74    53    54    1
    75    92    93    2
    76    55    54    1
    77    50    51    1
    78   104   103    1
    79    54    56    1
    80   103   105    1
    81   103   102    1
    82    51    52    2
    83    98    99    1
    84   102    99    1
    85    99   100    1
    86   100   101    2
    87    64    62    1
    88   111   110    1
    89    57    58    1
    90    62    61    1
    91    61    58    1
    92    61    63    1
    93   110   107    1
    94    58    59    1
    95   106   107    1
    96    59    60    2
    97   118   116    1
    98   107   108    1
    99   108   112   am
   100   108   109    2
   101   112   113    1
   102   116   113    1
   103   116   117    1
   104   113   114    1
   105   114   115    2
   106    65    66    1
   107   125   124    1
   108   125   119    1
   109   124   123    1
   110   133   131    1
   111    66    67    1
   112    67    68    2
   113   119   120    1
   114   131   130    1
   115   123   120    1
   116   120   121    1
   117   130   132    1
   118   130   127    1
   119   126   121   am
   120   126   127    1
   121   121   122    2
   122   127   128    1
   123   128   129    2
