@<TRIPOS>MOLECULE
tmp/4xnwB00.pdb
 238 225 0 0 0
SMALL
GASTEIGER

@<TRIPOS>ATOM
      1  N         27.5670  -12.0130  -44.6840 N.3     4  LYS4       -0.1231
      2  CA        28.1360  -11.3010  -43.5250 C.3     4  LYS4        0.1693
      3  C         27.6710   -9.8620  -43.5720 C.2     4  LYS4        0.2592
      4  O         27.7360   -9.2260  -44.6200 O.2     4  LYS4       -0.2718
      5  CB        29.6710  -11.2600  -43.5460 C.3     4  LYS4        0.0285
      6  CG        30.3760  -12.4650  -42.9280 C.3     4  LYS4        0.0035
      7  CD        30.6550  -12.1940  -41.4560 C.3     4  LYS4        0.0206
      8  CE        31.0420  -13.4490  -40.6930 C.3     4  LYS4        0.1093
      9  NZ        30.6630  -13.3770  -39.2430 N.3     4  LYS4       -0.1314
     10  N         27.2440   -9.3390  -42.4330 N.am    5  CYS5       -0.1970
     11  CA        26.9170   -7.9240  -42.3290 C.3     5  CYS5        0.1712
     12  C         28.1870   -7.1110  -42.5390 C.2     5  CYS5        0.2296
     13  O         29.2950   -7.6320  -42.3860 O.2     5  CYS5       -0.2864
     14  CB        26.3050   -7.5970  -40.9600 C.3     5  CYS5        0.0983
     15  SG        24.5250   -7.9050  -40.7960 S.3     5  CYS5       -0.0798
     16  N         30.3140   -4.2220  -40.9810 N.3     7  LEU7       -0.1245
     17  CA        30.4100   -3.6940  -39.6360 C.3     7  LEU7        0.1561
     18  C         30.8140   -2.2360  -39.7570 C.2     7  LEU7        0.2260
     19  O         31.9540   -1.9460  -40.0800 O.2     7  LEU7       -0.2867
     20  CB        31.4180   -4.4830  -38.7900 C.3     7  LEU7        0.0270
     21  CG        31.4340   -4.0690  -37.3260 C.3     7  LEU7        0.0019
     22  CD1       30.0920   -4.3230  -36.6390 C.3     7  LEU7        0.0001
     23  CD2       32.5490   -4.8070  -36.6160 C.3     7  LEU7        0.0001
     24  N         32.0980    0.8940  -38.4650 N.3     9  LYS9       -0.1245
     25  CA        32.8740    1.2840  -37.2940 C.3     9  LYS9        0.1561
     26  C         32.9990    2.8040  -37.2290 C.2     9  LYS9        0.2260
     27  O         33.5900    3.4170  -38.1170 O.2     9  LYS9       -0.2867
     28  CB        34.2670    0.6540  -37.3470 C.3     9  LYS9        0.0271
     29  CG        34.2770   -0.8600  -37.1790 C.3     9  LYS9        0.0035
     30  CD        35.6320   -1.4730  -37.5340 C.3     9  LYS9        0.0206
     31  CE        36.7060   -1.1570  -36.5090 C.3     9  LYS9        0.1093
     32  NZ        38.0680   -1.5050  -36.9840 N.3     9  LYS9       -0.1314
     33  N         36.0150    4.6950  -30.6400 N.3    13  GLN13      -0.1245
     34  CA        36.7410    3.7200  -29.8160 C.3    13  GLN13       0.1566
     35  C         38.2490    3.9490  -29.8620 C.2    13  GLN13       0.2260
     36  O         38.9380    3.7510  -28.8620 O.2    13  GLN13      -0.2867
     37  CB        36.4220    2.2660  -30.2480 C.3    13  GLN13       0.0367
     38  CG        36.0620    2.1040  -31.7260 C.3    13  GLN13       0.0905
     39  CD        35.8370    0.6560  -32.1300 C.2    13  GLN13       0.2608
     40  OE1       34.7130    0.2550  -32.4350 O.2    13  GLN13      -0.2717
     41  NE2       36.9050   -0.1330  -32.1370 N.am   13  GLN13      -0.0878
     42  N         47.5510   -0.3710  -28.6020 N.3    73  TYR73      -0.1241
     43  CA        46.7680   -1.0420  -29.6740 C.3    73  TYR73       0.1605
     44  C         45.6640   -0.1310  -30.2090 C.2    73  TYR73       0.2264
     45  O         45.5180    0.0310  -31.4140 O.2    73  TYR73      -0.2867
     46  CB        46.1930   -2.3470  -29.1170 C.3    73  TYR73       0.0534
     47  CG        45.1430   -3.1070  -29.9160 C.ar   73  TYR73      -0.0201
     48  CD1       45.4910   -3.9020  -31.0050 C.ar   73  TYR73      -0.0009
     49  CD2       43.8150   -3.1270  -29.5020 C.ar   73  TYR73      -0.0009
     50  CE1       44.5290   -4.6390  -31.6890 C.ar   73  TYR73       0.0417
     51  CE2       42.8570   -3.8570  -30.1850 C.ar   73  TYR73       0.0417
     52  CZ        43.2240   -4.6140  -31.2660 C.ar   73  TYR73       0.1957
     53  OH        42.2670   -5.3220  -31.9490 O.3    73  TYR73      -0.2866
     54  N         43.9770   -0.0640  -33.5770 N.3    78  THR78      -0.1218
     55  CA        43.6710   -1.4850  -33.2830 C.3    78  THR78       0.1862
     56  C         44.4030   -2.4310  -34.2240 C.2    78  THR78       0.2287
     57  O         43.8180   -3.4060  -34.7390 O.2    78  THR78      -0.2866
     58  CB        42.1520   -1.8090  -33.3440 C.3    78  THR78       0.1770
     59  OG1       41.6830   -1.7360  -34.7050 O.3    78  THR78      -0.2211
     60  CG2       41.3710   -0.8570  -32.4800 C.3    78  THR78       0.0375
     61  N         44.5050  -11.1530  -23.0530 N.3    91  ARG91      -0.1245
     62  CA        43.1110  -11.5250  -22.8590 C.3    91  ARG91       0.1563
     63  C         42.9770  -12.4390  -21.6640 C.2    91  ARG91       0.2260
     64  O         42.0960  -12.2440  -20.8310 O.2    91  ARG91      -0.2867
     65  CB        42.5470  -12.1780  -24.1200 C.3    91  ARG91       0.0307
     66  CG        42.7160  -11.3410  -25.3860 C.3    91  ARG91       0.0489
     67  CD        42.3930   -9.8540  -25.1820 C.3    91  ARG91       0.2205
     68  NE        42.2530   -9.1790  -26.4780 N.pl3  91  ARG91      -0.0865
     69  CZ        42.0000   -7.8830  -26.6600 C.cat  91  ARG91       0.5346
     70  NH1       41.8400   -7.0600  -25.6320 N.pl3  91  ARG91       0.1354
     71  NH2       41.9020   -7.4020  -27.8960 N.pl3  91  ARG91       0.1354
     72  N         43.2980   -8.9850  -40.8230 N.3   158  ARG158     -0.1231
     73  CA        42.1350   -8.3850  -41.4660 C.3   158  ARG158      0.1694
     74  C         42.3850   -8.2340  -42.9570 C.2   158  ARG158      0.2591
     75  O         43.5390   -8.2630  -43.4130 O.2   158  ARG158     -0.2718
     76  CB        41.8570   -6.9880  -40.9050 C.3   158  ARG158      0.0321
     77  CG        41.6310   -6.8880  -39.4130 C.3   158  ARG158      0.0489
     78  CD        41.2170   -5.4730  -39.0370 C.3   158  ARG158      0.2205
     79  NE        40.8970   -5.3480  -37.6090 N.pl3 158  ARG158     -0.0865
     80  CZ        41.7650   -5.0410  -36.6550 C.cat 158  ARG158      0.5346
     81  NH1       43.0410   -4.8150  -36.9430 N.pl3 158  ARG158      0.1354
     82  NH2       41.3610   -4.9760  -35.3940 N.pl3 158  ARG158      0.1354
     83  N         41.2960   -8.0360  -43.7030 N.am  159  LYS159     -0.1980
     84  CA        41.3560   -7.8460  -45.1600 C.3   159  LYS159      0.1596
     85  C         42.2640   -6.6680  -45.4980 C.2   159  LYS159      0.2287
     86  O         43.1490   -6.7870  -46.3370 O.2   159  LYS159     -0.2864
     87  CB        39.9520   -7.6350  -45.7590 C.3   159  LYS159      0.0298
     88  CG        38.9280   -8.6950  -45.2850 C.3   159  LYS159      0.0038
     89  CD        38.1590   -8.2290  -44.0330 C.3   159  LYS159      0.0206
     90  CE        38.2020   -9.2530  -42.9050 C.3   159  LYS159      0.1093
     91  NZ        37.8920   -8.6120  -41.5990 N.3   159  LYS159     -0.1314
     92  N         44.2840   -8.0770  -35.9790 N.3   164  THR164     -0.1203
     93  CA        43.3290   -8.0540  -34.8860 C.3   164  THR164      0.1994
     94  C         43.8790   -8.8700  -33.7210 C.2   164  THR164      0.2618
     95  O         44.4790   -9.9330  -33.9330 O.2   164  THR164     -0.2717
     96  CB        42.0040   -8.7100  -35.3410 C.3   164  THR164      0.1784
     97  OG1       41.5680   -8.0890  -36.5480 O.3   164  THR164     -0.2211
     98  CG2       40.9190   -8.5790  -34.2940 C.3   164  THR164      0.0376
     99  N         43.6630   -8.3920  -32.5000 N.am  165  CYS165     -0.1955
    100  CA        43.8690   -9.2290  -31.3030 C.3   165  CYS165      0.1843
    101  C         42.4720   -9.5970  -30.8450 C.2   165  CYS165      0.2625
    102  O         41.7670   -8.7630  -30.3160 O.2   165  CYS165     -0.2714
    103  CB        44.6260   -8.4540  -30.2150 C.3   165  CYS165      0.0997
    104  SG        44.9190   -9.2700  -28.6300 S.3   165  CYS165     -0.0797
    105  N         42.0530  -10.8310  -31.0920 N.am  166  TYR166     -0.1960
    106  CA        40.7200  -11.2780  -30.6720 C.3   166  TYR166      0.1771
    107  C         40.6400  -11.2540  -29.1520 C.2   166  TYR166      0.2620
    108  O         41.5760  -11.6860  -28.4840 O.2   166  TYR166     -0.2715
    109  CB        40.4140  -12.6860  -31.1830 C.3   166  TYR166      0.0574
    110  CG        40.3080  -12.7630  -32.6890 C.ar  166  TYR166     -0.0198
    111  CD1       41.4330  -12.9340  -33.4770 C.ar  166  TYR166     -0.0009
    112  CD2       39.0850  -12.6590  -33.3290 C.ar  166  TYR166     -0.0009
    113  CE1       41.3440  -13.0200  -34.8500 C.ar  166  TYR166      0.0417
    114  CE2       38.9930  -12.7460  -34.7030 C.ar  166  TYR166      0.0417
    115  CZ        40.1330  -12.9270  -35.4560 C.ar  166  TYR166      0.1957
    116  OH        40.0580  -13.0040  -36.8410 O.3   166  TYR166     -0.2866
    117  N         39.5510  -10.6790  -28.6370 N.am  167  ASP167     -0.1957
    118  CA        39.1880  -10.7760  -27.2240 C.3   167  ASP167      0.1840
    119  C         38.3480  -12.0430  -27.0380 C.2   167  ASP167      0.2623
    120  O         38.3310  -12.6420  -25.9560 O.2   167  ASP167     -0.2715
    121  CB        38.4130   -9.5320  -26.7710 C.3   167  ASP167      0.1450
    122  CG        38.1330   -9.5230  -25.2680 C.2   167  ASP167      0.3671
    123  OD1       39.0070   -9.9710  -24.5040 O.co2 167  ASP167     -0.2456
    124  OD2       37.0560   -9.0480  -24.8370 O.co2 167  ASP167     -0.2456
    125  N         37.6770  -12.4600  -28.1110 N.am  168  THR168     -0.1937
    126  CA        36.8800  -13.6720  -28.1050 C.3   168  THR168      0.2028
    127  C         37.5850  -14.7370  -28.9520 C.2   168  THR168      0.2642
    128  O         38.5220  -15.4080  -28.4830 O.2   168  THR168     -0.2714
    129  CB        35.4290  -13.4040  -28.6040 C.3   168  THR168      0.1808
    130  OG1       35.4500  -12.9280  -29.9470 O.3   168  THR168     -0.2208
    131  CG2       34.7270  -12.3600  -27.7490 C.3   168  THR168      0.0379
    132  N         37.1540  -14.8700  -30.2060 N.am  169  THR169     -0.1950
    133  CA        37.7430  -15.8430  -31.1140 C.3   169  THR169      0.1897
    134  C         37.2340  -15.5780  -32.5110 C.2   169  THR169      0.2313
    135  O         36.2850  -14.8200  -32.6970 O.2   169  THR169     -0.2863
    136  CB        37.4030  -17.2910  -30.7020 C.3   169  THR169      0.1794
    137  OG1       38.3820  -18.1930  -31.2290 O.3   169  THR169     -0.2208
    138  CG2       36.0160  -17.6920  -31.1890 C.3   169  THR169      0.0378
    139  N         35.7180  -16.6310  -36.3880 N.3   171  ASP171     -0.1239
    140  CA        34.4780  -17.3200  -36.7970 C.3   171  ASP171      0.1674
    141  C         34.5780  -18.8430  -36.7450 C.2   171  ASP171      0.2266
    142  O         33.6370  -19.5050  -36.3130 O.2   171  ASP171     -0.2867
    143  CB        34.0600  -16.8980  -38.2000 C.3   171  ASP171      0.1410
    144  CG        33.9040  -15.4040  -38.3280 C.2   171  ASP171      0.3668
    145  OD1       34.9420  -14.7080  -38.2780 O.co2 171  ASP171     -0.2456
    146  OD2       32.7610  -14.9320  -38.4690 O.co2 171  ASP171     -0.2456
    147  N         26.5680   -9.4040  -28.3410 N.3   295  ASN295     -0.1240
    148  CA        27.4840   -9.1930  -29.4560 C.3   295  ASN295      0.1653
    149  C         27.9520  -10.4880  -30.1040 C.2   295  ASN295      0.2266
    150  O         28.1370  -10.5400  -31.3070 O.2   295  ASN295     -0.2867
    151  CB        28.6720   -8.3500  -29.0360 C.3   295  ASN295      0.1155
    152  CG        29.5380   -7.9950  -30.2000 C.2   295  ASN295      0.2627
    153  OD1       29.1750   -7.1430  -31.0180 O.2   295  ASN295     -0.2716
    154  ND2       30.6550   -8.6790  -30.3360 N.am  295  ASN295     -0.0877
    155  N         24.6470  -11.6200  -32.0800 N.3   298  ALA298     -0.1231
    156  CA        24.6720  -10.8830  -33.3400 C.3   298  ALA298      0.1694
    157  C         25.5810  -11.5590  -34.3740 C.2   298  ALA298      0.2591
    158  O         25.1440  -11.8450  -35.4980 O.2   298  ALA298     -0.2718
    159  CB        25.1300   -9.4640  -33.1070 C.3   298  ALA298      0.0304
    160  N         26.8360  -11.8100  -33.9930 N.am  299  ARG299     -0.1980
    161  CA        27.8150  -12.4450  -34.8900 C.3   299  ARG299      0.1597
    162  C         27.3980  -13.8140  -35.4160 C.2   299  ARG299      0.2287
    163  O         27.8770  -14.2310  -36.4590 O.2   299  ARG299     -0.2864
    164  CB        29.1690  -12.6180  -34.2000 C.3   299  ARG299      0.0334
    165  CG        30.0380  -11.3730  -34.1860 C.3   299  ARG299      0.0492
    166  CD        31.2650  -11.5780  -33.3270 C.3   299  ARG299      0.2205
    167  NE        32.2930  -12.4150  -33.9470 N.pl3 299  ARG299     -0.0865
    168  CZ        33.4180  -12.7990  -33.3300 C.cat 299  ARG299      0.5346
    169  NH1       33.6720  -12.4220  -32.0760 N.pl3 299  ARG299      0.1354
    170  NH2       34.3020  -13.5670  -33.9620 N.pl3 299  ARG299      0.1354
    171  N         22.6250  -12.6100  -38.3510 N.3   303  GLN303     -0.1245
    172  CA        23.4650  -12.2310  -39.4820 C.3   303  GLN303      0.1566
    173  C         22.6880  -12.1810  -40.8140 C.2   303  GLN303      0.2260
    174  O         22.9540  -12.9510  -41.7330 O.2   303  GLN303     -0.2867
    175  CB        24.6690  -13.1770  -39.5540 C.3   303  GLN303      0.0367
    176  CG        25.9110  -12.5620  -40.1790 C.3   303  GLN303      0.0905
    177  CD        26.6390  -11.5550  -39.2870 C.2   303  GLN303      0.2608
    178  OE1       27.8150  -11.2680  -39.5170 O.2   303  GLN303     -0.2717
    179  NE2       25.9580  -11.0170  -38.2760 N.am  303  GLN303     -0.0878
    180  N         23.0630   -4.3300  -35.4490 N.3   311  ASN311     -0.1240
    181  CA        24.2960   -4.9960  -35.1040 C.3   311  ASN311      0.1653
    182  C         25.4720   -4.0470  -34.8460 C.2   311  ASN311      0.2266
    183  O         26.1680   -4.2380  -33.8580 O.2   311  ASN311     -0.2867
    184  CB        24.6080   -6.0520  -36.1620 C.3   311  ASN311      0.1155
    185  CG        23.6370   -7.2290  -36.1030 C.2   311  ASN311      0.2627
    186  OD1       22.7050   -7.2500  -35.2860 O.2   311  ASN311     -0.2716
    187  ND2       23.8560   -8.2190  -36.9530 N.am  311  ASN311     -0.0877
    188  N         25.0510   -2.5770  -31.4830 N.3   314  VAL314     -0.1231
    189  CA        25.4440   -3.5620  -30.4650 C.3   314  VAL314      0.1692
    190  C         26.9530   -3.5200  -30.2860 C.2   314  VAL314      0.2592
    191  O         27.4760   -3.2700  -29.1730 O.2   314  VAL314     -0.2718
    192  CB        25.0300   -4.9940  -30.8330 C.3   314  VAL314      0.0266
    193  CG1       25.6140   -5.9840  -29.8300 C.3   314  VAL314      0.0020
    194  CG2       23.5190   -5.1360  -30.8560 C.3   314  VAL314      0.0020
    195  N         27.6580   -3.7650  -31.3850 N.am  315  TYR315     -0.1976
    196  CA        29.1150   -3.7100  -31.3820 C.3   315  TYR315      0.1639
    197  C         29.5850   -2.4130  -30.7400 C.2   315  TYR315      0.2290
    198  O         30.4890   -2.4260  -29.8850 O.2   315  TYR315     -0.2864
    199  CB        29.6270   -3.8440  -32.8050 C.3   315  TYR315      0.0560
    200  CG        31.1070   -3.6360  -33.0020 C.ar  315  TYR315     -0.0198
    201  CD1       32.0180   -4.6500  -32.7420 C.ar  315  TYR315     -0.0009
    202  CD2       31.5910   -2.4310  -33.4990 C.ar  315  TYR315     -0.0009
    203  CE1       33.3780   -4.4660  -32.9410 C.ar  315  TYR315      0.0417
    204  CE2       32.9430   -2.2320  -33.7090 C.ar  315  TYR315      0.0417
    205  CZ        33.8320   -3.2520  -33.4250 C.ar  315  TYR315      0.1957
    206  OH        35.1640   -3.0450  -33.6620 O.3   315  TYR315     -0.2866
    207  N         28.8860   -2.6040  -26.9110 N.3   318  TYR318     -0.1227
    208  CA        29.8950   -3.5610  -26.4510 C.3   318  TYR318      0.1736
    209  C         31.2440   -2.8770  -26.1720 C.2   318  TYR318      0.2595
    210  O         31.8890   -3.1440  -25.1570 O.2   318  TYR318     -0.2718
    211  CB        30.0390   -4.6660  -27.5080 C.3   318  TYR318      0.0548
    212  CG        31.1200   -5.7200  -27.2860 C.ar  318  TYR318     -0.0200
    213  CD1       31.1810   -6.4590  -26.1240 C.ar  318  TYR318     -0.0009
    214  CD2       32.0470   -6.0040  -28.2830 C.ar  318  TYR318     -0.0009
    215  CE1       32.1560   -7.4220  -25.9360 C.ar  318  TYR318      0.0417
    216  CE2       33.0190   -6.9750  -28.1110 C.ar  318  TYR318      0.0417
    217  CZ        33.0620   -7.6800  -26.9350 C.ar  318  TYR318      0.1957
    218  OH        34.0250   -8.6400  -26.7670 O.3   318  TYR318     -0.2866
    219  N         31.6650   -1.9800  -27.0550 N.am  319  GLN319     -0.1979
    220  CA        32.9660   -1.3340  -26.8840 C.3   319  GLN319      0.1601
    221  C         33.0320   -0.4860  -25.6190 C.2   319  GLN319      0.2287
    222  O         34.0370   -0.5510  -24.8930 O.2   319  GLN319     -0.2864
    223  CB        33.3270   -0.4950  -28.1100 C.3   319  GLN319      0.0394
    224  CG        33.4830   -1.2930  -29.3920 C.3   319  GLN319      0.0908
    225  CD        34.6140   -2.3140  -29.3400 C.2   319  GLN319      0.2608
    226  OE1       35.7230   -2.0200  -28.8860 O.2   319  GLN319     -0.2717
    227  NE2       34.3460   -3.5100  -29.8250 N.am  319  GLN319     -0.0878
    228  N         32.9350   -2.8530  -22.5110 N.3   322  ARG322     -0.1245
    229  CA        34.2360   -3.4740  -22.3500 C.3   322  ARG322      0.1563
    230  C         35.2040   -2.5130  -21.6970 C.2   322  ARG322      0.2260
    231  O         36.0590   -2.9290  -20.9210 O.2   322  ARG322     -0.2867
    232  CB        34.7680   -3.9130  -23.7080 C.3   322  ARG322      0.0307
    233  CG        36.0410   -4.6940  -23.6070 C.3   322  ARG322      0.0489
    234  CD        36.1880   -5.6350  -24.7750 C.3   322  ARG322      0.2205
    235  NE        36.3110   -4.9420  -26.0500 N.pl3 322  ARG322     -0.0865
    236  CZ        36.4600   -5.5730  -27.2130 C.cat 322  ARG322      0.5346
    237  NH1       36.5070   -6.9090  -27.2530 N.pl3 322  ARG322      0.1354
    238  NH2       36.5520   -4.8770  -28.3360 N.pl3 322  ARG322      0.1354
@<TRIPOS>BOND
     1    86    85    2
     2    87    88    1
     3    87    84    1
     4    85    84    1
     5    88    89    1
     6    84    83    1
     7     1     2    1
     8     4     3    2
     9    89    90    1
    10    83    74   am
    11     3     2    1
    12     3    10   am
    13     5     2    1
    14     5     6    1
    15    75    74    2
    16    74    73    1
    17     6     7    1
    18    90    91    1
    19    12    13    2
    20    12    11    1
    21    10    11    1
    22    11    14    1
    23   174   173    2
    24    73    76    1
    25    73    72    1
    26     7     8    1
    27    16    17    1
    28    14    15    1
    29    76    77    1
    30   173   172    1
    31     8     9    1
    32   176   175    1
    33   176   177    1
    34    19    18    2
    35    18    17    1
    36    17    20    1
    37   175   172    1
    38   178   177    2
    39   172   171    1
    40    77    78    1
    41   177   179   am
    42    78    79    1
    43    20    21    1
    44   146   144   ar
    45    24    25    1
    46   144   145   ar
    47   144   143    1
    48   143   140    1
    49    27    26    2
    50    79    80    2
    51    30    29    1
    52    30    31    1
    53    28    25    1
    54    28    29    1
    55    21    22    1
    56    21    23    1
    57    25    26    1
    58    32    31    1
    59   187   185   am
    60    81    80    1
    61   116   115    1
    62   140   141    1
    63   140   139    1
    64   141   142    2
    65    80    82    1
    66    97    96    1
    67   163   162    2
    68   184   185    1
    69   184   181    1
    70   185   186    2
    71    92    93    1
    72   158   157    2
    73   115   113   ar
    74   115   114   ar
    75   180   181    1
    76   162   161    1
    77    96    93    1
    78    96    98    1
    79   181   182    1
    80   161   164    1
    81   161   160    1
    82    93    94    1
    83   113   111   ar
    84   182   183    2
    85    57    56    2
    86    59    58    1
    87   114   112   ar
    88   157   160   am
    89   157   156    1
    90    56    55    1
    91   164   165    1
    92   165   166    1
    93   170   168    1
    94   167   168    2
    95   167   166    1
    96    95    94    2
    97    94    99   am
    98   204   202   ar
    99   204   205   ar
   100   206   205    1
   101    54    55    1
   102   202   200   ar
   103   111   110   ar
   104   205   203   ar
   105    58    55    1
   106    58    60    1
   107   156   159    1
   108   156   155    1
   109   168   169    1
   110   112   110   ar
   111   200   199    1
   112   200   201   ar
   113   203   201   ar
   114   199   196    1
   115   135   134    2
   116   110   109    1
   117   134   133    1
   118    99   100    1
   119    40    39    2
   120    41    39   am
   121    39    38    1
   122    53    52    1
   123    38    37    1
   124    50    52   ar
   125    50    48   ar
   126   188   189    1
   127    45    44    2
   128   195   196    1
   129   195   190   am
   130   196   197    1
   131   150   149    2
   132   100   101    1
   133   100   103    1
   134    52    51   ar
   135   137   136    1
   136   138   136    1
   137   109   106    1
   138   133   136    1
   139   133   132    1
   140   105   101   am
   141   105   106    1
   142   153   152    2
   143    48    47   ar
   144   194   192    1
   145   101   102    2
   146   192   189    1
   147   192   193    1
   148   197   198    2
   149   106   107    1
   150    33    34    1
   151   189   190    1
   152   154   152   am
   153   190   191    2
   154    37    34    1
   155   103   104    1
   156    44    43    1
   157   132   127   am
   158   152   151    1
   159    51    49   ar
   160   149   148    1
   161   130   129    1
   162    47    49   ar
   163    47    46    1
   164    35    34    1
   165    35    36    2
   166   227   225   am
   167    43    46    1
   168    43    42    1
   169   148   151    1
   170   148   147    1
   171   224   225    1
   172   224   223    1
   173   225   226    2
   174   107   117   am
   175   107   108    2
   176   127   128    2
   177   127   126    1
   178   117   118    1
   179   129   126    1
   180   129   131    1
   181   238   236    1
   182   214   216   ar
   183   214   212   ar
   184   216   217   ar
   185   125   126    1
   186   125   119   am
   187   223   220    1
   188    71    69    1
   189   211   212    1
   190   211   208    1
   191   212   213   ar
   192   237   236    1
   193   118   119    1
   194   118   121    1
   195   236   235    2
   196   219   220    1
   197   219   209   am
   198   119   120    2
   199   217   218    1
   200   217   215   ar
   201   207   208    1
   202   220   221    1
   203   121   122    1
   204    69    68    2
   205    69    70    1
   206    68    67    1
   207   208   209    1
   208   209   210    2
   209   213   215   ar
   210   235   234    1
   211   221   222    2
   212    66    67    1
   213    66    65    1
   214   122   124   ar
   215   122   123   ar
   216   234   233    1
   217    65    62    1
   218   232   233    1
   219   232   229    1
   220    61    62    1
   221    62    63    1
   222   228   229    1
   223   229   230    1
   224   230   231    2
   225    63    64    2
