@<TRIPOS>MOLECULE
tmp/4xnxA03.pdb
 164 154 0 0 0
SMALL
GASTEIGER

@<TRIPOS>ATOM
      1  N         -4.0520   -9.0130   29.2560 N.3    19  PHE19      -0.1227
      2  CA        -5.0750   -7.9810   29.2670 C.3    19  PHE19       0.1736
      3  C         -4.5420   -6.6840   29.8810 C.2    19  PHE19       0.2595
      4  O         -4.8350   -5.5910   29.3950 O.2    19  PHE19      -0.2718
      5  CB        -6.3100   -8.4520   30.0340 C.3    19  PHE19       0.0547
      6  CG        -7.1770   -7.3260   30.5210 C.ar   19  PHE19      -0.0202
      7  CD1       -8.0150   -6.6460   29.6450 C.ar   19  PHE19      -0.0042
      8  CD2       -7.1520   -6.9400   31.8530 C.ar   19  PHE19      -0.0042
      9  CE1       -8.8110   -5.6060   30.0880 C.ar   19  PHE19      -0.0003
     10  CE2       -7.9490   -5.8970   32.3030 C.ar   19  PHE19      -0.0003
     11  CZ        -8.7780   -5.2310   31.4200 C.ar   19  PHE19      -0.0000
     12  N         -3.7530   -6.8120   30.9450 N.am   20  ALA20      -0.1980
     13  CA        -3.2900   -5.6510   31.6910 C.3    20  ALA20       0.1597
     14  C         -2.2590   -4.8490   30.9090 C.2    20  ALA20       0.2287
     15  O         -2.3460   -3.6270   30.8200 O.2    20  ALA20      -0.2864
     16  CB        -2.7140   -6.0790   33.0170 C.3    20  ALA20       0.0319
     17  N         -0.5010   -3.3340   27.8010 N.3    22  ASP22      -0.1239
     18  CA        -0.8520   -2.9150   26.4440 C.3    22  ASP22       0.1674
     19  C         -0.0960   -1.6400   26.0610 C.2    22  ASP22       0.2266
     20  O          0.8340   -1.2350   26.7550 O.2    22  ASP22      -0.2867
     21  CB        -2.3660   -2.7050   26.3110 C.3    22  ASP22       0.1410
     22  CG        -2.8390   -1.4090   26.9490 C.2    22  ASP22       0.3668
     23  OD1       -2.1510   -0.8860   27.8540 O.co2  22  ASP22      -0.2456
     24  OD2       -3.9150   -0.9120   26.5450 O.co2  22  ASP22      -0.2456
     25  N         -0.6850    1.4330   26.2980 N.3    24  ALA24      -0.1245
     26  CA        -0.6860    2.5130   27.2870 C.3    24  ALA24       0.1562
     27  C          0.4720    2.3560   28.2670 C.2    24  ALA24       0.2260
     28  O          0.8780    3.3180   28.9130 O.2    24  ALA24      -0.2867
     29  CB        -1.9960    2.5510   28.0340 C.3    24  ALA24       0.0290
     30  N        -21.0030   -2.5460   32.6030 N.3    89  VAL89      -0.1245
     31  CA       -19.6520   -3.0120   32.3110 C.3    89  VAL89       0.1561
     32  C        -19.5710   -3.7720   30.9860 C.2    89  VAL89       0.2260
     33  O        -18.6120   -3.6170   30.2300 O.2    89  VAL89      -0.2867
     34  CB       -19.1230   -3.9110   33.4480 C.3    89  VAL89       0.0252
     35  CG1      -17.9530   -4.7470   32.9720 C.3    89  VAL89       0.0019
     36  CG2      -18.7330   -3.0610   34.6440 C.3    89  VAL89       0.0019
     37  N        -19.9890   -1.1490   28.0570 N.3    92  ILE92      -0.1231
     38  CA       -18.7270   -0.4310   27.9180 C.3    92  ILE92       0.1692
     39  C        -17.6940   -1.2590   27.1500 C.2    92  ILE92       0.2591
     40  O        -17.1320   -0.7950   26.1590 O.2    92  ILE92      -0.2718
     41  CB       -18.1580   -0.0470   29.2900 C.3    92  ILE92       0.0266
     42  CG1      -18.9710    1.1000   29.8940 C.3    92  ILE92       0.0019
     43  CG2      -16.6900    0.3320   29.1640 C.3    92  ILE92       0.0020
     44  CD1      -18.5990    1.4320   31.3190 C.3    92  ILE92       0.0001
     45  N        -17.4640   -2.4890   27.6060 N.am   93  ALA93      -0.1980
     46  CA       -16.5570   -3.4180   26.9340 C.3    93  ALA93       0.1597
     47  C        -16.9540   -3.5960   25.4770 C.2    93  ALA93       0.2287
     48  O        -16.1040   -3.7490   24.5980 O.2    93  ALA93      -0.2864
     49  CB       -16.5480   -4.7630   27.6490 C.3    93  ALA93       0.0319
     50  N        -16.0170   -0.4070   23.5160 N.3    96  VAL96      -0.1231
     51  CA       -14.5710   -0.2560   23.4090 C.3    96  VAL96       0.1692
     52  C        -13.9670   -1.1120   22.2890 C.2    96  VAL96       0.2592
     53  O        -13.0410   -0.6690   21.6110 O.2    96  VAL96      -0.2718
     54  CB       -13.8720   -0.5930   24.7510 C.3    96  VAL96       0.0266
     55  CG1      -12.3580   -0.6100   24.5840 C.3    96  VAL96       0.0020
     56  CG2      -14.2680    0.4080   25.8200 C.3    96  VAL96       0.0020
     57  N        -14.4830   -2.3210   22.0810 N.am   97  ASP97      -0.1974
     58  CA       -13.9800   -3.1660   20.9990 C.3    97  ASP97       0.1709
     59  C        -14.1710   -2.4860   19.6370 C.2    97  ASP97       0.2293
     60  O        -13.4270   -2.7550   18.6900 O.2    97  ASP97      -0.2864
     61  CB       -14.6730   -4.5370   20.9950 C.3    97  ASP97       0.1436
     62  CG       -14.0020   -5.5520   21.9190 C.2    97  ASP97       0.3671
     63  OD1      -12.9700   -6.1420   21.5270 O.co2  97  ASP97      -0.2456
     64  OD2      -14.5320   -5.7890   23.0260 O.co2  97  ASP97      -0.2456
     65  N        -13.5450    0.5150   18.6660 N.3    99  TYR99      -0.1227
     66  CA       -12.4520    1.4110   18.2950 C.3    99  TYR99       0.1736
     67  C        -11.0910    0.7500   18.5770 C.2    99  TYR99       0.2595
     68  O        -10.2950    0.5920   17.6570 O.2    99  TYR99      -0.2718
     69  CB       -12.6090    2.8000   18.9550 C.3    99  TYR99       0.0548
     70  CG       -12.2260    2.9490   20.4040 C.ar   99  TYR99      -0.0200
     71  CD1      -13.1810    2.8780   21.4080 C.ar   99  TYR99      -0.0009
     72  CD2      -10.9150    3.2160   20.7650 C.ar   99  TYR99      -0.0009
     73  CE1      -12.8320    3.0360   22.7400 C.ar   99  TYR99       0.0417
     74  CE2      -10.5550    3.3740   22.0890 C.ar   99  TYR99       0.0417
     75  CZ       -11.5150    3.2840   23.0700 C.ar   99  TYR99       0.1957
     76  OH       -11.1520    3.4460   24.3840 O.3    99  TYR99      -0.2866
     77  N        -10.8270    0.3680   19.8270 N.am  100  TYR100     -0.1962
     78  CA        -9.5130   -0.1400   20.2670 C.3   100  TYR100      0.1771
     79  C         -8.8560   -1.1620   19.3240 C.2   100  TYR100      0.2619
     80  O         -7.6450   -1.1120   19.1010 O.2   100  TYR100     -0.2715
     81  CB        -9.6610   -0.7740   21.6570 C.3   100  TYR100      0.0574
     82  CG        -8.3670   -1.2190   22.3150 C.ar  100  TYR100     -0.0198
     83  CD1       -7.7440   -0.4200   23.2650 C.ar  100  TYR100     -0.0009
     84  CD2       -7.7770   -2.4400   22.0000 C.ar  100  TYR100     -0.0009
     85  CE1       -6.5680   -0.8130   23.8780 C.ar  100  TYR100      0.0417
     86  CE2       -6.5990   -2.8420   22.6060 C.ar  100  TYR100      0.0417
     87  CZ        -6.0000   -2.0230   23.5450 C.ar  100  TYR100      0.1957
     88  OH        -4.8270   -2.4090   24.1550 O.3   100  TYR100     -0.2866
     89  N         -9.6370   -2.0790   18.7670 N.am  101  ASN101     -0.1972
     90  CA        -9.0850   -3.0690   17.8470 C.3   101  ASN101      0.1688
     91  C         -8.4400   -2.4560   16.6080 C.2   101  ASN101      0.2292
     92  O         -7.6430   -3.1050   15.9340 O.2   101  ASN101     -0.2864
     93  CB       -10.1680   -4.0480   17.4120 C.3   101  ASN101      0.1181
     94  CG       -10.5210   -5.0340   18.4960 C.2   101  ASN101      0.2629
     95  OD1       -9.7450   -5.9380   18.7960 O.2   101  ASN101     -0.2716
     96  ND2      -11.6950   -4.8680   19.0940 N.am  101  ASN101     -0.0877
     97  N         -6.5570    3.3340   34.9420 N.3   254  PHE254     -0.1227
     98  CA        -6.8240    2.8990   33.5800 C.3   254  PHE254      0.1736
     99  C         -5.7990    1.8930   33.0610 C.2   254  PHE254      0.2596
    100  O         -6.0750    1.1680   32.1090 O.2   254  PHE254     -0.2718
    101  CB        -6.9100    4.1060   32.6450 C.3   254  PHE254      0.0547
    102  CG        -8.2060    4.8650   32.7630 C.ar  254  PHE254     -0.0202
    103  CD1       -9.3510    4.4010   32.1380 C.ar  254  PHE254     -0.0042
    104  CD2       -8.2880    6.0250   33.5190 C.ar  254  PHE254     -0.0042
    105  CE1      -10.5530    5.0810   32.2480 C.ar  254  PHE254     -0.0003
    106  CE2       -9.4900    6.7150   33.6360 C.ar  254  PHE254     -0.0003
    107  CZ       -10.6250    6.2390   32.9970 C.ar  254  PHE254     -0.0000
    108  N         -4.6290    1.8250   33.6840 N.am  255  SER255     -0.1952
    109  CA        -3.6550    0.8210   33.2760 C.3   255  SER255      0.1924
    110  C         -3.9870   -0.5620   33.8460 C.2   255  SER255      0.2314
    111  O         -3.8050   -1.5760   33.1690 O.2   255  SER255     -0.2863
    112  CB        -2.2460    1.2340   33.6930 C.3   255  SER255      0.2116
    113  OG        -1.2830    0.4510   33.0130 O.3   255  SER255     -0.2180
    114  N         -7.0990   -1.5140   34.9780 N.3   257  GLY257     -0.1225
    115  CA        -8.4290   -1.8980   34.5400 C.3   257  GLY257      0.1811
    116  C         -9.2690   -2.6800   35.5370 C.2   257  GLY257      0.2280
    117  O         -9.9600   -3.6260   35.1520 O.2   257  GLY257     -0.2866
    118  N        -13.4760   -3.8600   35.4380 N.3   260  PHE260     -0.1241
    119  CA       -13.8330   -3.7280   34.0280 C.3   260  PHE260      0.1605
    120  C        -14.5860   -4.9440   33.5050 C.2   260  PHE260      0.2264
    121  O        -14.9960   -4.9740   32.3440 O.2   260  PHE260     -0.2867
    122  CB       -12.5870   -3.4930   33.1780 C.3   260  PHE260      0.0534
    123  CG       -12.0510   -2.0940   33.2620 C.ar  260  PHE260     -0.0203
    124  CD1      -12.3710   -1.2750   34.3310 C.ar  260  PHE260     -0.0042
    125  CD2      -11.2430   -1.5890   32.2550 C.ar  260  PHE260     -0.0042
    126  CE1      -11.8830    0.0140   34.4070 C.ar  260  PHE260     -0.0003
    127  CE2      -10.7520   -0.2990   32.3200 C.ar  260  PHE260     -0.0003
    128  CZ       -11.0710    0.5060   33.3990 C.ar  260  PHE260     -0.0000
    129  N        -13.4160   -7.7990   32.9440 N.3   262  VAL262     -0.1245
    130  CA       -12.4450   -8.7360   32.3790 C.3   262  VAL262      0.1561
    131  C        -11.7750   -9.5820   33.4540 C.2   262  VAL262      0.2260
    132  O        -11.7420  -10.8080   33.3550 O.2   262  VAL262     -0.2867
    133  CB       -11.3450   -8.0090   31.5860 C.3   262  VAL262      0.0252
    134  CG1      -10.3270   -9.0110   31.0430 C.3   262  VAL262      0.0019
    135  CG2      -11.9550   -7.1980   30.4570 C.3   262  VAL262      0.0019
    136  N         -5.2920   -7.7180   25.2620 N.3   356  SER356     -0.1202
    137  CA        -6.2980   -6.9180   25.9340 C.3   356  SER356      0.2020
    138  C         -7.6520   -7.0810   25.2560 C.2   356  SER356      0.2619
    139  O         -8.6900   -7.0990   25.9160 O.2   356  SER356     -0.2717
    140  CB        -5.8720   -5.4470   25.9590 C.3   356  SER356      0.2103
    141  OG        -4.6650   -5.2650   26.6910 O.3   356  SER356     -0.2182
    142  N         -7.6340   -7.2100   23.9350 N.am  357  SER357     -0.1951
    143  CA        -8.8620   -7.4000   23.1760 C.3   357  SER357      0.1924
    144  C         -9.5490   -8.7110   23.5720 C.2   357  SER357      0.2314
    145  O        -10.7740   -8.7590   23.7090 O.2   357  SER357     -0.2863
    146  CB        -8.5740   -7.3800   21.6740 C.3   357  SER357      0.2116
    147  OG        -9.7850   -7.3360   20.9390 O.3   357  SER357     -0.2180
    148  N        -11.3280   -8.1380   26.9330 N.3   360  GLY360     -0.1225
    149  CA       -12.5180   -7.3400   26.7170 C.3   360  GLY360      0.1811
    150  C        -13.6400   -8.1620   26.1210 C.2   360  GLY360      0.2280
    151  O        -14.7620   -8.1610   26.6330 O.2   360  GLY360     -0.2866
    152  N        -15.7590    4.6320   27.0390 N.3   414  ALA414     -0.1245
    153  CA       -15.3610    4.0930   28.3420 C.3   414  ALA414      0.1562
    154  C        -14.8680    5.1170   29.3750 C.2   414  ALA414      0.2260
    155  O        -14.6000    4.7480   30.5160 O.2   414  ALA414     -0.2867
    156  CB       -14.2960    3.0320   28.1410 C.3   414  ALA414      0.0290
    157  N        -17.0440    4.0310   32.9480 N.3   418  ILE418     -0.1245
    158  CA       -16.4970    2.9640   33.7660 C.3   418  ILE418      0.1561
    159  C        -16.1590    3.4730   35.1620 C.2   418  ILE418      0.2260
    160  O        -16.1220    2.7000   36.1150 O.2   418  ILE418     -0.2867
    161  CB       -15.2450    2.3430   33.1160 C.3   418  ILE418      0.0252
    162  CG1      -14.9970    0.9370   33.6720 C.3   418  ILE418      0.0019
    163  CG2      -14.0460    3.2470   33.3170 C.3   418  ILE418      0.0019
    164  CD1      -16.2290    0.0450   33.6620 C.3   418  ILE418      0.0001
@<TRIPOS>BOND
     1    92    91    2
     2    91    90    1
     3    93    90    1
     4    93    94    1
     5    68    67    2
     6    90    89    1
     7    66    67    1
     8    66    65    1
     9    66    69    1
    10    94    95    2
    11    94    96   am
    12    67    77   am
    13    60    59    2
    14    89    79   am
    15    69    70    1
    16    80    79    2
    17    79    78    1
    18    59    58    1
    19    77    78    1
    20    78    81    1
    21    70    72   ar
    22    70    71   ar
    23    72    74   ar
    24   147   146    1
    25    61    58    1
    26    61    62    1
    27    58    57    1
    28    71    73   ar
    29    63    62   ar
    30    53    52    2
    31    81    82    1
    32   146   143    1
    33    62    64   ar
    34    84    82   ar
    35    84    86   ar
    36    57    52   am
    37    74    75   ar
    38    52    51    1
    39    82    83   ar
    40    86    87   ar
    41    73    75   ar
    42    75    76    1
    43   143   144    1
    44   143   142    1
    45    83    85   ar
    46    51    50    1
    47    51    54    1
    48    87    85   ar
    49    87    88    1
    50   144   145    2
    51   142   138   am
    52    55    54    1
    53    48    47    2
    54    54    56    1
    55   138   139    2
    56   138   137    1
    57   136   137    1
    58    47    46    1
    59   137   140    1
    60   140   141    1
    61    19    18    1
    62    19    20    2
    63   150   151    2
    64   150   149    1
    65    40    39    2
    66    25    26    1
    67    21    18    1
    68    21    22    1
    69    18    17    1
    70    24    22   ar
    71   149   148    1
    72    46    45    1
    73    46    49    1
    74    22    23   ar
    75   152   153    1
    76    39    45   am
    77    39    38    1
    78    26    29    1
    79    26    27    1
    80    38    37    1
    81    38    41    1
    82   156   153    1
    83    27    28    2
    84   153   154    1
    85    43    41    1
    86     1     2    1
    87     2     3    1
    88     2     5    1
    89    41    42    1
    90   154   155    2
    91     4     3    2
    92     7     9   ar
    93     7     6   ar
    94     3    12   am
    95    42    44    1
    96     5     6    1
    97     9    11   ar
    98    33    32    2
    99   135   133    1
   100     6     8   ar
   101    15    14    2
   102    14    13    1
   103    12    13    1
   104    32    31    1
   105   134   133    1
   106    11    10   ar
   107   133   130    1
   108    13    16    1
   109     8    10   ar
   110   100    99    2
   111   103   105   ar
   112   103   102   ar
   113   105   107   ar
   114   125   127   ar
   115   125   123   ar
   116    31    30    1
   117    31    34    1
   118   127   128   ar
   119   121   120    2
   120   130   129    1
   121   130   131    1
   122   101   102    1
   123   101    98    1
   124   102   104   ar
   125   157   158    1
   126    35    34    1
   127   107   106   ar
   128   113   112    1
   129    99    98    1
   130    99   108   am
   131   161   163    1
   132   161   162    1
   133   161   158    1
   134   111   110    2
   135   122   123    1
   136   122   119    1
   137   123   124   ar
   138   109   108    1
   139   109   112    1
   140   109   110    1
   141   132   131    2
   142   128   126   ar
   143    34    36    1
   144   120   119    1
   145   104   106   ar
   146    98    97    1
   147   164   162    1
   148   158   159    1
   149   119   118    1
   150   124   126   ar
   151   115   114    1
   152   115   116    1
   153   117   116    2
   154   159   160    2
