@<TRIPOS>MOLECULE
tmp/4xo3A02.pdb
 96 93 0 0 0
SMALL
GASTEIGER

@<TRIPOS>ATOM
      1  N         58.3040  -54.0710    4.3820 N.3   254  PHE254     -0.1227
      2  CA        57.3700  -53.1850    5.0650 C.3   254  PHE254      0.1736
      3  C         56.2170  -54.0470    5.5540 C.2   254  PHE254      0.2595
      4  O         55.6320  -54.7860    4.7740 O.2   254  PHE254     -0.2718
      5  CB        56.8790  -52.0900    4.1070 C.3   254  PHE254      0.0547
      6  CG        56.2880  -50.8970    4.7850 C.ar  254  PHE254     -0.0202
      7  CD1       57.1270  -49.9830    5.4760 C.ar  254  PHE254     -0.0042
      8  CD2       54.8980  -50.7030    4.8010 C.ar  254  PHE254     -0.0042
      9  CE1       56.5930  -48.8980    6.1050 C.ar  254  PHE254     -0.0003
     10  CE2       54.3720  -49.6250    5.4750 C.ar  254  PHE254     -0.0003
     11  CZ        55.2160  -48.7190    6.1390 C.ar  254  PHE254     -0.0000
     12  N         55.8650  -53.9220    6.8400 N.am  255  ASN255     -0.1960
     13  CA        54.8170  -54.7560    7.3880 C.3   255  ASN255      0.1819
     14  C         53.4130  -54.3890    6.9380 C.2   255  ASN255      0.2621
     15  O         52.5520  -55.2550    6.9510 O.2   255  ASN255     -0.2715
     16  CB        54.8570  -54.7200    8.9220 C.3   255  ASN255      0.1195
     17  CG        56.0900  -55.4510    9.4580 C.2   255  ASN255      0.2630
     18  OD1       56.6800  -56.3580    8.7690 O.2   255  ASN255     -0.2716
     19  ND2       56.4070  -55.1630   10.7040 N.am  255  ASN255     -0.0877
     20  N         53.1680  -53.1330    6.5960 N.am  256  MET256     -0.1963
     21  CA        51.7990  -52.6750    6.2600 C.3   256  MET256      0.1736
     22  C         51.7670  -52.1890    4.8060 C.2   256  MET256      0.2617
     23  O         52.4580  -52.7330    3.9310 O.2   256  MET256     -0.2715
     24  CB        51.4210  -51.5990    7.3030 C.3   256  MET256      0.0427
     25  CG        51.4270  -52.1020    8.7530 C.3   256  MET256      0.0599
     26  SD        49.8600  -52.9650    8.9090 S.3   256  MET256     -0.1393
     27  CE        48.5550  -51.6420    8.8490 C.3   256  MET256      0.0692
     28  N         50.9500  -51.1990    4.5170 N.am  257  GLY257     -0.1955
     29  CA        50.7740  -50.6970    3.1810 C.3   257  GLY257      0.1869
     30  C         51.6620  -49.4930    2.9290 C.2   257  GLY257      0.2309
     31  O         52.4470  -49.4640    2.0130 O.2   257  GLY257     -0.2863
     32  N         54.7900  -52.4230   -3.1190 N.3   270  LYS270     -0.1231
     33  CA        53.5460  -52.9040   -3.7540 C.3   270  LYS270      0.1693
     34  C         52.5720  -51.8110   -4.0740 C.2   270  LYS270      0.2592
     35  O         51.7790  -51.9580   -5.0000 O.2   270  LYS270     -0.2718
     36  CB        52.8480  -53.8490   -2.7890 C.3   270  LYS270      0.0285
     37  CG        51.5880  -54.5210   -3.3210 C.3   270  LYS270      0.0035
     38  CD        51.0000  -55.5910   -2.3680 C.3   270  LYS270      0.0206
     39  CE        50.7990  -55.0620   -0.9460 C.3   270  LYS270      0.1093
     40  NZ        49.6260  -55.6630   -0.1890 N.3   270  LYS270     -0.1314
     41  N         52.5710  -50.7190   -3.3010 N.am  271  TYR271     -0.1976
     42  CA        51.6800  -49.6320   -3.5740 C.3   271  TYR271      0.1639
     43  C         52.3770  -48.4220   -4.2040 C.2   271  TYR271      0.2290
     44  O         51.8560  -47.3000   -4.1250 O.2   271  TYR271     -0.2864
     45  CB        51.0130  -49.2330   -2.2660 C.3   271  TYR271      0.0560
     46  CG        50.1850  -50.3060   -1.7260 C.ar  271  TYR271     -0.0198
     47  CD1       49.0680  -50.8000   -2.4820 C.ar  271  TYR271     -0.0009
     48  CD2       50.4430  -50.8660   -0.5040 C.ar  271  TYR271     -0.0009
     49  CE1       48.2840  -51.8440   -2.0200 C.ar  271  TYR271      0.0417
     50  CE2       49.6020  -51.8820    0.0020 C.ar  271  TYR271      0.0417
     51  CZ        48.5250  -52.3460   -0.7610 C.ar  271  TYR271      0.1957
     52  OH        47.7530  -53.3940   -0.3140 O.3   271  TYR271     -0.2866
     53  N         57.6820  -59.5840    4.2820 N.3   775  PRO775     -0.2102
     54  CA        56.2770  -59.6480    4.5990 C.3   775  PRO775      0.1504
     55  C         55.4040  -59.7910    3.3820 C.2   775  PRO775      0.2575
     56  O         54.4210  -60.4880    3.4750 O.2   775  PRO775     -0.2718
     57  CB        56.0190  -58.2980    5.2960 C.3   775  PRO775      0.0282
     58  CG        57.3140  -58.0140    5.9590 C.3   775  PRO775      0.0208
     59  CD        58.3260  -58.4640    4.9560 C.3   775  PRO775      0.0893
     60  N         55.7490  -59.2030    2.2280 N.am  776  ASN776     -0.1975
     61  CA        54.8710  -59.3850    1.1030 C.3   776  ASN776      0.1688
     62  C         54.8730  -60.8620    0.6490 C.2   776  ASN776      0.2292
     63  O         53.8410  -61.4060    0.3170 O.2   776  ASN776     -0.2864
     64  CB        55.2810  -58.5430   -0.1000 C.3   776  ASN776      0.1181
     65  CG        55.0350  -57.0570    0.1090 C.2   776  ASN776      0.2629
     66  OD1       54.2120  -56.6620    0.8920 O.2   776  ASN776     -0.2716
     67  ND2       55.7900  -56.2320   -0.5910 N.am  776  ASN776     -0.0877
     68  N         52.7560  -62.9490    3.1220 N.3   779  ARG779     -0.1245
     69  CA        51.3540  -62.7070    2.8490 C.3   779  ARG779      0.1563
     70  C         50.8270  -63.4160    1.6130 C.2   779  ARG779      0.2260
     71  O         49.6830  -63.9310    1.6040 O.2   779  ARG779     -0.2867
     72  CB        51.0850  -61.2100    2.7030 C.3   779  ARG779      0.0307
     73  CG        49.5990  -60.7800    2.5450 C.3   779  ARG779      0.0489
     74  CD        49.5590  -59.4550    1.7720 C.3   779  ARG779      0.2205
     75  NE        48.3100  -58.6990    1.7410 N.pl3 779  ARG779     -0.0865
     76  CZ        47.4690  -58.6490    0.7030 C.cat 779  ARG779      0.5346
     77  NH1       47.6910  -59.3730   -0.4260 N.pl3 779  ARG779      0.1354
     78  NH2       46.3770  -57.8720    0.8130 N.pl3 779  ARG779      0.1354
     79  N         53.5650  -59.3330   11.6500 N.3   818  VAL818     -0.1245
     80  CA        53.1340  -60.1980   10.5700 C.3   818  VAL818      0.1561
     81  C         52.4800  -61.5020   11.0890 C.2   818  VAL818      0.2260
     82  O         51.4340  -61.9240   10.5840 O.2   818  VAL818     -0.2867
     83  CB        54.2700  -60.5020    9.6280 C.3   818  VAL818      0.0252
     84  CG1       53.8510  -61.5420    8.5990 C.3   818  VAL818      0.0019
     85  CG2       54.6900  -59.2240    8.8790 C.3   818  VAL818      0.0019
     86  N         48.8600  -60.7540   12.1330 N.3   821  ARG821     -0.1245
     87  CA        47.9640  -60.7360   10.9660 C.3   821  ARG821      0.1563
     88  C         47.6330  -62.1520   10.4660 C.2   821  ARG821      0.2260
     89  O         46.4680  -62.4500   10.1760 O.2   821  ARG821     -0.2867
     90  CB        48.5990  -59.9350    9.7850 C.3   821  ARG821      0.0307
     91  CG        48.7910  -58.4670   10.0440 C.3   821  ARG821      0.0489
     92  CD        47.4920  -57.7110    9.8560 C.3   821  ARG821      0.2205
     93  NE        47.7310  -56.2700    9.9640 N.pl3 821  ARG821     -0.0865
     94  CZ        46.8010  -55.3240   10.2370 C.cat 821  ARG821      0.5346
     95  NH1       47.1530  -54.0600   10.3330 N.pl3 821  ARG821      0.1354
     96  NH2       45.5500  -55.6070   10.3720 N.pl3 821  ARG821      0.1354
@<TRIPOS>BOND
     1    35    34    2
     2    43    44    2
     3    43    42    1
     4    34    33    1
     5    34    41   am
     6    33    32    1
     7    33    36    1
     8    42    41    1
     9    42    45    1
    10    37    36    1
    11    37    38    1
    12    47    49   ar
    13    47    46   ar
    14    38    39    1
    15    45    46    1
    16    49    51   ar
    17    46    48   ar
    18    39    40    1
    19    51    52    1
    20    51    50   ar
    21    67    65   am
    22    48    50   ar
    23    77    76    1
    24    64    65    1
    25    64    61    1
    26    65    66    2
    27    63    62    2
    28    62    61    1
    29    76    78    1
    30    76    75    2
    31    61    60    1
    32    71    70    2
    33    70    69    1
    34    75    74    1
    35    74    73    1
    36    31    30    2
    37    60    55   am
    38    73    72    1
    39    72    69    1
    40    69    68    1
    41    30    29    1
    42    29    28    1
    43    55    56    2
    44    55    54    1
    45    23    22    2
    46     5     6    1
    47     5     2    1
    48    53    54    1
    49    53    59    1
    50     1     2    1
    51    28    22   am
    52    54    57    1
    53     4     3    2
    54     6     8   ar
    55     6     7   ar
    56     8    10   ar
    57    22    21    1
    58    59    58    1
    59     2     3    1
    60    57    58    1
    61    10    11   ar
    62     7     9   ar
    63     3    12   am
    64     9    11   ar
    65    21    20    1
    66    21    24    1
    67    20    14   am
    68    12    13    1
    69    14    15    2
    70    14    13    1
    71    24    25    1
    72    13    16    1
    73    84    83    1
    74    25    26    1
    75    18    17    2
    76    27    26    1
    77    85    83    1
    78    16    17    1
    79    17    19   am
    80    83    80    1
    81    90    91    1
    82    90    87    1
    83    92    93    1
    84    92    91    1
    85    93    94    2
    86    89    88    2
    87    94    95    1
    88    94    96    1
    89    88    87    1
    90    80    81    1
    91    80    79    1
    92    82    81    2
    93    87    86    1
