@<TRIPOS>MOLECULE
tmp/4xo4A02.pdb
 137 132 0 0 0
SMALL
GASTEIGER

@<TRIPOS>ATOM
      1  N         49.3490  -28.6380  -39.1440 N.3   119  GLN119     -0.1245
      2  CA        48.5920  -29.8910  -39.3010 C.3   119  GLN119      0.1566
      3  C         48.6570  -30.2780  -40.7820 C.2   119  GLN119      0.2260
      4  O         48.1620  -29.5170  -41.6300 O.2   119  GLN119     -0.2867
      5  CB        47.1130  -29.7350  -38.8360 C.3   119  GLN119      0.0367
      6  CG        46.2290  -30.9690  -39.1520 C.3   119  GLN119      0.0905
      7  CD        46.7940  -32.2220  -38.4820 C.2   119  GLN119      0.2608
      8  OE1       47.3580  -32.1520  -37.3970 O.2   119  GLN119     -0.2717
      9  NE2       46.6350  -33.3670  -39.1120 N.am  119  GLN119     -0.0878
     10  N         48.1860  -33.7740  -41.9680 N.3   121  GLU121     -0.1231
     11  CA        47.3380  -34.9210  -42.4040 C.3   121  GLU121      0.1699
     12  C         45.9490  -34.3790  -42.7600 C.2   121  GLU121      0.2592
     13  O         45.4220  -33.6370  -41.9950 O.2   121  GLU121     -0.2718
     14  CB        47.1790  -36.0070  -41.3480 C.3   121  GLU121      0.0402
     15  CG        46.5250  -37.2750  -41.9700 C.3   121  GLU121      0.1161
     16  CD        46.3210  -38.4700  -41.0210 C.2   121  GLU121      0.3649
     17  OE1       46.8440  -38.4360  -39.9320 O.co2 121  GLU121     -0.2457
     18  OE2       45.7680  -39.5280  -41.3990 O.co2 121  GLU121     -0.2457
     19  N         45.3340  -34.7600  -43.8720 N.am  122  ALA122     -0.1980
     20  CA        45.8850  -35.7020  -44.8890 C.3   122  ALA122      0.1597
     21  C         46.7260  -34.9730  -45.9370 C.2   122  ALA122      0.2287
     22  O         47.8110  -35.4630  -46.2940 O.2   122  ALA122     -0.2864
     23  CB        44.7390  -36.4560  -45.5720 C.3   122  ALA122      0.0319
     24  N         42.7000  -26.6570  -32.7920 N.3   258  PHE258     -0.1241
     25  CA        43.0470  -27.9000  -33.4490 C.3   258  PHE258      0.1605
     26  C         41.7340  -28.4930  -33.9130 C.2   258  PHE258      0.2264
     27  O         40.7660  -28.5680  -33.1230 O.2   258  PHE258     -0.2867
     28  CB        43.7730  -28.8390  -32.4460 C.3   258  PHE258      0.0534
     29  CG        44.5290  -29.9250  -33.1270 C.ar  258  PHE258     -0.0203
     30  CD1       45.6850  -29.6250  -33.7910 C.ar  258  PHE258     -0.0042
     31  CD2       44.0450  -31.2190  -33.1690 C.ar  258  PHE258     -0.0042
     32  CE1       46.4110  -30.5890  -34.4690 C.ar  258  PHE258     -0.0003
     33  CE2       44.7200  -32.2100  -33.8750 C.ar  258  PHE258     -0.0003
     34  CZ        45.9210  -31.8980  -34.5220 C.ar  258  PHE258     -0.0000
     35  N         41.0000  -31.6740  -35.1350 N.3   260  MET260     -0.1230
     36  CA        40.7250  -33.0310  -34.7120 C.3   260  MET260      0.1702
     37  C         41.1220  -33.2580  -33.2500 C.2   260  MET260      0.2593
     38  O         41.0000  -32.3240  -32.4270 O.2   260  MET260     -0.2718
     39  CB        41.3240  -33.9610  -35.7660 C.3   260  MET260      0.0401
     40  CG        40.3450  -33.9640  -36.9650 C.3   260  MET260      0.0596
     41  SD        41.0780  -34.1170  -38.5850 S.3   260  MET260     -0.1393
     42  CE        42.2170  -32.7200  -38.7460 C.3   260  MET260      0.0692
     43  N         41.4810  -34.4690  -32.8740 N.am  261  GLY261     -0.1942
     44  CA        41.8190  -34.7390  -31.5140 C.3   261  GLY261      0.2014
     45  C         43.3220  -34.5850  -31.3230 C.2   261  GLY261      0.2639
     46  O         43.7590  -33.9330  -30.4040 O.2   261  GLY261     -0.2714
     47  N         44.0810  -35.2670  -32.1510 N.am  262  ALA262     -0.1963
     48  CA        45.5380  -35.3140  -31.9880 C.3   262  ALA262      0.1728
     49  C         46.2050  -35.8790  -33.2250 C.2   262  ALA262      0.2616
     50  O         45.5350  -36.4260  -34.0570 O.2   262  ALA262     -0.2715
     51  CB        45.8790  -36.1240  -30.7780 C.3   262  ALA262      0.0334
     52  N         47.5170  -35.7840  -33.3330 N.am  263  MET263     -0.1963
     53  CA        48.2170  -36.1080  -34.5610 C.3   263  MET263      0.1736
     54  C         49.5700  -36.7480  -34.2690 C.2   263  MET263      0.2616
     55  O         50.3520  -36.2090  -33.4820 O.2   263  MET263     -0.2715
     56  CB        48.3530  -34.8700  -35.4220 C.3   263  MET263      0.0427
     57  CG        49.0590  -35.1010  -36.7580 C.3   263  MET263      0.0599
     58  SD        48.1530  -36.3200  -37.7750 S.3   263  MET263     -0.1393
     59  CE        49.5330  -37.0950  -38.5670 C.3   263  MET263      0.0692
     60  N         49.8070  -37.9020  -34.8890 N.am  264  GLU264     -0.1977
     61  CA        50.9640  -38.7480  -34.6220 C.3   264  GLU264      0.1602
     62  C         52.2530  -38.3600  -35.3640 C.2   264  GLU264      0.2287
     63  O         53.1040  -39.2230  -35.6590 O.2   264  GLU264     -0.2864
     64  CB        50.6300  -40.2070  -34.9800 C.3   264  GLU264      0.0415
     65  CG        50.4990  -40.5360  -36.4960 C.3   264  GLU264      0.1163
     66  CD        49.0750  -40.3590  -37.0720 C.2   264  GLU264      0.3649
     67  OE1       48.3030  -39.6210  -36.4510 O.co2 264  GLU264     -0.2457
     68  OE2       48.6800  -40.9380  -38.1430 O.co2 264  GLU264     -0.2457
     69  N         46.6560  -43.9010  -28.4370 N.3   297  HIS297     -0.1226
     70  CA        46.3590  -43.9610  -29.8700 C.3   297  HIS297      0.1752
     71  C         47.5210  -43.3380  -30.6870 C.2   297  HIS297      0.2595
     72  O         48.0710  -43.9910  -31.5710 O.2   297  HIS297     -0.2718
     73  CB        45.0270  -43.1870  -30.1510 C.3   297  HIS297      0.0759
     74  CG        44.6060  -43.2410  -31.5780 C.ar  297  HIS297      0.0818
     75  ND1       43.8000  -44.2280  -32.0700 N.ar  297  HIS297     -0.2268
     76  CD2       44.9680  -42.4890  -32.6430 C.ar  297  HIS297      0.1154
     77  CE1       43.6400  -44.0600  -33.3700 C.ar  297  HIS297      0.1986
     78  NE2       44.3620  -43.0290  -33.7380 N.ar  297  HIS297     -0.2212
     79  N         47.8980  -42.1130  -30.3900 N.am  298  GLU298     -0.1979
     80  CA        48.9530  -41.4740  -31.1760 C.3   298  GLU298      0.1602
     81  C         50.2880  -42.1680  -30.9580 C.2   298  GLU298      0.2287
     82  O         51.0250  -42.3720  -31.9010 O.2   298  GLU298     -0.2864
     83  CB        49.0370  -40.0250  -30.9120 C.3   298  GLU298      0.0415
     84  CG        47.7260  -39.2660  -30.9660 C.3   298  GLU298      0.1163
     85  CD        46.9560  -39.4090  -32.2730 C.2   298  GLU298      0.3649
     86  OE1       47.6000  -39.7110  -33.2940 O.co2 298  GLU298     -0.2457
     87  OE2       45.6960  -39.2290  -32.2510 O.co2 298  GLU298     -0.2457
     88  N         45.9300  -47.9300  -41.0970 N.3   319  LYS319     -0.1231
     89  CA        46.4340  -47.3670  -39.8760 C.3   319  LYS319      0.1693
     90  C         45.3680  -47.0320  -38.8370 C.2   319  LYS319      0.2591
     91  O         45.6090  -47.2460  -37.6600 O.2   319  LYS319     -0.2718
     92  CB        47.3240  -46.1810  -40.1560 C.3   319  LYS319      0.0285
     93  CG        46.6600  -44.9020  -40.5680 C.3   319  LYS319      0.0035
     94  CD        47.7600  -43.8690  -40.8440 C.3   319  LYS319      0.0206
     95  CE        47.3150  -42.4400  -41.2030 C.3   319  LYS319      0.1093
     96  NZ        46.7890  -41.6180  -40.0940 N.3   319  LYS319     -0.1314
     97  N         44.1930  -46.5070  -39.2450 N.am  320  GLU320     -0.1979
     98  CA        43.2160  -46.1300  -38.2650 C.3   320  GLU320      0.1602
     99  C         42.4700  -47.3070  -37.6100 C.2   320  GLU320      0.2287
    100  O         42.2400  -47.2730  -36.4150 O.2   320  GLU320     -0.2864
    101  CB        42.2400  -45.0640  -38.7750 C.3   320  GLU320      0.0415
    102  CG        42.8970  -43.7260  -39.1870 C.3   320  GLU320      0.1163
    103  CD        43.7720  -43.1530  -38.1000 C.2   320  GLU320      0.3649
    104  OE1       43.6010  -43.6090  -36.9530 O.co2 320  GLU320     -0.2457
    105  OE2       44.6650  -42.3290  -38.4070 O.co2 320  GLU320     -0.2457
    106  N         39.3910  -35.1830  -46.0310 N.3   373  ASN373     -0.1240
    107  CA        39.0360  -34.8930  -44.6610 C.3   373  ASN373      0.1653
    108  C         37.6330  -35.3330  -44.3010 C.2   373  ASN373      0.2266
    109  O         37.3010  -35.4400  -43.1180 O.2   373  ASN373     -0.2867
    110  CB        39.1960  -33.3900  -44.3500 C.3   373  ASN373      0.1155
    111  CG        40.6490  -32.9720  -44.2650 C.2   373  ASN373      0.2627
    112  OD1       41.5580  -33.7790  -43.9570 O.2   373  ASN373     -0.2716
    113  ND2       40.8980  -31.7140  -44.6770 N.am  373  ASN373     -0.0877
    114  N         37.5740  -39.2560  -42.3090 N.3   376  TYR376     -0.1241
    115  CA        37.9850  -39.5250  -40.9540 C.3   376  TYR376      0.1605
    116  C         36.7380  -39.8520  -40.1520 C.2   376  TYR376      0.2264
    117  O         36.2780  -39.0470  -39.3420 O.2   376  TYR376     -0.2867
    118  CB        38.7960  -38.3310  -40.3840 C.3   376  TYR376      0.0534
    119  CG        40.1700  -38.3260  -41.0610 C.ar  376  TYR376     -0.0201
    120  CD1       40.3360  -37.8280  -42.3630 C.ar  376  TYR376     -0.0009
    121  CD2       41.2570  -38.9350  -40.4540 C.ar  376  TYR376     -0.0009
    122  CE1       41.5330  -37.9110  -43.0390 C.ar  376  TYR376      0.0417
    123  CE2       42.4980  -39.0260  -41.0990 C.ar  376  TYR376      0.0417
    124  CZ        42.6310  -38.5040  -42.3670 C.ar  376  TYR376      0.1957
    125  OH        43.8000  -38.6130  -43.0180 O.3   376  TYR376     -0.2866
    126  N         37.2970  -45.6310  -38.7320 N.3   381  TYR381     -0.1241
    127  CA        37.8970  -45.8220  -37.4150 C.3   381  TYR381      0.1605
    128  C         37.2670  -47.0230  -36.5970 C.2   381  TYR381      0.2264
    129  O         37.9530  -47.9860  -36.1910 O.2   381  TYR381     -0.2867
    130  CB        37.7870  -44.5160  -36.5580 C.3   381  TYR381      0.0534
    131  CG        38.8210  -43.4760  -36.8680 C.ar  381  TYR381     -0.0201
    132  CD1       38.8470  -42.8170  -38.1140 C.ar  381  TYR381     -0.0009
    133  CD2       39.7900  -43.0980  -35.8970 C.ar  381  TYR381     -0.0009
    134  CE1       39.8310  -41.8480  -38.4010 C.ar  381  TYR381      0.0417
    135  CE2       40.7970  -42.1650  -36.1770 C.ar  381  TYR381      0.0417
    136  CZ        40.8220  -41.5030  -37.4040 C.ar  381  TYR381      0.1957
    137  OH        41.8560  -40.5610  -37.6850 O.3   381  TYR381     -0.2866
@<TRIPOS>BOND
     1    22    21    2
     2   106   107    1
     3    21    20    1
     4    23    20    1
     5    20    19    1
     6   113   111   am
     7   107   110    1
     8   107   108    1
     9   110   111    1
    10   108   109    2
    11   111   112    2
    12    19    12   am
    13   122   124   ar
    14   122   120   ar
    15   125   124    1
    16    12    11    1
    17    12    13    2
    18    11    10    1
    19    11    14    1
    20   124   123   ar
    21   120   119   ar
    22   114   115    1
    23    15    14    1
    24    15    16    1
    25     4     3    2
    26    18    16   ar
    27    95    94    1
    28    95    96    1
    29   123   121   ar
    30    88    89    1
    31   119   121   ar
    32   119   118    1
    33    16    17   ar
    34   115   118    1
    35   115   116    1
    36    94    93    1
    37     3     2    1
    38    93    92    1
    39    92    89    1
    40   116   117    2
    41    89    90    1
    42     2     1    1
    43     2     5    1
    44    97    90   am
    45    97    98    1
    46   102   101    1
    47   102   103    1
    48     6     5    1
    49     6     7    1
    50     9     7   am
    51    90    91    2
    52   101    98    1
    53    42    41    1
    54   126   127    1
    55    41    40    1
    56    59    58    1
    57     7     8    2
    58   105   103   ar
    59   134   132   ar
    60   134   136   ar
    61    98    99    1
    62    68    66   ar
    63   132   131   ar
    64   103   104   ar
    65    58    57    1
    66   137   136    1
    67    99   100    2
    68   127   128    1
    69   127   130    1
    70   136   135   ar
    71    66    65    1
    72    66    67   ar
    73    40    39    1
    74   131   130    1
    75   131   133   ar
    76    57    56    1
    77   128   129    2
    78    65    64    1
    79   135   133   ar
    80    39    36    1
    81    63    62    2
    82    56    53    1
    83    62    61    1
    84    35    36    1
    85    64    61    1
    86    60    61    1
    87    60    54   am
    88    36    37    1
    89    53    54    1
    90    53    52    1
    91    34    32   ar
    92    34    33   ar
    93    32    30   ar
    94    54    55    2
    95    50    49    2
    96    26    25    1
    97    26    27    2
    98    33    31   ar
    99    30    29   ar
   100    78    77   ar
   101    78    76   ar
   102    25    24    1
   103    25    28    1
   104    77    75   ar
   105    52    49   am
   106    86    85   ar
   107    37    43   am
   108    37    38    2
   109    49    48    1
   110    31    29   ar
   111    29    28    1
   112    43    44    1
   113    76    74   ar
   114    85    87   ar
   115    85    84    1
   116    47    48    1
   117    47    45   am
   118    75    74   ar
   119    48    51    1
   120    82    81    2
   121    74    73    1
   122    72    71    2
   123    44    45    1
   124    45    46    2
   125    80    81    1
   126    80    83    1
   127    80    79    1
   128    84    83    1
   129    71    79   am
   130    71    70    1
   131    73    70    1
   132    70    69    1
