@<TRIPOS>MOLECULE
tmp/4xo4A00.pdb
 83 76 0 0 0
SMALL
GASTEIGER

@<TRIPOS>ATOM
      1  N         20.1910  -29.8080  -15.0550 N.3   721  VAL721     -0.1245
      2  CA        19.7830  -29.3840  -16.3450 C.3   721  VAL721      0.1561
      3  C         18.7510  -30.3420  -16.9660 C.2   721  VAL721      0.2260
      4  O         17.7100  -29.8920  -17.4570 O.2   721  VAL721     -0.2867
      5  CB        21.0050  -29.1860  -17.2550 C.3   721  VAL721      0.0252
      6  CG1       20.5380  -28.9230  -18.6880 C.3   721  VAL721      0.0019
      7  CG2       21.8180  -27.9650  -16.7250 C.3   721  VAL721      0.0019
      8  N         18.8700  -25.3670  -10.8290 N.3   728  ARG728     -0.1231
      9  CA        19.6100  -25.3730  -12.0900 C.3   728  ARG728      0.1694
     10  C         20.2630  -24.0430  -12.4620 C.2   728  ARG728      0.2592
     11  O         21.4690  -23.9920  -12.7800 O.2   728  ARG728     -0.2718
     12  CB        18.6790  -25.8320  -13.2390 C.3   728  ARG728      0.0321
     13  CG        19.3690  -25.8930  -14.5820 C.3   728  ARG728      0.0489
     14  CD        18.3810  -25.8260  -15.7440 C.3   728  ARG728      0.2205
     15  NE        17.6760  -24.5680  -15.7470 N.pl3 728  ARG728     -0.0865
     16  CZ        16.5230  -24.3290  -16.3790 C.cat 728  ARG728      0.5346
     17  NH1       15.9170  -25.2720  -17.0850 N.pl3 728  ARG728      0.1354
     18  NH2       15.9550  -23.1290  -16.2860 N.pl3 728  ARG728      0.1354
     19  N         19.4900  -22.9690  -12.4500 N.am  729  ASP729     -0.1974
     20  CA        20.0100  -21.6900  -12.9050 C.3   729  ASP729      0.1709
     21  C         21.1550  -21.1920  -12.0390 C.2   729  ASP729      0.2293
     22  O         22.1230  -20.6630  -12.5310 O.2   729  ASP729     -0.2864
     23  CB        18.8730  -20.6360  -12.9690 C.3   729  ASP729      0.1436
     24  CG        17.8830  -20.9340  -14.0880 C.2   729  ASP729      0.3671
     25  OD1       18.2160  -21.7640  -14.9480 O.co2 729  ASP729     -0.2456
     26  OD2       16.7780  -20.3730  -14.1480 O.co2 729  ASP729     -0.2456
     27  N         24.3050  -23.3140  -12.6800 N.3   732  MET732     -0.1245
     28  CA        24.8740  -22.9560  -13.9720 C.3   732  MET732      0.1570
     29  C         25.5980  -21.6360  -13.9030 C.2   732  MET732      0.2261
     30  O         26.6840  -21.4820  -14.5220 O.2   732  MET732     -0.2867
     31  CB        23.7970  -22.9570  -15.0580 C.3   732  MET732      0.0387
     32  CG        23.3800  -24.3770  -15.5110 C.3   732  MET732      0.0595
     33  SD        24.6870  -25.4060  -16.2710 S.3   732  MET732     -0.1393
     34  CE        24.7160  -24.6390  -17.8590 C.3   732  MET732      0.0692
     35  N         29.9590  -27.0010  -19.9710 N.3   749  TRP749     -0.1241
     36  CA        28.8250  -26.1010  -19.7180 C.3   749  TRP749      0.1605
     37  C         28.0870  -25.7320  -21.0020 C.2   749  TRP749      0.2264
     38  O         26.8500  -25.7600  -21.0330 O.2   749  TRP749     -0.2867
     39  CB        29.3700  -24.8520  -19.0120 C.3   749  TRP749      0.0550
     40  CG        28.4480  -23.8330  -18.4390 C.ar  749  TRP749      0.0003
     41  CD1       27.9840  -23.7760  -17.1460 C.ar  749  TRP749      0.0946
     42  CD2       28.0090  -22.6470  -19.0850 C.ar  749  TRP749      0.0152
     43  NE1       27.2680  -22.6450  -16.9810 N.ar  749  TRP749     -0.2442
     44  CE2       27.2700  -21.9230  -18.1560 C.ar  749  TRP749      0.0810
     45  CE3       28.1540  -22.1310  -20.3800 C.ar  749  TRP749      0.0012
     46  CZ2       26.6650  -20.6880  -18.4760 C.ar  749  TRP749      0.0191
     47  CZ3       27.5850  -20.9000  -20.6760 C.ar  749  TRP749      0.0001
     48  CH2       26.8170  -20.2100  -19.7190 C.ar  749  TRP749      0.0015
     49  N         24.2530  -26.5580  -21.8810 N.3   753  GLN753     -0.1245
     50  CA        23.3210  -25.5790  -22.4750 C.3   753  GLN753      0.1566
     51  C         22.6460  -26.1100  -23.7620 C.2   753  GLN753      0.2260
     52  O         21.4100  -26.0410  -23.9680 O.2   753  GLN753     -0.2867
     53  CB        24.0420  -24.3010  -22.7940 C.3   753  GLN753      0.0367
     54  CG        24.5300  -23.4910  -21.5580 C.3   753  GLN753      0.0905
     55  CD        23.4170  -22.6980  -20.9150 C.2   753  GLN753      0.2608
     56  OE1       22.2420  -22.9310  -21.1860 O.2   753  GLN753     -0.2717
     57  NE2       23.7800  -21.7440  -20.0810 N.am  753  GLN753     -0.0878
     58  N         20.0660  -28.9060  -23.3570 N.3   756  SER756     -0.1217
     59  CA        19.0530  -28.7160  -22.3520 C.3   756  SER756      0.1889
     60  C         17.6520  -29.1370  -22.9240 C.2   756  SER756      0.2288
     61  O         17.3330  -28.8620  -24.0560 O.2   756  SER756     -0.2866
     62  CB        19.0550  -27.2320  -21.9140 C.3   756  SER756      0.2089
     63  OG        17.8600  -26.9010  -21.2290 O.3   756  SER756     -0.2183
     64  N         14.9110  -27.7200  -21.9530 N.3   758  ALA758     -0.1245
     65  CA        14.0180  -26.5810  -21.7880 C.3   758  ALA758      0.1562
     66  C         13.3880  -26.0910  -23.0600 C.2   758  ALA758      0.2260
     67  O         13.9490  -26.2230  -24.1600 O.2   758  ALA758     -0.2867
     68  CB        14.7680  -25.4190  -21.1510 C.3   758  ALA758      0.0290
     69  N         18.3140  -19.6780  -26.1390 N.3   764  THR764     -0.1218
     70  CA        19.4330  -19.5580  -25.1780 C.3   764  THR764      0.1862
     71  C         20.7700  -19.8190  -25.8800 C.2   764  THR764      0.2287
     72  O         21.7150  -19.0800  -25.7020 O.2   764  THR764     -0.2866
     73  CB        19.2730  -20.5150  -24.0080 C.3   764  THR764      0.1770
     74  OG1       18.0220  -20.3220  -23.3710 O.3   764  THR764     -0.2211
     75  CG2       20.3500  -20.3210  -22.9690 C.3   764  THR764      0.0375
     76  N         24.0680  -17.5210  -26.5090 N.3   768  LEU768     -0.1245
     77  CA        25.4130  -17.9510  -26.1150 C.3   768  LEU768      0.1561
     78  C         26.4910  -17.7270  -27.1910 C.2   768  LEU768      0.2260
     79  O         27.6540  -17.8070  -26.8560 O.2   768  LEU768     -0.2867
     80  CB        25.4340  -19.3910  -25.6140 C.3   768  LEU768      0.0270
     81  CG        24.6320  -19.6300  -24.3500 C.3   768  LEU768      0.0019
     82  CD1       24.5130  -21.0830  -23.9900 C.3   768  LEU768      0.0001
     83  CD2       25.2540  -18.8450  -23.1760 C.3   768  LEU768      0.0001
@<TRIPOS>BOND
     1    78    79    2
     2    78    77    1
     3    76    77    1
     4    69    70    1
     5    77    80    1
     6    71    72    2
     7    71    70    1
     8    80    81    1
     9    70    73    1
    10    81    82    1
    11    81    83    1
    12    67    66    2
    13    61    60    2
    14    73    74    1
    15    73    75    1
    16    52    51    2
    17    51    50    1
    18    58    59    1
    19    66    65    1
    20    60    59    1
    21    53    50    1
    22    53    54    1
    23    50    49    1
    24    59    62    1
    25    64    65    1
    26    62    63    1
    27    65    68    1
    28    54    55    1
    29    56    55    2
    30    38    37    2
    31    37    36    1
    32    55    57   am
    33    47    45   ar
    34    47    48   ar
    35    45    42   ar
    36    35    36    1
    37    48    46   ar
    38    36    39    1
    39    42    40   ar
    40    42    44   ar
    41    39    40    1
    42     6     5    1
    43    46    44   ar
    44    40    41   ar
    45    44    43   ar
    46    34    33    1
    47     4     3    2
    48     5     7    1
    49     5     2    1
    50    41    43   ar
    51    17    16    1
    52     3     2    1
    53    16    18    1
    54    16    15    2
    55     2     1    1
    56    33    32    1
    57    15    14    1
    58    14    13    1
    59    32    31    1
    60    31    28    1
    61    25    24   ar
    62    13    12    1
    63    30    29    2
    64    26    24   ar
    65    24    23    1
    66    28    29    1
    67    28    27    1
    68    12     9    1
    69    23    20    1
    70    20    19    1
    71    20    21    1
    72    11    10    2
    73    22    21    2
    74    10    19   am
    75    10     9    1
    76     9     8    1
