@<TRIPOS>MOLECULE
tmp/4xo5A01.pdb
 81 74 0 0 0
SMALL
GASTEIGER

@<TRIPOS>ATOM
      1  N        -31.0590   63.6260   -8.8080 N.3   615  LEU615     -0.1245
      2  CA       -30.4080   64.2890   -7.6890 C.3   615  LEU615      0.1561
      3  C        -31.0620   63.8470   -6.3530 C.2   615  LEU615      0.2260
      4  O        -32.2650   63.6550   -6.2990 O.2   615  LEU615     -0.2867
      5  CB       -30.5130   65.8140   -7.8170 C.3   615  LEU615      0.0270
      6  CG       -29.7900   66.4050   -9.0610 C.3   615  LEU615      0.0019
      7  CD1      -29.8920   67.8950   -8.9590 C.3   615  LEU615      0.0001
      8  CD2      -28.3260   66.0040   -9.0600 C.3   615  LEU615      0.0001
      9  N        -34.5840   66.7040   -1.2580 N.3   618  VAL618     -0.1245
     10  CA       -34.2970   67.7080   -0.2460 C.3   618  VAL618      0.1561
     11  C        -34.1810   67.0340    1.1120 C.2   618  VAL618      0.2260
     12  O        -33.4770   67.5540    2.0040 O.2   618  VAL618     -0.2867
     13  CB       -35.2830   68.8550   -0.2000 C.3   618  VAL618      0.0252
     14  CG1      -35.2740   69.6590   -1.5100 C.3   618  VAL618      0.0019
     15  CG2      -36.7140   68.3850    0.0660 C.3   618  VAL618      0.0019
     16  N        -33.3010   73.8270   -0.8270 N.3   634  ALA634     -0.1245
     17  CA       -34.2010   73.8200   -1.9870 C.3   634  ALA634      0.1562
     18  C        -33.6770   74.6510   -3.1420 C.2   634  ALA634      0.2260
     19  O        -33.6930   74.2160   -4.3110 O.2   634  ALA634     -0.2867
     20  CB       -35.6250   74.2660   -1.5910 C.3   634  ALA634      0.0290
     21  N        -30.6730   72.8650   -4.7610 N.3   637  ARG637     -0.1231
     22  CA       -31.0910   71.7270   -5.5890 C.3   637  ARG637      0.1694
     23  C        -31.5430   72.2250   -6.9300 C.2   637  ARG637      0.2591
     24  O        -31.1450   71.6580   -7.9560 O.2   637  ARG637     -0.2718
     25  CB       -32.2010   70.8990   -4.9240 C.3   637  ARG637      0.0321
     26  CG       -32.4880   69.5800   -5.6400 C.3   637  ARG637      0.0489
     27  CD       -33.5050   68.7290   -4.8270 C.3   637  ARG637      0.2205
     28  NE       -33.5510   67.4030   -5.3360 N.pl3 637  ARG637     -0.0865
     29  CZ       -34.3520   66.9900   -6.3180 C.cat 637  ARG637      0.5346
     30  NH1      -35.2320   67.7960   -6.8340 N.pl3 637  ARG637      0.1354
     31  NH2      -34.3110   65.7240   -6.7560 N.pl3 637  ARG637      0.1354
     32  N        -32.3130   73.3170   -6.9100 N.am  638  GLU638     -0.1979
     33  CA       -32.7280   73.9640   -8.1640 C.3   638  GLU638      0.1602
     34  C        -31.5330   74.4810   -9.0090 C.2   638  GLU638      0.2287
     35  O        -31.4540   74.2690  -10.2400 O.2   638  GLU638     -0.2864
     36  CB       -33.7600   75.0750   -7.9270 C.3   638  GLU638      0.0415
     37  CG       -34.1820   75.6740   -9.2460 C.3   638  GLU638      0.1163
     38  CD       -35.1980   76.8320   -9.1550 C.2   638  GLU638      0.3649
     39  OE1      -35.9440   76.9290   -8.1420 O.co2 638  GLU638     -0.2457
     40  OE2      -35.2660   77.6020  -10.1680 O.co2 638  GLU638     -0.2457
     41  N        -29.5840   71.7350  -10.5480 N.3   641  THR641     -0.1218
     42  CA       -30.3310   71.2220  -11.6600 C.3   641  THR641      0.1862
     43  C        -30.1290   72.1490  -12.9130 C.2   641  THR641      0.2287
     44  O        -29.8550   71.6710  -14.0000 O.2   641  THR641     -0.2866
     45  CB       -31.8070   71.0560  -11.2480 C.3   641  THR641      0.1770
     46  OG1      -31.8270   70.1440  -10.1560 O.3   641  THR641     -0.2211
     47  CG2      -32.6240   70.4950  -12.4160 C.3   641  THR641      0.0375
     48  N        -36.3580   66.0330  -16.8350 N.3   682  ARG682     -0.1245
     49  CA       -36.3680   66.8780  -15.6440 C.3   682  ARG682      0.1563
     50  C        -35.2920   68.0110  -15.7790 C.2   682  ARG682      0.2260
     51  O        -35.5760   69.1550  -15.4680 O.2   682  ARG682     -0.2867
     52  CB       -36.0440   66.0340  -14.3900 C.3   682  ARG682      0.0307
     53  CG       -36.2620   66.7300  -13.0720 C.3   682  ARG682      0.0489
     54  CD       -37.7250   67.0210  -12.9010 C.3   682  ARG682      0.2205
     55  NE       -38.0040   67.4650  -11.5450 N.pl3 682  ARG682     -0.0865
     56  CZ       -39.1950   67.4550  -10.9730 C.cat 682  ARG682      0.5346
     57  NH1      -40.2510   66.8800  -11.5570 N.pl3 682  ARG682      0.1354
     58  NH2      -39.3020   67.9200   -9.7510 N.pl3 682  ARG682      0.1354
     59  N        -35.5090   72.5460  -16.7960 N.3   686  PHE686     -0.1241
     60  CA       -34.7660   73.6120  -16.1270 C.3   686  PHE686      0.1605
     61  C        -33.7070   74.2780  -17.0180 C.2   686  PHE686      0.2264
     62  O        -32.8710   75.0250  -16.5090 O.2   686  PHE686     -0.2867
     63  CB       -34.1200   73.0320  -14.8690 C.3   686  PHE686      0.0534
     64  CG       -35.0850   72.8700  -13.7120 C.ar  686  PHE686     -0.0203
     65  CD1      -35.3360   73.9230  -12.8580 C.ar  686  PHE686     -0.0042
     66  CD2      -35.7610   71.6850  -13.5080 C.ar  686  PHE686     -0.0042
     67  CE1      -36.1930   73.7960  -11.7980 C.ar  686  PHE686     -0.0003
     68  CE2      -36.6410   71.5410  -12.4170 C.ar  686  PHE686     -0.0003
     69  CZ       -36.8460   72.5920  -11.5560 C.ar  686  PHE686     -0.0000
     70  N        -42.3110   72.1350  -11.2570 N.3   718  ALA718     -0.1245
     71  CA       -41.0350   72.3280  -10.5880 C.3   718  ALA718      0.1562
     72  C        -40.2340   73.5200  -11.2240 C.2   718  ALA718      0.2260
     73  O        -39.5780   74.2890  -10.5210 O.2   718  ALA718     -0.2867
     74  CB       -40.2070   71.0670  -10.6800 C.3   718  ALA718      0.0290
     75  N        -42.7540   74.9580   -6.0310 N.3   753  PRO753     -0.2116
     76  CA       -41.7920   75.9830   -5.5760 C.3   753  PRO753      0.1372
     77  C        -42.3950   77.3940   -5.6420 C.2   753  PRO753      0.2244
     78  O        -41.7360   78.3540   -5.3140 O.2   753  PRO753     -0.2868
     79  CB       -40.6560   75.8460   -6.6040 C.3   753  PRO753      0.0268
     80  CG       -41.3490   75.4000   -7.8820 C.3   753  PRO753      0.0207
     81  CD       -42.4610   74.4900   -7.3830 C.3   753  PRO753      0.0892
@<TRIPOS>BOND
     1    61    62    2
     2    61    60    1
     3    48    49    1
     4    59    60    1
     5    60    63    1
     6    50    49    1
     7    50    51    2
     8    49    52    1
     9    63    64    1
    10    52    53    1
    11    44    43    2
    12    64    66   ar
    13    64    65   ar
    14    66    68   ar
    15    53    54    1
    16    43    42    1
    17    54    55    1
    18    65    67   ar
    19    68    69   ar
    20    47    45    1
    21    67    69   ar
    22    42    45    1
    23    42    41    1
    24    57    56    1
    25    55    56    2
    26    70    71    1
    27    45    46    1
    28    72    71    1
    29    72    73    2
    30    56    58    1
    31    74    71    1
    32    35    34    2
    33    40    38   ar
    34    37    38    1
    35    37    36    1
    36    38    39   ar
    37     6     8    1
    38     6     7    1
    39     6     5    1
    40    34    33    1
    41     1     2    1
    42    33    36    1
    43    33    32    1
    44    24    23    2
    45    80    81    1
    46    80    79    1
    47     5     2    1
    48     2     3    1
    49    81    75    1
    50    23    32   am
    51    23    22    1
    52    30    29    1
    53    31    29    1
    54    79    76    1
    55     3     4    2
    56    29    28    2
    57    75    76    1
    58    77    76    1
    59    77    78    2
    60    26    25    1
    61    26    27    1
    62    22    25    1
    63    22    21    1
    64    28    27    1
    65    19    18    2
    66    18    17    1
    67    17    20    1
    68    17    16    1
    69    14    13    1
    70     9    10    1
    71    10    13    1
    72    10    11    1
    73    13    15    1
    74    11    12    2
