@<TRIPOS>MOLECULE
tmp/4xo6A01.pdb
 174 171 0 0 0
SMALL
GASTEIGER

@<TRIPOS>ATOM
      1  N          6.3510   -6.0470    6.5050 N.3    26  TYR26      -0.1241
      2  CA         6.2450   -6.0020    7.9910 C.3    26  TYR26       0.1605
      3  C          4.7870   -5.9110    8.3860 C.2    26  TYR26       0.2264
      4  O          3.9690   -5.1710    7.8180 O.2    26  TYR26      -0.2867
      5  CB         6.9920   -4.8170    8.5680 C.3    26  TYR26       0.0534
      6  CG         6.7430   -4.7310   10.0730 C.ar   26  TYR26      -0.0201
      7  CD1        7.3740   -5.6650   10.9470 C.ar   26  TYR26      -0.0009
      8  CD2        5.8240   -3.8310   10.6130 C.ar   26  TYR26      -0.0009
      9  CE1        7.1320   -5.6960   12.3040 C.ar   26  TYR26       0.0417
     10  CE2        5.5430   -3.8030   12.0340 C.ar   26  TYR26       0.0417
     11  CZ         6.2150   -4.7710   12.8310 C.ar   26  TYR26       0.1957
     12  OH         6.0100   -4.8120   14.2020 O.3    26  TYR26      -0.2866
     13  N          3.0060   -7.9900   15.3610 N.3    29  ALA29      -0.1245
     14  CA         3.1500   -9.4370   15.7800 C.3    29  ALA29       0.1562
     15  C          1.8110  -10.1340   16.0020 C.2    29  ALA29       0.2260
     16  O          1.7040  -11.3590   15.8660 O.2    29  ALA29      -0.2867
     17  CB         4.0580   -9.6310   17.0060 C.3    29  ALA29       0.0290
     18  N         14.4820   -8.9830   11.3170 N.3    56  VAL56      -0.1231
     19  CA        13.7640   -8.5860   12.5320 C.3    56  VAL56       0.1692
     20  C         12.2440   -8.6710   12.3380 C.2    56  VAL56       0.2592
     21  O         11.5090   -8.5860   13.2950 O.2    56  VAL56      -0.2718
     22  CB        14.2100   -7.1930   13.0280 C.3    56  VAL56       0.0266
     23  CG1       13.6050   -6.0990   12.2220 C.3    56  VAL56       0.0020
     24  CG2       14.0380   -6.9880   14.5090 C.3    56  VAL56       0.0020
     25  N         11.7660   -8.8000   11.1040 N.am   57  TYR57      -0.1962
     26  CA        10.3220   -8.9210   10.8900 C.3    57  TYR57       0.1771
     27  C          9.7770  -10.2970   11.2200 C.2    57  TYR57       0.2619
     28  O          8.5970  -10.4940   11.2260 O.2    57  TYR57      -0.2715
     29  CB         9.9260   -8.5710    9.4580 C.3    57  TYR57       0.0574
     30  CG        10.2930   -7.1720    9.0110 C.ar   57  TYR57      -0.0198
     31  CD1       10.6770   -6.1930    9.8850 C.ar   57  TYR57      -0.0009
     32  CD2       10.2630   -6.8560    7.6400 C.ar   57  TYR57      -0.0009
     33  CE1       11.0820   -4.9490    9.4410 C.ar   57  TYR57       0.0417
     34  CE2       10.6410   -5.6040    7.1690 C.ar   57  TYR57       0.0417
     35  CZ        11.0290   -4.6410    8.0650 C.ar   57  TYR57       0.1957
     36  OH        11.4310   -3.4580    7.5580 O.3    57  TYR57      -0.2866
     37  N         10.6860  -11.2440   11.4080 N.am   58  ASN58      -0.1972
     38  CA        10.2870  -12.6090   11.7610 C.3    58  ASN58       0.1688
     39  C          9.3020  -13.2390   10.7530 C.2    58  ASN58       0.2292
     40  O          8.3920  -13.9510   11.1090 O.2    58  ASN58      -0.2864
     41  CB         9.6980  -12.6400   13.1770 C.3    58  ASN58       0.1181
     42  CG         9.6400  -14.0150   13.7140 C.2    58  ASN58       0.2629
     43  OD1       10.4170  -14.8310   13.3800 O.2    58  ASN58      -0.2716
     44  ND2        8.6740  -14.2600   14.5110 N.am   58  ASN58      -0.0877
     45  N         20.0660   -6.9330   11.1380 N.3    88  TRP88      -0.1241
     46  CA        19.6510   -6.2860   12.3590 C.3    88  TRP88       0.1605
     47  C         20.8070   -5.8730   13.2280 C.2    88  TRP88       0.2264
     48  O         21.9590   -6.3560   13.0960 O.2    88  TRP88      -0.2867
     49  CB        18.6150   -7.2040   13.1280 C.3    88  TRP88       0.0550
     50  CG        18.0500   -6.4390   14.2830 C.ar   88  TRP88       0.0003
     51  CD1       18.1550   -6.7800   15.6210 C.ar   88  TRP88       0.0946
     52  CD2       17.3810   -5.1780   14.2100 C.ar   88  TRP88       0.0152
     53  NE1       17.5760   -5.8100   16.3820 N.ar   88  TRP88      -0.2442
     54  CE2       17.1210   -4.7980   15.5640 C.ar   88  TRP88       0.0810
     55  CE3       16.9660   -4.3420   13.1600 C.ar   88  TRP88       0.0012
     56  CZ2       16.5040   -3.5780   15.9130 C.ar   88  TRP88       0.0191
     57  CZ3       16.3410   -3.1130   13.5140 C.ar   88  TRP88       0.0001
     58  CH2       16.1670   -2.7430   14.8750 C.ar   88  TRP88       0.0015
     59  N         20.1550   -2.2990    8.6590 N.3   119  HIS119     -0.1226
     60  CA        18.7790   -1.8500    8.9520 C.3   119  HIS119      0.1752
     61  C         18.7530   -0.5650    9.7170 C.2   119  HIS119      0.2596
     62  O         17.8650    0.2960    9.4240 O.2   119  HIS119     -0.2718
     63  CB        18.0630   -2.9540    9.7560 C.3   119  HIS119      0.0759
     64  CG        16.6110   -2.9180    9.7060 C.ar  119  HIS119      0.0818
     65  ND1       15.8500   -4.0800    9.8760 N.ar  119  HIS119     -0.2268
     66  CD2       15.7410   -1.8550    9.6020 C.ar  119  HIS119      0.1154
     67  CE1       14.5590   -3.7520    9.8450 C.ar  119  HIS119      0.1986
     68  NE2       14.4600   -2.3860    9.6760 N.ar  119  HIS119     -0.2212
     69  N         19.6090   -0.3640   10.7170 N.am  120  PHE120     -0.1976
     70  CA        19.4940    0.7850   11.5600 C.3   120  PHE120      0.1639
     71  C         20.9010    1.0470   12.1230 C.2   120  PHE120      0.2290
     72  O         21.5420    0.0600   12.5460 O.2   120  PHE120     -0.2864
     73  CB        18.4370    0.4920   12.6700 C.3   120  PHE120      0.0560
     74  CG        18.1400    1.7210   13.4790 C.ar  120  PHE120     -0.0200
     75  CD1       17.2940    2.7040   12.9380 C.ar  120  PHE120     -0.0042
     76  CD2       18.6230    1.9410   14.7940 C.ar  120  PHE120     -0.0042
     77  CE1       17.0110    3.8920   13.6290 C.ar  120  PHE120     -0.0003
     78  CE2       18.3490    3.1020   15.4740 C.ar  120  PHE120     -0.0003
     79  CZ        17.5630    4.0700   14.9180 C.ar  120  PHE120     -0.0000
     80  N         16.4050   -9.5630   19.9430 N.3   130  VAL130     -0.1231
     81  CA        16.6690   -8.4940   18.9640 C.3   130  VAL130      0.1692
     82  C         16.6560   -7.1360   19.5730 C.2   130  VAL130      0.2591
     83  O         17.3600   -6.2490   19.0690 O.2   130  VAL130     -0.2718
     84  CB        15.6850   -8.6280   17.7620 C.3   130  VAL130      0.0266
     85  CG1       16.0180   -9.9110   16.9830 C.3   130  VAL130      0.0020
     86  CG2       14.2210   -8.4720   18.1970 C.3   130  VAL130      0.0020
     87  N         15.9620   -6.9820   20.7050 N.am  131  ILE131     -0.1980
     88  CA        16.1640   -5.7220   21.4510 C.3   131  ILE131      0.1595
     89  C         16.4820   -6.1600   22.9160 C.2   131  ILE131      0.2287
     90  O         15.5980   -6.1420   23.7990 O.2   131  ILE131     -0.2864
     91  CB        14.9370   -4.7850   21.3870 C.3   131  ILE131      0.0276
     92  CG1       14.7680   -4.2910   19.9300 C.3   131  ILE131      0.0022
     93  CG2       15.2690   -3.5050   22.1970 C.3   131  ILE131      0.0022
     94  CD1       13.5850   -3.3760   19.7300 C.3   131  ILE131      0.0001
     95  N         17.9120    4.0620    7.2720 N.3   169  ASN169     -0.1240
     96  CA        17.8910    4.9850    8.4390 C.3   169  ASN169      0.1653
     97  C         19.2140    5.6330    8.6350 C.2   169  ASN169      0.2266
     98  O         19.5810    5.9640    9.7900 O.2   169  ASN169     -0.2867
     99  CB        17.4090    4.2240    9.7020 C.3   169  ASN169      0.1155
    100  CG        16.0190    3.6910    9.5210 C.2   169  ASN169      0.2627
    101  OD1       15.8250    2.4100    9.5770 O.2   169  ASN169     -0.2716
    102  ND2       15.0730    4.5210    9.3600 N.am  169  ASN169     -0.0877
    103  N         10.0390    4.1960    3.0140 N.3   218  TYR218     -0.1241
    104  CA         9.1170    3.4100    3.8380 C.3   218  TYR218      0.1605
    105  C          8.1000    4.3010    4.5690 C.2   218  TYR218      0.2264
    106  O          8.2790    5.4840    4.6310 O.2   218  TYR218     -0.2867
    107  CB         9.8600    2.4800    4.8230 C.3   218  TYR218      0.0534
    108  CG        10.5550    3.0790    6.0540 C.ar  218  TYR218     -0.0201
    109  CD1        9.8060    3.5750    7.1550 C.ar  218  TYR218     -0.0009
    110  CD2       11.9320    3.0420    6.1480 C.ar  218  TYR218     -0.0009
    111  CE1       10.4120    4.0120    8.3180 C.ar  218  TYR218      0.0417
    112  CE2       12.5650    3.4720    7.3030 C.ar  218  TYR218      0.0417
    113  CZ        11.7880    3.9220    8.3880 C.ar  218  TYR218      0.1957
    114  OH        12.3540    4.3220    9.5640 O.3   218  TYR218     -0.2866
    115  N          2.4780    1.8020    9.5770 N.3   224  HIS224     -0.1241
    116  CA         1.6090    0.8530   10.3030 C.3   224  HIS224      0.1621
    117  C          0.9280    1.4460   11.5310 C.2   224  HIS224      0.2264
    118  O          0.0020    0.8030   12.0600 O.2   224  HIS224     -0.2867
    119  CB         2.4170   -0.3670   10.7340 C.3   224  HIS224      0.0745
    120  CG         3.7660   -0.0140   11.3660 C.ar  224  HIS224      0.0817
    121  ND1        3.9010    0.6170   12.5700 N.ar  224  HIS224     -0.2268
    122  CD2        5.0440   -0.1750   10.8720 C.ar  224  HIS224      0.1154
    123  CE1        5.1640    0.8170   12.7990 C.ar  224  HIS224      0.1986
    124  NE2        5.8750    0.3550   11.7440 N.ar  224  HIS224     -0.2212
    125  N          1.8220    1.3000   14.5500 N.3   226  GLU226     -0.1245
    126  CA         1.7990    0.3490   15.6580 C.3   226  GLU226      0.1567
    127  C          2.3320    1.0830   16.8730 C.2   226  GLU226      0.2260
    128  O          3.3940    1.6570   16.9130 O.2   226  GLU226     -0.2867
    129  CB         2.7420   -0.7770   15.3020 C.3   226  GLU226      0.0388
    130  CG         2.6160   -1.9380   16.3250 C.3   226  GLU226      0.1160
    131  CD         3.5670   -3.0660   15.9890 C.2   226  GLU226      0.3649
    132  OE1        4.3870   -2.9910   15.0140 O.co2 226  GLU226     -0.2457
    133  OE2        3.6120   -4.0860   16.7690 O.co2 226  GLU226     -0.2457
    134  N          5.5290    2.2210   18.8680 N.3   229  TRP229     -0.1241
    135  CA         6.4880    2.7770   17.8860 C.3   229  TRP229      0.1605
    136  C          6.0440    4.0880   17.2790 C.2   229  TRP229      0.2264
    137  O          6.8680    4.9410   16.9610 O.2   229  TRP229     -0.2867
    138  CB         6.6980    1.7450   16.7640 C.3   229  TRP229      0.0550
    139  CG         7.1130    0.4180   17.3560 C.ar  229  TRP229      0.0003
    140  CD1        6.3490   -0.7170   17.4850 C.ar  229  TRP229      0.0946
    141  CD2        8.3880    0.1540   17.9620 C.ar  229  TRP229      0.0152
    142  NE1        7.0980   -1.6720   18.1690 N.ar  229  TRP229     -0.2442
    143  CE2        8.2950   -1.2000   18.4850 C.ar  229  TRP229      0.0810
    144  CE3        9.5370    0.8760   18.1270 C.ar  229  TRP229      0.0012
    145  CZ2        9.3580   -1.7850   19.1590 C.ar  229  TRP229      0.0191
    146  CZ3       10.6150    0.2770   18.7830 C.ar  229  TRP229      0.0001
    147  CH2       10.5260   -1.0360   19.2460 C.ar  229  TRP229      0.0015
    148  N          8.1390    7.3170   12.7740 N.3   308  LEU308     -0.1245
    149  CA         8.9520    6.2350   13.3650 C.3   308  LEU308      0.1561
    150  C         10.2150    6.8900   13.9020 C.2   308  LEU308      0.2260
    151  O         11.2170    6.9680   13.2980 O.2   308  LEU308     -0.2867
    152  CB         9.2760    5.1670   12.3170 C.3   308  LEU308      0.0270
    153  CG         9.6280    3.8090   12.9290 C.3   308  LEU308      0.0019
    154  CD1        8.4350    3.1930   13.6400 C.3   308  LEU308      0.0001
    155  CD2       10.0760    2.8330   11.8290 C.3   308  LEU308      0.0001
    156  N         11.9470    5.8380   16.5910 N.3   310  LEU310     -0.1245
    157  CA        12.8560    4.8310   17.1510 C.3   310  LEU310      0.1561
    158  C         13.6740    5.4130   18.3240 C.2   310  LEU310      0.2260
    159  O         14.7770    5.0920   18.5000 O.2   310  LEU310     -0.2867
    160  CB        13.6860    4.1550   16.0560 C.3   310  LEU310      0.0270
    161  CG        12.8570    3.5300   14.9030 C.3   310  LEU310      0.0019
    162  CD1       13.6850    3.1620   13.7080 C.3   310  LEU310      0.0001
    163  CD2       12.0200    2.3340   15.3240 C.3   310  LEU310      0.0001
    164  N         16.2710    4.0040   20.8610 N.3   313  PHE313     -0.1241
    165  CA        17.6460    3.8520   20.4230 C.3   313  PHE313      0.1605
    166  C         18.4630    5.1330   20.5400 C.2   313  PHE313      0.2264
    167  O         19.5810    5.1470   20.1410 O.2   313  PHE313     -0.2867
    168  CB        17.7260    3.3050   18.9850 C.3   313  PHE313      0.0534
    169  CG        17.1300    1.9170   18.8050 C.ar  313  PHE313     -0.0203
    170  CD1       17.7760    0.8190   19.2490 C.ar  313  PHE313     -0.0042
    171  CD2       15.9190    1.7200   18.2110 C.ar  313  PHE313     -0.0042
    172  CE1       17.2380   -0.4410   19.0930 C.ar  313  PHE313     -0.0003
    173  CE2       15.3690    0.4610   18.0130 C.ar  313  PHE313     -0.0003
    174  CZ        16.0370   -0.6290   18.4620 C.ar  313  PHE313     -0.0000
@<TRIPOS>BOND
     1   103   104    1
     2   104   105    1
     3   104   107    1
     4   105   106    2
     5   107   108    1
     6   108   110   ar
     7   108   109   ar
     8   110   112   ar
     9     1     2    1
    10   109   111   ar
    11    34    32   ar
    12    34    35   ar
    13    95    96    1
    14   112   113   ar
    15    36    35    1
    16    32    30   ar
    17     4     3    2
    18     2     3    1
    19     2     5    1
    20    35    33   ar
    21   111   113   ar
    22   113   114    1
    23    96    97    1
    24    96    99    1
    25     5     6    1
    26    97    98    2
    27    59    60    1
    28    60    61    1
    29    60    63    1
    30    30    29    1
    31    30    31   ar
    32   102   100   am
    33    62    61    2
    34    33    31   ar
    35    29    26    1
    36   100   101    2
    37   100    99    1
    38   115   116    1
    39    66    68   ar
    40    66    64   ar
    41    68    67   ar
    42    64    63    1
    43    64    65   ar
    44    61    69   am
    45    67    65   ar
    46     6     8   ar
    47     6     7   ar
    48   116   119    1
    49   116   117    1
    50     8    10   ar
    51    69    70    1
    52   119   120    1
    53    39    40    2
    54    39    38    1
    55   122   120   ar
    56   122   124   ar
    57    26    25    1
    58    26    27    1
    59     7     9   ar
    60    25    20   am
    61    45    46    1
    62    27    28    2
    63    27    37   am
    64    18    19    1
    65   120   121   ar
    66    37    38    1
    67   117   118    2
    68    70    71    1
    69    70    73    1
    70   124   123   ar
    71    38    41    1
    72   155   153    1
    73    10    11   ar
    74    71    72    2
    75    23    22    1
    76     9    11   ar
    77   152   153    1
    78   152   149    1
    79    20    19    1
    80    20    21    2
    81    46    49    1
    82    46    47    1
    83    19    22    1
    84   121   123   ar
    85    73    74    1
    86   148   149    1
    87    11    12    1
    88   153   154    1
    89    75    74   ar
    90    75    77   ar
    91    22    24    1
    92    48    47    2
    93    49    50    1
    94    55    57   ar
    95    55    52   ar
    96    41    42    1
    97   151   150    2
    98   149   150    1
    99    43    42    2
   100    74    76   ar
   101    57    58   ar
   102    77    79   ar
   103   162   161    1
   104    42    44   am
   105    52    50   ar
   106    52    54   ar
   107    50    51   ar
   108   125   126    1
   109    76    78   ar
   110    58    56   ar
   111   161   163    1
   112   161   160    1
   113    79    78   ar
   114   132   131   ar
   115   129   126    1
   116   129   130    1
   117    13    14    1
   118    54    56   ar
   119    54    53   ar
   120    51    53   ar
   121   126   127    1
   122    14    15    1
   123    14    17    1
   124    16    15    2
   125   131   130    1
   126   131   133   ar
   127   160   157    1
   128   156   157    1
   129   138   139    1
   130   138   135    1
   131   127   128    2
   132   137   136    2
   133    85    84    1
   134   157   158    1
   135   136   135    1
   136   139   140   ar
   137   139   141   ar
   138   140   142   ar
   139    84    86    1
   140    84    81    1
   141   135   134    1
   142   141   144   ar
   143   141   143   ar
   144   173   171   ar
   145   173   174   ar
   146   144   146   ar
   147   142   143   ar
   148   171   169   ar
   149   158   159    2
   150   174   172   ar
   151   143   145   ar
   152   146   147   ar
   153   169   168    1
   154   169   170   ar
   155    81    82    1
   156    81    80    1
   157   168   165    1
   158    83    82    2
   159   172   170   ar
   160   145   147   ar
   161    82    87   am
   162    94    92    1
   163    92    91    1
   164   167   166    2
   165   165   166    1
   166   165   164    1
   167    87    88    1
   168    91    88    1
   169    91    93    1
   170    88    89    1
   171    89    90    2
