@<TRIPOS>MOLECULE
tmp/4xooC01.pdb
 66 65 0 0 0
SMALL
GASTEIGER

@<TRIPOS>ATOM
      1  N         27.0030    5.2950    5.8640 N.3    37  THR37      -0.1203
      2  CA        25.8080    5.1400    6.7080 C.3    37  THR37       0.1994
      3  C         25.8940    5.9600    8.0180 C.2    37  THR37       0.2618
      4  O         24.9790    5.9780    8.8120 O.2    37  THR37      -0.2717
      5  CB        25.5400    3.6690    7.0810 C.3    37  THR37       0.1784
      6  OG1       26.5980    3.1800    7.8980 O.3    37  THR37      -0.2211
      7  CG2       25.4370    2.8320    5.8680 C.3    37  THR37       0.0376
      8  N         26.9840    6.6560    8.2310 N.am   38  ALA38      -0.1966
      9  CA        27.0920    7.5570    9.3610 C.3    38  ALA38       0.1713
     10  C         26.0550    8.6600    9.2350 C.2    38  ALA38       0.2458
     11  O         25.7390    9.0760    8.1510 O.2    38  ALA38      -0.2730
     12  CB        28.4650    8.1720    9.3790 C.3    38  ALA38       0.0333
     13  N         25.5390    9.1420   10.3590 N.am   39  PRO39      -0.2716
     14  CA        24.5080   10.1600   10.2490 C.3    39  PRO39       0.1536
     15  C         25.0560   11.4680    9.7200 C.2    39  PRO39       0.2598
     16  O         26.2410   11.7620    9.8620 O.2    39  PRO39      -0.2715
     17  CB        24.0780   10.3720   11.6940 C.3    39  PRO39       0.0310
     18  CG        25.3360   10.0970   12.4850 C.3    39  PRO39       0.0237
     19  CD        26.0160    8.9780   11.7470 C.3    39  PRO39       0.0939
     20  N         24.1670   12.2720    9.1850 N.am   40  ALA40      -0.1964
     21  CA        24.5170   13.5560    8.6760 C.3    40  ALA40       0.1713
     22  C         23.2880   14.4190    8.8330 C.2    40  ALA40       0.2458
     23  O         22.1670   13.9670    8.5880 O.2    40  ALA40      -0.2730
     24  CB        24.8930   13.4510    7.2060 C.3    40  ALA40       0.0333
     25  N         23.4960   15.6880    9.1770 N.am   41  PRO41      -0.2716
     26  CA        22.3690   16.5800    9.3870 C.3    41  PRO41       0.1536
     27  C         21.3780   16.5870    8.1900 C.2    41  PRO41       0.2598
     28  O         21.7300   16.2760    7.0360 O.2    41  PRO41      -0.2715
     29  CB        23.0100   17.9550    9.5830 C.3    41  PRO41       0.0310
     30  CG        24.4720   17.7130    9.7010 C.3    41  PRO41       0.0237
     31  CD        24.7690   16.4070    9.0490 C.3    41  PRO41       0.0939
     32  N         20.1300   16.8970    8.5110 N.am   42  HIS42      -0.1974
     33  CA        19.0310   16.7450    7.5660 C.3    42  HIS42       0.1656
     34  C         19.4150   17.4780    6.2730 C.2    42  HIS42       0.2291
     35  O         19.8020   18.6610    6.2780 O.2    42  HIS42      -0.2864
     36  CB        17.7230   17.2700    8.2220 C.3    42  HIS42       0.0771
     37  CG        16.4760   17.0600    7.4120 C.ar   42  HIS42       0.0820
     38  ND1       15.9790   15.8060    7.1140 N.ar   42  HIS42      -0.2267
     39  CD2       15.5880   17.9510    6.8990 C.ar   42  HIS42       0.1154
     40  CE1       14.8550   15.9350    6.4290 C.ar   42  HIS42       0.1986
     41  NE2       14.5950   17.2260    6.2880 N.ar   42  HIS42      -0.2212
     42  N         29.1580   21.8220   12.8800 N.3   124  MET124     -0.1245
     43  CA        28.2250   20.7460   12.7280 C.3   124  MET124      0.1570
     44  C         28.5830   19.8200   11.5680 C.2   124  MET124      0.2261
     45  O         28.4800   18.6180   11.6900 O.2   124  MET124     -0.2867
     46  CB        26.8080   21.3000   12.5450 C.3   124  MET124      0.0387
     47  CG        25.7620   20.2130   12.4870 C.3   124  MET124      0.0595
     48  SD        24.0580   20.8150   12.4150 S.3   124  MET124     -0.1393
     49  CE        24.0690   21.5400   10.7850 C.3   124  MET124      0.0692
     50  N         31.8780   17.8440   12.4670 N.3   127  VAL127     -0.1231
     51  CA        31.6900   16.7550   13.3610 C.3   127  VAL127      0.1692
     52  C         31.0670   15.5890   12.6270 C.2   127  VAL127      0.2591
     53  O         31.4790   14.4850   12.8500 O.2   127  VAL127     -0.2718
     54  CB        30.9680   17.2110   14.6550 C.3   127  VAL127      0.0266
     55  CG1       29.4740   17.3710   14.4370 C.3   127  VAL127      0.0020
     56  CG2       31.2790   16.2780   15.7910 C.3   127  VAL127      0.0020
     57  N         30.1340   15.8130   11.7060 N.am  128  ALA128     -0.1980
     58  CA        29.6150   14.7240   10.8710 C.3   128  ALA128      0.1597
     59  C         30.6800   14.0350   10.0420 C.2   128  ALA128      0.2287
     60  O         30.6950   12.8080    9.9100 O.2   128  ALA128     -0.2864
     61  CB        28.4790   15.1880    9.9720 C.3   128  ALA128      0.0319
     62  N         32.3980   11.4040   12.1330 N.3   131  ALA131     -0.1245
     63  CA        31.6480   10.1990   12.2710 C.3   131  ALA131      0.1562
     64  C         31.7960    9.2570   11.0740 C.2   131  ALA131      0.2260
     65  O         31.8770    8.0360   11.2440 O.2   131  ALA131     -0.2867
     66  CB        30.1790   10.5380   12.4610 C.3   131  ALA131      0.0290
@<TRIPOS>BOND
     1     1     2    1
     2     7     5    1
     3    34    35    2
     4    34    33    1
     5    41    40   ar
     6    41    39   ar
     7    40    38   ar
     8     2     5    1
     9     2     3    1
    10    39    37   ar
    11    28    27    2
    12     5     6    1
    13    38    37   ar
    14    24    21    1
    15    37    36    1
    16    33    36    1
    17    33    32    1
    18     3     8   am
    19     3     4    2
    20    11    10    2
    21    27    32   am
    22    27    26    1
    23     8     9    1
    24    23    22    2
    25    21    22    1
    26    21    20    1
    27    22    25   am
    28    31    25    1
    29    31    30    1
    30    25    26    1
    31    20    15   am
    32    10     9    1
    33    10    13   am
    34     9    12    1
    35    26    29    1
    36    29    30    1
    37    15    16    2
    38    15    14    1
    39    60    59    2
    40    61    58    1
    41    59    58    1
    42    14    13    1
    43    14    17    1
    44    13    19    1
    45    49    48    1
    46    58    57    1
    47    64    65    2
    48    64    63    1
    49    44    45    2
    50    44    43    1
    51    17    18    1
    52    57    52   am
    53    19    18    1
    54    62    63    1
    55    63    66    1
    56    48    47    1
    57    50    51    1
    58    47    46    1
    59    46    43    1
    60    52    53    2
    61    52    51    1
    62    43    42    1
    63    51    54    1
    64    55    54    1
    65    54    56    1
