@<TRIPOS>MOLECULE
tmp/4xooC00.pdb
 115 110 0 0 0
SMALL
GASTEIGER

@<TRIPOS>ATOM
      1  N         38.9340   -2.3750   15.3850 N.3    12  ARG12      -0.1231
      2  CA        39.5900   -1.1870   14.8530 C.3    12  ARG12       0.1694
      3  C         40.7520   -0.7160   15.7530 C.2    12  ARG12       0.2592
      4  O         40.5640   -0.5490   16.9500 O.2    12  ARG12      -0.2718
      5  CB        38.5890   -0.0480   14.6630 C.3    12  ARG12       0.0321
      6  CG        39.1740    1.1210   13.8930 C.3    12  ARG12       0.0489
      7  CD        38.8100    2.4640   14.5530 C.3    12  ARG12       0.2205
      8  NE        39.4260    2.7010   15.8720 N.pl3  12  ARG12      -0.0865
      9  CZ        40.6450    3.2060   16.0750 C.cat  12  ARG12       0.5346
     10  NH1       41.4260    3.5620   15.0310 N.pl3  12  ARG12       0.1354
     11  NH2       41.0700    3.4040   17.3330 N.pl3  12  ARG12       0.1354
     12  N         41.9200   -0.4840   15.1380 N.am   13  ARG13      -0.1966
     13  CA        43.1550    0.0090   15.8080 C.3    13  ARG13       0.1729
     14  C         43.9050    0.9460   14.8130 C.2    13  ARG13       0.2616
     15  O         43.7480    0.8420   13.6030 O.2    13  ARG13      -0.2715
     16  CB        44.0470   -1.1660   16.2650 C.3    13  ARG13       0.0348
     17  CG        44.8120   -0.9030   17.5730 C.3    13  ARG13       0.0492
     18  CD        45.9090   -1.9290   17.9160 C.3    13  ARG13       0.2205
     19  NE        46.1820   -2.8210   16.7880 N.pl3  13  ARG13      -0.0865
     20  CZ        47.2060   -2.7420   15.9030 C.cat  13  ARG13       0.5346
     21  NH1       48.1570   -1.7950   15.9480 N.pl3  13  ARG13       0.1354
     22  NH2       47.2820   -3.6680   14.9350 N.pl3  13  ARG13       0.1354
     23  N         44.6930    1.8880   15.2980 N.am   14  SER14      -0.1950
     24  CA        45.5230    2.6630   14.3650 C.3    14  SER14       0.1924
     25  C         46.7380    1.8200   13.9990 C.2    14  SER14       0.2314
     26  O         47.6470    1.6830   14.8050 O.2    14  SER14      -0.2863
     27  CB        45.9750    3.9920   14.9790 C.3    14  SER14       0.2116
     28  OG        44.8620    4.7460   15.4110 O.3    14  SER14      -0.2180
     29  N         50.2230    1.2510   12.1350 N.3    16  ARG16      -0.1245
     30  CA        51.2900    2.0880   11.5630 C.3    16  ARG16       0.1563
     31  C         52.2490    1.3360   10.6450 C.2    16  ARG16       0.2260
     32  O         52.9880    1.9580    9.8830 O.2    16  ARG16      -0.2867
     33  CB        52.0290    2.8390   12.6760 C.3    16  ARG16       0.0307
     34  CG        51.0460    3.7070   13.4450 C.3    16  ARG16       0.0489
     35  CD        51.6610    4.8830   14.1830 C.3    16  ARG16       0.2205
     36  NE        50.6070    5.7760   14.6850 N.pl3  16  ARG16      -0.0865
     37  CZ        49.8240    5.5060   15.7340 C.cat  16  ARG16       0.5346
     38  NH1       49.9380    4.3660   16.4190 N.pl3  16  ARG16       0.1354
     39  NH2       48.9030    6.3760   16.1110 N.pl3  16  ARG16       0.1354
     40  N         57.5440   11.0160   10.8100 N.3    89  ARG89      -0.1245
     41  CA        56.2180   10.4590   11.1340 C.3    89  ARG89       0.1563
     42  C         55.1950   10.5050    9.9600 C.2    89  ARG89       0.2260
     43  O         54.1410    9.8530   10.0070 O.2    89  ARG89      -0.2867
     44  CB        55.6420   11.1740   12.3680 C.3    89  ARG89       0.0307
     45  CG        56.3730   10.8410   13.6510 C.3    89  ARG89       0.0489
     46  CD        55.7050   11.4800   14.8540 C.3    89  ARG89       0.2205
     47  NE        56.2810   11.0270   16.1200 N.pl3  89  ARG89      -0.0865
     48  CZ        57.4580   11.4240   16.5860 C.cat  89  ARG89       0.5346
     49  NH1       58.1850   12.2870   15.8960 N.pl3  89  ARG89       0.1354
     50  NH2       57.9260   10.9370   17.7270 N.pl3  89  ARG89       0.1354
     51  N         54.5760    7.0880    6.6920 N.3    92  ILE92      -0.1245
     52  CA        53.4460    6.1690    6.5390 C.3    92  ILE92       0.1561
     53  C         52.5170    6.4370    5.3180 C.2    92  ILE92       0.2260
     54  O         52.0380    5.4960    4.6810 O.2    92  ILE92      -0.2867
     55  CB        52.6180    6.1020    7.8470 C.3    92  ILE92       0.0252
     56  CG1       51.5600    4.9950    7.7570 C.3    92  ILE92       0.0019
     57  CG2       52.0080    7.4640    8.1770 C.3    92  ILE92       0.0019
     58  CD1       50.6460    4.9210    8.9670 C.3    92  ILE92       0.0001
     59  N         45.0200    4.0020    9.5130 N.3   148  CYS148     -0.1221
     60  CA        45.4960    4.9470   10.4790 C.3   148  CYS148      0.1808
     61  C         45.0970    6.3350    9.9900 C.2   148  CYS148      0.2601
     62  O         45.3580    6.7160    8.8660 O.2   148  CYS148     -0.2717
     63  CB        47.0470    4.8870   10.6550 C.3   148  CYS148      0.0970
     64  SG        47.6080    5.8990   12.0680 S.3   148  CYS148     -0.0800
     65  N         44.5190    7.1160   10.8670 N.am  149  TRP149     -0.1962
     66  CA        44.1100    8.4580   10.5260 C.3   149  TRP149      0.1771
     67  C         45.2580    9.4080   10.8480 C.2   149  TRP149      0.2619
     68  O         45.7400    9.4090   11.9660 O.2   149  TRP149     -0.2715
     69  CB        42.9030    8.7860   11.3480 C.3   149  TRP149      0.0590
     70  CG        42.1630    9.9920   10.9340 C.ar  149  TRP149      0.0006
     71  CD1       42.5070   10.9440   10.0050 C.ar  149  TRP149      0.0946
     72  CD2       40.9440   10.4020   11.4950 C.ar  149  TRP149      0.0152
     73  NE1       41.5360   11.9070    9.9410 N.ar  149  TRP149     -0.2442
     74  CE2       40.5720   11.6010   10.8680 C.ar  149  TRP149      0.0810
     75  CE3       40.1020    9.8480   12.4580 C.ar  149  TRP149      0.0012
     76  CZ2       39.3990   12.2530   11.1810 C.ar  149  TRP149      0.0191
     77  CZ3       38.9460   10.4960   12.7570 C.ar  149  TRP149      0.0001
     78  CH2       38.6000   11.6780   12.1140 C.ar  149  TRP149      0.0015
     79  N         45.7310   10.1490    9.8490 N.am  150  ILE150     -0.1963
     80  CA        46.8840   11.0040   10.0070 C.3   150  ILE150      0.1727
     81  C         46.3890   12.4470    9.7790 C.2   150  ILE150      0.2617
     82  O         45.7910   12.7260    8.7620 O.2   150  ILE150     -0.2715
     83  CB        48.0470   10.5630    9.0470 C.3   150  ILE150      0.0290
     84  CG1       48.9560    9.5090    9.7080 C.3   150  ILE150      0.0022
     85  CG2       48.9770   11.7340    8.7280 C.3   150  ILE150      0.0023
     86  CD1       48.4040    8.1160    9.7390 C.3   150  ILE150      0.0001
     87  N         46.6740   13.3580   10.7020 N.am  151  GLY151     -0.1940
     88  CA        46.0250   14.6660   10.7490 C.3   151  GLY151      0.2014
     89  C         46.5160   15.7460    9.7860 C.2   151  GLY151      0.2639
     90  O         45.8270   16.7650    9.5880 O.2   151  GLY151     -0.2714
     91  N         47.6600   15.4930    9.1410 N.am  152  SER152     -0.1949
     92  CA        48.4410   16.5250    8.4720 C.3   152  SER152      0.1924
     93  C         47.6850   17.3560    7.3910 C.2   152  SER152      0.2314
     94  O         47.8180   18.5820    7.3810 O.2   152  SER152     -0.2863
     95  CB        49.7740   15.9130    7.9140 C.3   152  SER152      0.2116
     96  OG        49.4790   14.9240    6.9470 O.3   152  SER152     -0.2180
     97  N         44.8750   18.5360    7.3830 N.3   154  ILE154     -0.1245
     98  CA        44.0820   19.5690    8.0650 C.3   154  ILE154      0.1561
     99  C         44.8850   20.8460    8.1640 C.2   154  ILE154      0.2260
    100  O         44.3410   21.9370    8.1090 O.2   154  ILE154     -0.2867
    101  CB        43.6180   19.1190    9.4740 C.3   154  ILE154      0.0252
    102  CG1       42.7420   17.8630    9.3740 C.3   154  ILE154      0.0019
    103  CG2       42.8080   20.2140   10.1590 C.3   154  ILE154      0.0019
    104  CD1       42.6620   17.0960   10.6760 C.3   154  ILE154      0.0001
    105  N         40.8290   -5.9730   21.2950 N.3   187  ARG187     -0.1245
    106  CA        40.8790   -4.9010   22.2980 C.3   187  ARG187      0.1563
    107  C         39.6670   -4.8710   23.2450 C.2   187  ARG187      0.2260
    108  O         38.5260   -4.8990   22.8060 O.2   187  ARG187     -0.2867
    109  CB        41.0330   -3.5420   21.6160 C.3   187  ARG187      0.0307
    110  CG        39.7670   -2.9080   21.0740 C.3   187  ARG187      0.0489
    111  CD        40.0910   -1.6620   20.2430 C.3   187  ARG187      0.2205
    112  NE        40.5940   -0.5150   21.0370 N.pl3 187  ARG187     -0.0865
    113  CZ        41.2680    0.5370   20.5520 C.cat 187  ARG187      0.5346
    114  NH1       41.5670    0.6290   19.2630 N.pl3 187  ARG187      0.1354
    115  NH2       41.6550    1.5130   21.3640 N.pl3 187  ARG187      0.1354
@<TRIPOS>BOND
     1    54    53    2
     2    53    52    1
     3    52    51    1
     4    52    55    1
     5    96    95    1
     6    94    93    2
     7    97    98    1
     8    93    92    1
     9    56    55    1
    10    56    58    1
    11    55    57    1
    12    95    92    1
    13    98    99    1
    14    98   101    1
    15   100    99    2
    16    92    91    1
    17    85    83    1
    18    82    81    2
    19    62    61    2
    20    83    84    1
    21    83    80    1
    22    91    89   am
    23   102   101    1
    24   102   104    1
    25   101   103    1
    26    59    60    1
    27    90    89    2
    28    84    86    1
    29    81    80    1
    30    81    87   am
    31    89    88    1
    32    79    80    1
    33    79    67   am
    34    32    31    2
    35    73    71   ar
    36    73    74   ar
    37    42    43    2
    38    42    41    1
    39    61    60    1
    40    61    65   am
    41    71    70   ar
    42    60    63    1
    43    66    67    1
    44    66    65    1
    45    66    69    1
    46    31    30    1
    47    63    64    1
    48    87    88    1
    49    40    41    1
    50    67    68    2
    51    74    76   ar
    52    74    72   ar
    53    70    69    1
    54    70    72   ar
    55    41    44    1
    56    76    78   ar
    57    72    75   ar
    58    30    29    1
    59    30    33    1
    60    78    77   ar
    61    44    45    1
    62    75    77   ar
    63    33    34    1
    64    34    35    1
    65    15    14    2
    66    45    46    1
    67     6     7    1
    68     6     5    1
    69    25    24    1
    70    25    26    2
    71    35    36    1
    72    24    27    1
    73    24    23    1
    74     7     8    1
    75     5     2    1
    76    36    37    2
    77    14    23   am
    78    14    13    1
    79     2     1    1
    80     2     3    1
    81    46    47    1
    82    22    20    1
    83    27    28    1
    84    10     9    1
    85    12     3   am
    86    12    13    1
    87    37    39    1
    88    37    38    1
    89     3     4    2
    90    13    16    1
    91     8     9    2
    92    49    48    1
    93    20    21    1
    94    20    19    2
    95     9    11    1
    96    47    48    2
    97    16    17    1
    98    48    50    1
    99    19    18    1
   100    17    18    1
   101   114   113    1
   102   111   112    1
   103   111   110    1
   104   113   112    2
   105   113   115    1
   106   110   109    1
   107   105   106    1
   108   109   106    1
   109   106   107    1
   110   108   107    2
