@<TRIPOS>MOLECULE
tmp/4xopA05.pdb
 128 123 0 0 0
SMALL
GASTEIGER

@<TRIPOS>ATOM
      1  N         27.4200   38.5060   37.9720 N.3   261  HIS261     -0.1241
      2  CA        26.3990   39.4180   38.3110 C.3   261  HIS261      0.1621
      3  C         24.9650   38.8870   38.1640 C.2   261  HIS261      0.2264
      4  O         23.9910   39.6390   38.2350 O.2   261  HIS261     -0.2867
      5  CB        26.5680   40.7270   37.5690 C.3   261  HIS261      0.0745
      6  CG        27.6120   41.6530   38.1250 C.ar  261  HIS261      0.0817
      7  ND1       27.4850   43.0250   38.0600 N.ar  261  HIS261     -0.2268
      8  CD2       28.7880   41.4260   38.7560 C.ar  261  HIS261      0.1154
      9  CE1       28.5530   43.6010   38.5770 C.ar  261  HIS261      0.1986
     10  NE2       29.3750   42.6480   38.9860 N.ar  261  HIS261     -0.2212
     11  N         34.2660   40.0440   41.2650 N.3   280  TYR280     -0.1241
     12  CA        33.0700   40.5120   41.9600 C.3   280  TYR280      0.1605
     13  C         31.9500   39.4740   41.8620 C.2   280  TYR280      0.2264
     14  O         31.7180   38.8950   40.7940 O.2   280  TYR280     -0.2867
     15  CB        32.5820   41.8540   41.4510 C.3   280  TYR280      0.0534
     16  CG        33.5070   43.0100   41.7110 C.ar  280  TYR280     -0.0201
     17  CD1       34.6050   43.2640   40.8950 C.ar  280  TYR280     -0.0009
     18  CD2       33.2680   43.8920   42.7900 C.ar  280  TYR280     -0.0009
     19  CE1       35.4120   44.3680   41.1000 C.ar  280  TYR280      0.0417
     20  CE2       34.1140   45.0000   43.0120 C.ar  280  TYR280      0.0417
     21  CZ        35.1820   45.2070   42.1720 C.ar  280  TYR280      0.1957
     22  OH        36.0040   46.2650   42.3960 O.3   280  TYR280     -0.2866
     23  N         28.0900   39.8560   42.6910 N.3   282  VAL282     -0.1245
     24  CA        27.3070   41.0680   42.9550 C.3   282  VAL282      0.1561
     25  C         25.8930   40.9070   42.4060 C.2   282  VAL282      0.2260
     26  O         25.7190   40.3510   41.2870 O.2   282  VAL282     -0.2867
     27  CB        27.9830   42.3190   42.3620 C.3   282  VAL282      0.0252
     28  CG1       27.0390   43.5370   42.2630 C.3   282  VAL282      0.0019
     29  CG2       29.2400   42.6600   43.1920 C.3   282  VAL282      0.0019
     30  N         23.5260   43.8410   41.3710 N.3   284  HIS284     -0.1241
     31  CA        23.2020   45.2450   41.1810 C.3   284  HIS284      0.1621
     32  C         21.6800   45.3210   40.9010 C.2   284  HIS284      0.2264
     33  O         21.1780   44.7180   39.9190 O.2   284  HIS284     -0.2867
     34  CB        23.8610   45.8010   39.9420 C.3   284  HIS284      0.0745
     35  CG        25.2580   46.2750   40.1400 C.ar  284  HIS284      0.0817
     36  ND1       25.6830   46.9460   41.2610 N.ar  284  HIS284     -0.2268
     37  CD2       26.3350   46.2070   39.3150 C.ar  284  HIS284      0.1154
     38  CE1       26.9290   47.3320   41.0940 C.ar  284  HIS284      0.1986
     39  NE2       27.3570   46.8750   39.9320 N.ar  284  HIS284     -0.2212
     40  N         34.9340   39.8940   45.8270 N.3   313  ILE313     -0.1231
     41  CA        34.2170   40.9860   46.4070 C.3   313  ILE313      0.1692
     42  C         32.7190   40.6630   46.3400 C.2   313  ILE313      0.2592
     43  O         32.1780   40.4770   45.2510 O.2   313  ILE313     -0.2718
     44  CB        34.4360   42.3450   45.7250 C.3   313  ILE313      0.0266
     45  CG1       35.9220   42.7260   45.6060 C.3   313  ILE313      0.0019
     46  CG2       33.6400   43.4250   46.3800 C.3   313  ILE313      0.0020
     47  CD1       36.7160   42.1050   44.4610 C.3   313  ILE313      0.0001
     48  N         32.0470   40.7550   47.4850 N.am  314  LEU314     -0.1966
     49  CA        30.6020   40.4860   47.5980 C.3   314  LEU314      0.1731
     50  C         29.8570   41.8000   47.7800 C.2   314  LEU314      0.2656
     51  O         30.3160   42.6580   48.5150 O.2   314  LEU314     -0.2711
     52  CB        30.3020   39.5760   48.8050 C.3   314  LEU314      0.0311
     53  CG        31.0900   38.2520   48.8730 C.3   314  LEU314      0.0022
     54  CD1       30.7700   37.4880   50.1500 C.3   314  LEU314      0.0001
     55  CD2       30.9130   37.4250   47.6300 C.3   314  LEU314      0.0001
     56  N         28.7030   41.9070   47.1440 N.am  315  GLY315     -0.1716
     57  CA        27.8500   43.0200   47.3160 C.2   315  GLY315      0.1480
     58  C         26.4790   42.8920   46.7320 C.2   315  GLY315      0.2821
     59  O         26.2060   42.0100   45.8750 O.2   315  GLY315     -0.2669
     60  N         25.6190   43.8140   47.1800 N.am  316  SER316     -0.1901
     61  CA        24.3340   43.9810   46.5910 C.3   316  SER316      0.2058
     62  C         23.8570   45.3880   46.9160 C.2   316  SER316      0.2643
     63  O         24.3020   46.0350   47.9090 O.2   316  SER316     -0.2714
     64  CB        23.3090   42.8980   47.0050 C.3   316  SER316      0.2130
     65  OG        22.6970   43.1780   48.2590 O.3   316  SER316     -0.2179
     66  N         22.9730   45.9000   46.0580 N.am  317  ASP317     -0.1971
     67  CA        22.5270   47.2890   46.2460 C.3   317  ASP317      0.1709
     68  C         21.1300   47.5160   45.7100 C.2   317  ASP317      0.2293
     69  O         20.4550   46.5420   45.3550 O.2   317  ASP317     -0.2864
     70  CB        23.5840   48.2010   45.6400 C.3   317  ASP317      0.1436
     71  CG        23.8380   47.9130   44.1750 C.2   317  ASP317      0.3671
     72  OD1       22.8880   47.6390   43.4570 O.co2 317  ASP317     -0.2456
     73  OD2       25.0350   47.9540   43.7780 O.co2 317  ASP317     -0.2456
     74  N         36.0930   40.5320   50.3560 N.3   353  ASP353     -0.1239
     75  CA        35.7290   41.9060   50.6890 C.3   353  ASP353      0.1674
     76  C         34.2060   42.0270   50.6620 C.2   353  ASP353      0.2266
     77  O         33.5680   41.4810   49.7520 O.2   353  ASP353     -0.2867
     78  CB        36.3200   42.9680   49.7460 C.3   353  ASP353      0.1410
     79  CG        35.9270   44.3780   50.1240 C.2   353  ASP353      0.3668
     80  OD1       36.0030   44.7880   51.3450 O.co2 353  ASP353     -0.2456
     81  OD2       35.6040   45.1710   49.1960 O.co2 353  ASP353     -0.2456
     82  N         31.8780   44.7370   50.0580 N.3   355  GLY355     -0.1210
     83  CA        32.1880   46.0810   49.5730 C.3   355  GLY355      0.1940
     84  C         30.9680   46.9660   49.5620 C.2   355  GLY355      0.2454
     85  O         29.9240   46.5710   49.0610 O.2   355  GLY355     -0.2732
     86  N         31.1290   48.2240   50.0120 N.am  356  PRO356     -0.2717
     87  CA        30.0340   49.1900   49.9460 C.3   356  PRO356      0.1535
     88  C         29.6870   49.4990   48.4840 C.2   356  PRO356      0.2599
     89  O         30.5300   49.2350   47.5940 O.2   356  PRO356     -0.2715
     90  CB        30.6110   50.4090   50.6050 C.3   356  PRO356      0.0310
     91  CG        31.7060   49.8840   51.4580 C.3   356  PRO356      0.0237
     92  CD        32.2940   48.7710   50.7120 C.3   356  PRO356      0.0939
     93  N         28.5020   50.0500   48.2470 N.am  357  ASP357     -0.1958
     94  CA        28.0800   50.2360   46.8530 C.3   357  ASP357      0.1840
     95  C         28.9070   51.3380   46.1940 C.2   357  ASP357      0.2622
     96  O         29.8370   51.8900   46.8200 O.2   357  ASP357     -0.2715
     97  CB        26.5390   50.4470   46.7630 C.3   357  ASP357      0.1450
     98  CG        26.0850   51.8780   47.2120 C.2   357  ASP357      0.3671
     99  OD1       26.9780   52.7530   47.4810 O.co2 357  ASP357     -0.2456
    100  OD2       24.8310   52.1080   47.3650 O.co2 357  ASP357     -0.2456
    101  N         28.6080   51.5880   44.9080 N.am  358  ASN358     -0.1972
    102  CA        29.4480   52.4890   44.1330 C.3   358  ASN358      0.1688
    103  C         29.4130   53.9440   44.6580 C.2   358  ASN358      0.2292
    104  O         30.2830   54.7010   44.3470 O.2   358  ASN358     -0.2864
    105  CB        29.0990   52.4150   42.6280 C.3   358  ASN358      0.1181
    106  CG        29.7290   51.1810   41.9250 C.2   358  ASN358      0.2629
    107  OD1       30.8410   50.8000   42.2670 O.2   358  ASN358     -0.2716
    108  ND2       29.0410   50.6080   40.9150 N.am  358  ASN358     -0.0877
    109  N         23.0460   46.5590   51.5800 N.3   365  GLN365     -0.1245
    110  CA        23.4150   45.2420   51.1460 C.3   365  GLN365      0.1566
    111  C         22.5050   44.1710   51.7980 C.2   365  GLN365      0.2260
    112  O         22.1080   44.3150   52.9660 O.2   365  GLN365     -0.2867
    113  CB        24.8300   44.9850   51.6070 C.3   365  GLN365      0.0367
    114  CG        25.8800   45.7560   50.8510 C.3   365  GLN365      0.0905
    115  CD        25.9720   47.2260   51.2080 C.2   365  GLN365      0.2608
    116  OE1       25.5380   47.6890   52.2770 O.2   365  GLN365     -0.2717
    117  NE2       26.5520   47.9690   50.3090 N.am  365  GLN365     -0.0878
    118  N         33.2670   45.5180   55.2630 N.3   392  ARG392     -0.1245
    119  CA        33.0900   46.9650   55.2040 C.3   392  ARG392      0.1563
    120  C         31.6500   47.4340   54.9780 C.2   392  ARG392      0.2260
    121  O         31.4050   48.6620   54.9640 O.2   392  ARG392     -0.2867
    122  CB        33.9740   47.5320   54.1040 C.3   392  ARG392      0.0307
    123  CG        35.4280   47.0700   54.1820 C.3   392  ARG392      0.0489
    124  CD        36.3390   47.8550   53.2190 C.3   392  ARG392      0.2205
    125  NE        36.0280   47.5240   51.8430 N.pl3 392  ARG392     -0.0865
    126  CZ        35.6510   48.3410   50.8600 C.cat 392  ARG392      0.5346
    127  NH1       35.5490   49.6370   51.0930 N.pl3 392  ARG392      0.1354
    128  NH2       35.4400   47.8470   49.6300 N.pl3 392  ARG392      0.1354
@<TRIPOS>BOND
     1     5     6    1
     2     5     2    1
     3     1     2    1
     4     7     6   ar
     5     7     9   ar
     6     6     8   ar
     7     3     4    2
     8     3     2    1
     9     9    10   ar
    10     8    10   ar
    11    37    39   ar
    12    37    35   ar
    13    33    32    2
    14    39    38   ar
    15    34    35    1
    16    34    31    1
    17    35    36   ar
    18    14    13    2
    19    17    19   ar
    20    17    16   ar
    21    32    31    1
    22   108   106   am
    23    38    36   ar
    24    19    21   ar
    25    31    30    1
    26    11    12    1
    27    26    25    2
    28    15    16    1
    29    15    12    1
    30    16    18   ar
    31    13    12    1
    32   106   107    2
    33   106   105    1
    34    21    22    1
    35    21    20   ar
    36    28    27    1
    37    27    24    1
    38    27    29    1
    39    25    24    1
    40   105   102    1
    41    23    24    1
    42    18    20   ar
    43    72    71   ar
    44    73    71   ar
    45   102   103    1
    46   102   101    1
    47    71    70    1
    48   104   103    2
    49    47    45    1
    50   101    95   am
    51    43    42    2
    52    69    68    2
    53    45    44    1
    54    70    67    1
    55    68    67    1
    56    44    46    1
    57    44    41    1
    58    40    41    1
    59    59    58    2
    60    66    67    1
    61    66    62   am
    62    95    96    2
    63    95    94    1
    64    42    41    1
    65    42    48   am
    66    61    62    1
    67    61    64    1
    68    61    60    1
    69    58    60   am
    70    58    57    1
    71    97    94    1
    72    97    98    1
    73    94    93    1
    74    62    63    2
    75    64    65    1
    76    56    57    2
    77    56    50    1
    78    98   100   ar
    79    98    99   ar
    80    48    49    1
    81    89    88    2
    82    49    50    1
    83    49    52    1
    84    55    53    1
    85    50    51    2
    86    93    88   am
    87    88    87    1
    88    52    53    1
    89    53    54    1
    90    85    84    2
    91    81    79   ar
    92    84    83    1
    93    84    86   am
    94    83    82    1
    95   128   126    1
    96    78    79    1
    97    78    75    1
    98    77    76    2
    99    87    86    1
   100    87    90    1
   101    86    92    1
   102    79    80   ar
   103   117   115   am
   104    74    75    1
   105    90    91    1
   106    76    75    1
   107    92    91    1
   108   114   115    1
   109   114   113    1
   110   126   127    1
   111   126   125    2
   112   110   109    1
   113   110   113    1
   114   110   111    1
   115   115   116    2
   116   111   112    2
   117   125   124    1
   118   124   123    1
   119   122   123    1
   120   122   119    1
   121   121   120    2
   122   120   119    1
   123   119   118    1
