@<TRIPOS>MOLECULE
tmp/4xoqB01.pdb
 132 126 0 0 0
SMALL
GASTEIGER

@<TRIPOS>ATOM
      1  N         48.7470   18.1050   55.4150 N.3    66  LEU66      -0.1245
      2  CA        48.8720   17.1270   54.3220 C.3    66  LEU66       0.1561
      3  C         47.8060   16.0130   54.3490 C.2    66  LEU66       0.2260
      4  O         47.2590   15.6530   53.2950 O.2    66  LEU66      -0.2867
      5  CB        50.2600   16.5060   54.3360 C.3    66  LEU66       0.0270
      6  CG        51.3700   17.5060   54.0440 C.3    66  LEU66       0.0019
      7  CD1       52.7570   16.8860   54.1760 C.3    66  LEU66       0.0001
      8  CD2       51.1590   18.1100   52.6650 C.3    66  LEU66       0.0001
      9  N         44.6860   17.5160   53.1960 N.3    69  MET69      -0.1230
     10  CA        44.7800   17.7120   51.7430 C.3    69  MET69       0.1702
     11  C         44.5320   16.4030   50.9870 C.2    69  MET69       0.2592
     12  O         43.7480   16.3770   50.0340 O.2    69  MET69      -0.2718
     13  CB        46.1200   18.3210   51.3460 C.3    69  MET69       0.0401
     14  CG        46.2610   19.8020   51.7360 C.3    69  MET69       0.0596
     15  SD        47.9640   20.4240   51.6340 S.3    69  MET69      -0.1393
     16  CE        48.3300   19.9580   49.9210 C.3    69  MET69       0.0692
     17  N         45.1560   15.3210   51.4600 N.am   70  LYS70      -0.1980
     18  CA        45.0420   13.9940   50.8040 C.3    70  LYS70       0.1596
     19  C         43.5880   13.5310   50.7340 C.2    70  LYS70       0.2287
     20  O         43.1010   13.0490   49.7180 O.2    70  LYS70      -0.2864
     21  CB        45.8580   12.9510   51.5620 C.3    70  LYS70       0.0298
     22  CG        45.9950   11.6390   50.8140 C.3    70  LYS70       0.0038
     23  CD        46.4310   10.5120   51.7030 C.3    70  LYS70       0.0206
     24  CE        47.7490   10.8350   52.3330 C.3    70  LYS70       0.1093
     25  NZ        48.2190    9.6730   53.0950 N.3    70  LYS70      -0.1314
     26  N         40.9070   15.4050   50.8410 N.3    72  LYS72      -0.1231
     27  CA        40.1840   16.1600   49.8410 C.3    72  LYS72       0.1693
     28  C         40.5130   15.6390   48.4270 C.2    72  LYS72       0.2592
     29  O         39.6290   15.5250   47.5910 O.2    72  LYS72      -0.2718
     30  CB        40.5000   17.6480   49.9540 C.3    72  LYS72       0.0285
     31  CG        39.7370   18.5280   48.9660 C.3    72  LYS72       0.0035
     32  CD        40.3410   19.9220   48.8950 C.3    72  LYS72       0.0206
     33  CE        39.8690   20.6870   47.6640 C.3    72  LYS72       0.1093
     34  NZ        38.3960   20.7890   47.7100 N.3    72  LYS72      -0.1314
     35  N         41.7880   15.3230   48.2050 N.am   73  TRP73      -0.1976
     36  CA        42.2900   14.8240   46.9200 C.3    73  TRP73       0.1640
     37  C         41.5690   13.5790   46.5010 C.2    73  TRP73       0.2290
     38  O         41.0120   13.5410   45.4090 O.2    73  TRP73      -0.2864
     39  CB        43.7950   14.5430   47.0110 C.3    73  TRP73       0.0576
     40  CG        44.5690   14.5610   45.7440 C.ar   73  TRP73       0.0006
     41  CD1       44.0840   14.6210   44.4660 C.ar   73  TRP73       0.0946
     42  CD2       45.9990   14.4870   45.6310 C.ar   73  TRP73       0.0152
     43  NE1       45.1280   14.6120   43.5690 N.ar   73  TRP73      -0.2442
     44  CE2       46.3110   14.5090   44.2580 C.ar   73  TRP73       0.0810
     45  CE3       47.0460   14.4090   46.5630 C.ar   73  TRP73       0.0012
     46  CZ2       47.6340   14.4620   43.7870 C.ar   73  TRP73       0.0191
     47  CZ3       48.3590   14.3530   46.0970 C.ar   73  TRP73       0.0001
     48  CH2       48.6370   14.3910   44.7130 C.ar   73  TRP73       0.0015
     49  N         37.9440   14.3440   45.6240 N.3    76  ASP76      -0.1225
     50  CA        37.7500   14.9530   44.3070 C.3    76  ASP76       0.1805
     51  C         37.8510   13.8770   43.1980 C.2    76  ASP76       0.2597
     52  O         36.9770   13.7540   42.3220 O.2    76  ASP76      -0.2718
     53  CB        38.8080   16.0380   44.0610 C.3    76  ASP76       0.1424
     54  CG        38.5530   17.3320   44.8580 C.2    76  ASP76       0.3668
     55  OD1       37.5140   17.4490   45.5680 O.co2  76  ASP76      -0.2456
     56  OD2       39.4250   18.2430   44.7440 O.co2  76  ASP76      -0.2456
     57  N         38.9180   13.0860   43.2590 N.am   77  LEU77      -0.1979
     58  CA        39.1790   12.0680   42.2320 C.3    77  LEU77       0.1596
     59  C         38.1150   10.9910   42.2160 C.2    77  LEU77       0.2287
     60  O         37.7720   10.4600   41.1580 O.2    77  LEU77      -0.2864
     61  CB        40.5810   11.4710   42.4090 C.3    77  LEU77       0.0297
     62  CG        41.7290   12.4450   42.1530 C.3    77  LEU77       0.0022
     63  CD1       43.0900   11.8260   42.4440 C.3    77  LEU77       0.0001
     64  CD2       41.6770   12.9550   40.7270 C.3    77  LEU77       0.0001
     65  N         47.8750    8.6890   41.7430 N.3    90  ARG90      -0.1245
     66  CA        47.9510   10.1600   41.7230 C.3    90  ARG90       0.1563
     67  C         48.2800   10.7240   43.0780 C.2    90  ARG90       0.2260
     68  O         49.1290   11.5930   43.2140 O.2    90  ARG90      -0.2867
     69  CB        46.6520   10.7870   41.2450 C.3    90  ARG90       0.0307
     70  CG        46.4820   10.7030   39.7420 C.3    90  ARG90       0.0489
     71  CD        45.0290   10.9040   39.3480 C.3    90  ARG90       0.2205
     72  NE        44.8620   10.8200   37.9050 N.pl3  90  ARG90      -0.0865
     73  CZ        45.0090    9.7060   37.1800 C.cat  90  ARG90       0.5346
     74  NH1       45.3270    8.5270   37.7340 N.pl3  90  ARG90       0.1354
     75  NH2       44.8380    9.7620   35.8670 N.pl3  90  ARG90       0.1354
     76  N         51.9300   10.7650   44.4010 N.3    93  ARG93      -0.1231
     77  CA        52.8540   11.7710   43.9230 C.3    93  ARG93       0.1694
     78  C         53.0970   12.8350   45.0140 C.2    93  ARG93       0.2592
     79  O         54.1010   13.5210   44.9910 O.2    93  ARG93      -0.2718
     80  CB        52.3700   12.3770   42.5930 C.3    93  ARG93       0.0321
     81  CG        52.4670   11.2750   41.5310 C.3    93  ARG93       0.0489
     82  CD        51.9940   11.7440   40.1790 C.3    93  ARG93       0.2205
     83  NE        50.5460   12.0410   40.2400 N.pl3  93  ARG93      -0.0865
     84  CZ        50.2770   13.3350   40.3240 C.cat  93  ARG93       0.5346
     85  NH1       51.3340   14.1270   40.4180 N.pl3  93  ARG93       0.1354
     86  NH2       49.0710   13.7070   40.5200 N.pl3  93  ARG93       0.1354
     87  N         52.2070   12.9330   45.9980 N.am   94  GLY94      -0.1957
     88  CA        52.3340   13.9400   47.0420 C.3    94  GLY94       0.1869
     89  C         53.1890   13.5150   48.2210 C.2    94  GLY94       0.2309
     90  O         53.4230   14.3100   49.1330 O.2    94  GLY94      -0.2863
     91  N         56.1220   15.5080   50.0510 N.3    97  LEU97      -0.1245
     92  CA        55.9210   16.5280   51.0730 C.3    97  LEU97       0.1561
     93  C         55.9150   15.9480   52.4870 C.2    97  LEU97       0.2260
     94  O         56.2380   16.6630   53.4370 O.2    97  LEU97      -0.2867
     95  CB        54.6450   17.3350   50.8180 C.3    97  LEU97       0.0270
     96  CG        54.6120   18.1130   49.4980 C.3    97  LEU97       0.0019
     97  CD1       53.3170   18.8900   49.3600 C.3    97  LEU97       0.0001
     98  CD2       55.8100   19.0380   49.3770 C.3    97  LEU97       0.0001
     99  N         55.8980   22.2140   44.1600 N.3   154  ILE154     -0.1231
    100  CA        54.7710   21.3550   43.8370 C.3   154  ILE154      0.1692
    101  C         53.4890   22.1980   43.9790 C.2   154  ILE154      0.2593
    102  O         53.2800   22.8280   45.0170 O.2   154  ILE154     -0.2718
    103  CB        54.7090   20.1910   44.8820 C.3   154  ILE154      0.0266
    104  CG1       56.0130   19.3990   44.9160 C.3   154  ILE154      0.0019
    105  CG2       53.5600   19.2450   44.6190 C.3   154  ILE154      0.0020
    106  CD1       56.4570   18.8350   43.5720 C.3   154  ILE154      0.0001
    107  N         52.6160   22.1800   42.9760 N.am  155  GLY155     -0.1942
    108  CA        51.4090   23.0040   42.9840 C.3   155  GLY155      0.2014
    109  C         50.4280   22.7200   44.1260 C.2   155  GLY155      0.2639
    110  O         49.7160   23.6110   44.5750 O.2   155  GLY155     -0.2714
    111  N         50.3570   21.4600   44.5220 N.am  156  SER156     -0.1949
    112  CA        49.7490   21.0190   45.7460 C.3   156  SER156      0.1924
    113  C         48.7010   21.9410   46.3870 C.2   156  SER156      0.2314
    114  O         47.5220   21.8610   46.0720 O.2   156  SER156     -0.2863
    115  CB        50.8930   20.7470   46.7750 C.3   156  SER156      0.2116
    116  OG        51.6810   21.9430   46.9700 O.3   156  SER156     -0.2180
    117  N         45.3120   23.7530   45.0550 N.3   159  PHE159     -0.1227
    118  CA        44.0710   23.0140   44.9490 C.3   159  PHE159      0.1736
    119  C         43.3450   22.7790   46.2910 C.2   159  PHE159      0.2595
    120  O         42.3060   22.1370   46.3030 O.2   159  PHE159     -0.2718
    121  CB        44.3350   21.6560   44.2870 C.3   159  PHE159      0.0547
    122  CG        44.7470   21.7630   42.8540 C.ar  159  PHE159     -0.0202
    123  CD1       46.0290   22.1640   42.5160 C.ar  159  PHE159     -0.0042
    124  CD2       43.8560   21.4780   41.8510 C.ar  159  PHE159     -0.0042
    125  CE1       46.4100   22.2850   41.1960 C.ar  159  PHE159     -0.0003
    126  CE2       44.2260   21.5800   40.5220 C.ar  159  PHE159     -0.0003
    127  CZ        45.5050   21.9850   40.1990 C.ar  159  PHE159     -0.0000
    128  N         43.8610   23.2900   47.4090 N.am  160  ALA160     -0.1980
    129  CA        43.1660   23.1560   48.6980 C.3   160  ALA160      0.1597
    130  C         43.3470   24.3930   49.5920 C.2   160  ALA160      0.2287
    131  O         43.7410   24.2830   50.7600 O.2   160  ALA160     -0.2864
    132  CB        43.6770   21.9120   49.4110 C.3   160  ALA160      0.0319
@<TRIPOS>BOND
     1    75    73    1
     2    73    74    1
     3    73    72    2
     4    72    71    1
     5    71    70    1
     6    70    69    1
     7    82    83    1
     8    82    81    1
     9   127   126   ar
    10   127   125   ar
    11    83    84    2
    12    84    85    1
    13    84    86    1
    14   126   124   ar
    15    64    62    1
    16    60    59    2
    17   125   123   ar
    18    69    66    1
    19    81    80    1
    20    66    65    1
    21    66    67    1
    22   124   122   ar
    23    62    61    1
    24    62    63    1
    25    59    58    1
    26    58    61    1
    27    58    57    1
    28    52    51    2
    29   123   122   ar
    30    80    77    1
    31   122   121    1
    32   107   108    1
    33   107   101   am
    34   108   109    1
    35    67    68    2
    36    51    57   am
    37    51    50    1
    38    43    44   ar
    39    43    41   ar
    40   106   104    1
    41    46    44   ar
    42    46    48   ar
    43   100   101    1
    44   100    99    1
    45   100   103    1
    46    77    76    1
    47    77    78    1
    48   101   102    2
    49    53    50    1
    50    53    54    1
    51   109   111   am
    52   109   110    2
    53    44    42   ar
    54   121   118    1
    55    50    49    1
    56    41    40   ar
    57   111   112    1
    58   105   103    1
    59    48    47   ar
    60    56    54   ar
    61    54    55   ar
    62   103   104    1
    63   118   117    1
    64   118   119    1
    65    79    78    2
    66    78    87   am
    67    38    37    2
    68    42    40   ar
    69    42    45   ar
    70    40    39    1
    71   112   113    1
    72   112   115    1
    73    87    88    1
    74   114   113    2
    75    47    45   ar
    76   119   120    2
    77   119   128   am
    78    37    36    1
    79   115   116    1
    80    36    39    1
    81    36    35    1
    82    88    89    1
    83   128   129    1
    84    29    28    2
    85    33    34    1
    86    33    32    1
    87    35    28   am
    88    89    90    2
    89    28    27    1
    90   129   132    1
    91   129   130    1
    92    32    31    1
    93    31    30    1
    94    97    96    1
    95    98    96    1
    96    96    95    1
    97   130   131    2
    98    20    19    2
    99    27    30    1
   100    27    26    1
   101    16    15    1
   102    12    11    2
   103    91    92    1
   104    19    18    1
   105    18    17    1
   106    18    21    1
   107    22    21    1
   108    22    23    1
   109    95    92    1
   110    11    17   am
   111    11    10    1
   112    92    93    1
   113    13    14    1
   114    13    10    1
   115    15    14    1
   116    23    24    1
   117    10     9    1
   118    24    25    1
   119    93    94    2
   120     8     6    1
   121     4     3    2
   122     6     7    1
   123     6     5    1
   124     2     5    1
   125     2     3    1
   126     2     1    1
