@<TRIPOS>MOLECULE
tmp/4xoqD01.pdb
 121 116 0 0 0
SMALL
GASTEIGER

@<TRIPOS>ATOM
      1  N         17.2150   22.7810   28.2950 N.3    61  LEU61      -0.1245
      2  CA        16.3840   22.7330   27.0750 C.3    61  LEU61       0.1561
      3  C         15.4760   23.9500   26.9510 C.2    61  LEU61       0.2260
      4  O         15.3440   24.5250   25.8670 O.2    61  LEU61      -0.2867
      5  CB        15.5990   21.4290   27.0020 C.3    61  LEU61       0.0270
      6  CG        16.4460   20.1500   26.8480 C.3    61  LEU61       0.0019
      7  CD1       15.5450   18.9390   26.9860 C.3    61  LEU61       0.0001
      8  CD2       17.2330   20.0820   25.5420 C.3    61  LEU61       0.0001
      9  N         17.5890   26.9180   25.9300 N.3    64  MET64      -0.1230
     10  CA        17.9220   26.7230   24.5440 C.3    64  MET64       0.1702
     11  C         16.7480   27.0540   23.6280 C.2    64  MET64       0.2592
     12  O         16.9080   27.7770   22.6360 O.2    64  MET64      -0.2718
     13  CB        18.4220   25.3080   24.3250 C.3    64  MET64       0.0401
     14  CG        19.8610   25.0890   24.8030 C.3    64  MET64       0.0596
     15  SD        20.2370   23.3030   24.7060 S.3    64  MET64      -0.1393
     16  CE        20.2620   23.1730   22.9120 C.3    64  MET64       0.0692
     17  N         15.5580   26.5900   23.9810 N.am   65  LYS65      -0.1980
     18  CA        14.4050   26.8060   23.1200 C.3    65  LYS65       0.1596
     19  C         14.1110   28.3180   23.0170 C.2    65  LYS65       0.2287
     20  O         13.6920   28.8120   21.9790 O.2    65  LYS65      -0.2864
     21  CB        13.1980   26.0510   23.6720 C.3    65  LYS65       0.0298
     22  CG        11.9240   26.2160   22.8590 C.3    65  LYS65       0.0038
     23  CD        10.6920   25.7450   23.6120 C.3    65  LYS65       0.0206
     24  CE        10.7250   24.2720   23.9300 C.3    65  LYS65       0.1093
     25  NZ         9.5500   23.8700   24.7350 N.3    65  LYS65      -0.1314
     26  N         16.2490   30.8910   23.2860 N.3    67  LYS67      -0.1231
     27  CA        17.2130   31.4440   22.3700 C.3    67  LYS67       0.1693
     28  C         16.8790   31.0920   20.9110 C.2    67  LYS67       0.2592
     29  O         16.9760   31.9380   20.0060 O.2    67  LYS67      -0.2718
     30  CB        18.5800   30.9050   22.6700 C.3    67  LYS67       0.0285
     31  CG        19.6310   31.4300   21.7310 C.3    67  LYS67       0.0035
     32  CD        20.9840   30.9040   22.1160 C.3    67  LYS67       0.0206
     33  CE        22.0900   31.5430   21.2890 C.3    67  LYS67       0.1093
     34  NZ        22.0560   31.0740   19.8820 N.3    67  LYS67      -0.1314
     35  N         16.5360   29.8370   20.6880 N.am   68  TRP68      -0.1976
     36  CA        16.1610   29.3900   19.3600 C.3    68  TRP68       0.1640
     37  C         15.0180   30.2650   18.8040 C.2    68  TRP68       0.2290
     38  O         15.0970   30.7400   17.6810 O.2    68  TRP68      -0.2864
     39  CB        15.7530   27.9240   19.4200 C.3    68  TRP68       0.0576
     40  CG        15.7420   27.1780   18.1350 C.ar   68  TRP68       0.0006
     41  CD1       16.0090   27.6570   16.8740 C.ar   68  TRP68       0.0946
     42  CD2       15.4190   25.7980   17.9740 C.ar   68  TRP68       0.0152
     43  NE1       15.8770   26.6510   15.9550 N.ar   68  TRP68      -0.2442
     44  CE2       15.5080   25.5020   16.6030 C.ar   68  TRP68       0.0810
     45  CE3       15.0570   24.7840   18.8590 C.ar   68  TRP68       0.0012
     46  CZ2       15.2510   24.2330   16.1000 C.ar   68  TRP68       0.0191
     47  CZ3       14.8150   23.5350   18.3620 C.ar   68  TRP68       0.0001
     48  CH2       14.9180   23.2650   16.9890 C.ar   68  TRP68       0.0015
     49  N         16.2970   33.8580   18.0930 N.3    71  ASP71      -0.1225
     50  CA        17.1090   33.8690   16.8770 C.3    71  ASP71       0.1805
     51  C         16.1870   33.8440   15.6440 C.2    71  ASP71       0.2597
     52  O         16.3060   34.6920   14.7480 O.2    71  ASP71      -0.2718
     53  CB        18.0680   32.6770   16.8200 C.3    71  ASP71       0.1424
     54  CG        19.2310   32.7960   17.7730 C.2    71  ASP71       0.3668
     55  OD1       19.3850   33.8640   18.4150 O.co2  71  ASP71      -0.2456
     56  OD2       19.9890   31.8010   17.8890 O.co2  71  ASP71      -0.2456
     57  N         15.2570   32.8910   15.6060 N.am   72  LEU72      -0.1979
     58  CA        14.3610   32.7830   14.4510 C.3    72  LEU72       0.1596
     59  C         13.4130   33.9590   14.3030 C.2    72  LEU72       0.2287
     60  O         13.0100   34.2780   13.1780 O.2    72  LEU72      -0.2864
     61  CB        13.5650   31.4850   14.5060 C.3    72  LEU72       0.0297
     62  CG        14.3250   30.1700   14.4080 C.3    72  LEU72       0.0022
     63  CD1       13.3420   29.0190   14.5510 C.3    72  LEU72       0.0001
     64  CD2       15.0880   30.0910   13.0870 C.3    72  LEU72       0.0001
     65  N         10.9480   20.0540   16.3790 N.3    88  ARG88      -0.1231
     66  CA        12.0240   19.0880   16.1350 C.3    88  ARG88       0.1694
     67  C         12.9320   18.8140   17.3350 C.2    88  ARG88       0.2592
     68  O         13.6110   17.7950   17.3740 O.2    88  ARG88      -0.2718
     69  CB        12.9030   19.5870   14.9840 C.3    88  ARG88       0.0321
     70  CG        12.1150   19.4450   13.6640 C.3    88  ARG88       0.0489
     71  CD        13.0670   19.5580   12.4960 C.3    88  ARG88       0.2205
     72  NE        13.7140   20.8480   12.8120 N.pl3  88  ARG88      -0.0865
     73  CZ        14.5080   21.5120   11.9900 C.cat  88  ARG88       0.5346
     74  NH1       14.7520   21.0490   10.7570 N.pl3  88  ARG88       0.1354
     75  NH2       15.1190   22.5900   12.4570 N.pl3  88  ARG88       0.1354
     76  N         13.0150   19.7610   18.2670 N.am   89  GLY89      -0.1957
     77  CA        13.8350   19.5880   19.4570 C.3    89  GLY89       0.1869
     78  C         13.1130   18.8460   20.5740 C.2    89  GLY89       0.2309
     79  O         13.7080   18.4980   21.5790 O.2    89  GLY89      -0.2863
     80  N         14.4090   15.7800   22.6680 N.3    92  LEU92      -0.1245
     81  CA        15.3090   15.8820   23.8010 C.3    92  LEU92       0.1561
     82  C         14.5480   15.9920   25.1260 C.2    92  LEU92       0.2260
     83  O         15.0660   15.5520   26.1380 O.2    92  LEU92      -0.2867
     84  CB        16.2950   17.0340   23.6350 C.3    92  LEU92       0.0270
     85  CG        17.1560   16.9350   22.3870 C.3    92  LEU92       0.0019
     86  CD1       18.0650   18.1360   22.2850 C.3    92  LEU92       0.0001
     87  CD2       17.9510   15.6480   22.3800 C.3    92  LEU92       0.0001
     88  N         21.5690   15.1050   17.4530 N.3   149  ILE149     -0.1231
     89  CA        21.0040   16.3340   16.9430 C.3   149  ILE149      0.1692
     90  C         21.9630   17.4930   17.2500 C.2   149  ILE149      0.2593
     91  O         22.5650   17.5490   18.3330 O.2   149  ILE149     -0.2718
     92  CB        19.5820   16.5410   17.5120 C.3   149  ILE149      0.0266
     93  CG1       19.1210   17.9820   17.4100 C.3   149  ILE149      0.0019
     94  CG2       19.4990   16.2010   18.9790 C.3   149  ILE149      0.0020
     95  CD1       17.6580   18.1380   17.8010 C.3   149  ILE149      0.0001
     96  N         22.0890   18.4120   16.2920 N.am  150  GLY150     -0.1942
     97  CA        23.0440   19.5030   16.3670 C.3   150  GLY150      0.2014
     98  C         22.8360   20.4850   17.5120 C.2   150  GLY150      0.2639
     99  O         23.7920   21.0620   18.0170 O.2   150  GLY150     -0.2714
    100  N         21.5760   20.7050   17.8640 N.am  151  SER151     -0.1949
    101  CA        21.1430   21.5280   19.0050 C.3   151  SER151      0.1924
    102  C         22.1840   22.4320   19.7540 C.2   151  SER151      0.2314
    103  O         22.2850   23.6390   19.5200 O.2   151  SER151     -0.2863
    104  CB        20.5020   20.5620   20.0160 C.3   151  SER151      0.2116
    105  OG        21.4610   19.5560   20.4340 O.3   151  SER151     -0.2180
    106  N         24.5710   25.3850   18.6680 N.3   154  PHE154     -0.1227
    107  CA        24.0130   26.7060   18.4000 C.3   154  PHE154      0.1736
    108  C         23.6750   27.5010   19.6620 C.2   154  PHE154      0.2595
    109  O         23.1560   28.6080   19.5760 O.2   154  PHE154     -0.2718
    110  CB        22.7470   26.5720   17.5330 C.3   154  PHE154      0.0547
    111  CG        23.0410   26.1030   16.1150 C.ar  154  PHE154     -0.0202
    112  CD1       23.1670   24.7560   15.8370 C.ar  154  PHE154     -0.0042
    113  CD2       23.2490   27.0200   15.0860 C.ar  154  PHE154     -0.0042
    114  CE1       23.4590   24.3110   14.5570 C.ar  154  PHE154     -0.0003
    115  CE2       23.5510   26.5870   13.8010 C.ar  154  PHE154     -0.0003
    116  CZ        23.6540   25.2300   13.5370 C.ar  154  PHE154     -0.0000
    117  N         23.9740   26.9310   20.8210 N.am  155  ALA155     -0.1980
    118  CA        23.6950   27.5750   22.1100 C.3   155  ALA155      0.1597
    119  C         24.8320   27.2730   23.0880 C.2   155  ALA155      0.2287
    120  O         24.5930   26.9130   24.2330 O.2   155  ALA155     -0.2864
    121  CB        22.3850   27.0580   22.6660 C.3   155  ALA155      0.0319
@<TRIPOS>BOND
     1    74    73    1
     2    73    75    1
     3    73    72    2
     4    71    72    1
     5    71    70    1
     6    64    62    1
     7    60    59    2
     8   116   115   ar
     9   116   114   ar
    10    70    69    1
    11   115   113   ar
    12    59    58    1
    13    62    61    1
    14    62    63    1
    15    58    61    1
    16    58    57    1
    17   114   112   ar
    18    52    51    2
    19    69    66    1
    20   113   111   ar
    21    57    51   am
    22    51    50    1
    23   112   111   ar
    24    43    44   ar
    25    43    41   ar
    26    46    44   ar
    27    46    48   ar
    28   111   110    1
    29    66    65    1
    30    66    67    1
    31    96    97    1
    32    96    90   am
    33    97    98    1
    34    44    42   ar
    35    53    50    1
    36    53    54    1
    37    41    40   ar
    38    50    49    1
    39    89    90    1
    40    89    88    1
    41    89    92    1
    42    48    47   ar
    43    90    91    2
    44    67    68    2
    45    67    76   am
    46    93    92    1
    47    93    95    1
    48    98   100   am
    49    98    99    2
    50    92    94    1
    51   110   107    1
    52    38    37    2
    53    54    56   ar
    54    54    55   ar
    55   100   101    1
    56    42    40   ar
    57    42    45   ar
    58    40    39    1
    59    76    77    1
    60    47    45   ar
    61   107   106    1
    62   107   108    1
    63    37    36    1
    64   101   102    1
    65   101   104    1
    66    36    39    1
    67    36    35    1
    68    77    78    1
    69   103   102    2
    70   109   108    2
    71   108   117   am
    72    34    33    1
    73    29    28    2
    74   104   105    1
    75    78    79    2
    76    35    28   am
    77   117   118    1
    78    28    27    1
    79    33    32    1
    80    31    32    1
    81    31    30    1
    82    20    19    2
    83   118   121    1
    84   118   119    1
    85    86    85    1
    86    27    30    1
    87    27    26    1
    88    87    85    1
    89    85    84    1
    90    12    11    2
    91    80    81    1
    92    22    23    1
    93    22    21    1
    94    16    15    1
    95    19    18    1
    96   119   120    2
    97    18    21    1
    98    18    17    1
    99    23    24    1
   100    11    17   am
   101    11    10    1
   102    84    81    1
   103    81    82    1
   104    24    25    1
   105    13    10    1
   106    13    14    1
   107    10     9    1
   108    15    14    1
   109    82    83    2
   110     8     6    1
   111     4     3    2
   112     6     7    1
   113     6     5    1
   114     3     2    1
   115     5     2    1
   116     2     1    1
