@<TRIPOS>MOLECULE
tmp/4xoqC00.pdb
 132 126 0 0 0
SMALL
GASTEIGER

@<TRIPOS>ATOM
      1  N         51.9840   14.3110   -0.8670 N.3    59  LEU59      -0.1245
      2  CA        52.6140   14.0610    0.4030 C.3    59  LEU59       0.1561
      3  C         53.9170   14.8310    0.5060 C.2    59  LEU59       0.2260
      4  O         54.2100   15.3690    1.5670 O.2    59  LEU59      -0.2867
      5  CB        52.8240   12.5650    0.6220 C.3    59  LEU59       0.0270
      6  CG        51.4880   11.8280    0.7430 C.3    59  LEU59       0.0019
      7  CD1       51.6870   10.3360    0.8960 C.3    59  LEU59       0.0001
      8  CD2       50.6840   12.3990    1.9160 C.3    59  LEU59       0.0001
      9  N         53.1810   18.5340    1.1080 N.3    62  MET62      -0.1230
     10  CA        52.7840   18.5840    2.5000 C.3    62  MET62       0.1702
     11  C         54.0190   18.5170    3.3900 C.2    62  MET62       0.2592
     12  O         54.1330   19.2630    4.3700 O.2    62  MET62      -0.2718
     13  CB        51.8290   17.4550    2.8390 C.3    62  MET62       0.0401
     14  CG        50.4240   17.6860    2.3140 C.3    62  MET62       0.0596
     15  SD        49.2830   16.3390    2.7040 S.3    62  MET62      -0.1393
     16  CE        49.4200   16.2260    4.4820 C.3    62  MET62       0.0692
     17  N         54.9620   17.6630    3.0160 N.am   63  LYS63      -0.1980
     18  CA        56.2070   17.5300    3.7710 C.3    63  LYS63       0.1596
     19  C         57.0620   18.8010    3.7960 C.2    63  LYS63       0.2287
     20  O         57.5520   19.1970    4.8420 O.2    63  LYS63      -0.2864
     21  CB        57.0350   16.4070    3.2000 C.3    63  LYS63       0.0298
     22  CG        57.6020   15.5120    4.2580 C.3    63  LYS63       0.0038
     23  CD        58.9770   15.0250    3.8710 C.3    63  LYS63       0.0206
     24  CE        59.1800   13.5710    4.2390 C.3    63  LYS63       0.1093
     25  NZ        59.4570   12.7830    3.0050 N.3    63  LYS63      -0.1314
     26  N         55.9170   21.8470    3.3950 N.3    65  LYS65      -0.1231
     27  CA        55.2540   22.8090    4.2670 C.3    65  LYS65       0.1693
     28  C         55.5640   22.5100    5.7200 C.2    65  LYS65       0.2592
     29  O         55.8640   23.4190    6.4820 O.2    65  LYS65      -0.2718
     30  CB        53.7470   22.8050    4.0500 C.3    65  LYS65       0.0285
     31  CG        53.0220   23.9460    4.7260 C.3    65  LYS65       0.0035
     32  CD        51.5190   23.8100    4.5270 C.3    65  LYS65       0.0206
     33  CE        50.7500   24.5780    5.5890 C.3    65  LYS65       0.1093
     34  NZ        51.1670   26.0070    5.6210 N.3    65  LYS65      -0.1314
     35  N         55.5090   21.2310    6.0870 N.am   66  TRP66      -0.1976
     36  CA        55.6620   20.7980    7.4780 C.3    66  TRP66       0.1640
     37  C         57.0370   21.1910    8.0220 C.2    66  TRP66       0.2290
     38  O         57.1290   21.8040    9.0850 O.2    66  TRP66      -0.2864
     39  CB        55.4560   19.2940    7.5620 C.3    66  TRP66       0.0576
     40  CG        55.1310   18.7410    8.9020 C.ar   66  TRP66       0.0006
     41  CD1       55.1450   19.3970   10.0970 C.ar   66  TRP66       0.0946
     42  CD2       54.7980   17.3740    9.1960 C.ar   66  TRP66       0.0152
     43  NE1       54.8220   18.5330   11.1090 N.ar   66  TRP66      -0.2442
     44  CE2       54.6150   17.2810   10.5860 C.ar   66  TRP66       0.0810
     45  CE3       54.6530   16.2200    8.4170 C.ar   66  TRP66       0.0012
     46  CZ2       54.2610   16.0790   11.2220 C.ar   66  TRP66       0.0191
     47  CZ3       54.3020   15.0260    9.0450 C.ar   66  TRP66       0.0001
     48  CH2       54.1120   14.9690   10.4390 C.ar   66  TRP66       0.0015
     49  N         57.2100   25.1710    8.3120 N.3    69  ASP69      -0.1225
     50  CA        56.5240   25.6040    9.5210 C.3    69  ASP69       0.1805
     51  C         57.4280   25.3970   10.7640 C.2    69  ASP69       0.2597
     52  O         57.6480   26.3280   11.5640 O.2    69  ASP69      -0.2718
     53  CB        55.2220   24.7780    9.7560 C.3    69  ASP69       0.1424
     54  CG        54.0140   25.1920    8.8310 C.2    69  ASP69       0.3668
     55  OD1       54.1750   26.0420    7.9340 O.co2  69  ASP69      -0.2456
     56  OD2       52.8830   24.6390    9.0190 O.co2  69  ASP69      -0.2456
     57  N         57.8970   24.1580   10.9220 N.am   70  LEU70      -0.1979
     58  CA        58.6910   23.7260   12.0830 C.3    70  LEU70       0.1596
     59  C         60.0600   24.3750   12.1650 C.2    70  LEU70       0.2287
     60  O         60.5180   24.6550   13.2590 O.2    70  LEU70      -0.2864
     61  CB        58.8650   22.1990   12.0980 C.3    70  LEU70       0.0297
     62  CG        57.5810   21.3960   12.2870 C.3    70  LEU70       0.0022
     63  CD1       57.9320   19.9200   12.3860 C.3    70  LEU70       0.0001
     64  CD2       56.8120   21.8470   13.5200 C.3    70  LEU70       0.0001
     65  N         59.5060   14.3270   13.8030 N.3    83  ARG83      -0.1245
     66  CA        58.0800   14.5900   13.6850 C.3    83  ARG83       0.1563
     67  C         57.5330   14.3050   12.2990 C.2    83  ARG83       0.2260
     68  O         56.4820   13.7320   12.1830 O.2    83  ARG83      -0.2867
     69  CB        57.7400   16.0280   14.0930 C.3    83  ARG83       0.0307
     70  CG        57.7860   16.2810   15.5920 C.3    83  ARG83       0.0489
     71  CD        57.8480   17.7730   15.8860 C.3    83  ARG83       0.2205
     72  NE        57.4870   18.1440   17.2590 N.pl3  83  ARG83      -0.0865
     73  CZ        58.2240   17.9060   18.3480 C.cat  83  ARG83       0.5346
     74  NH1       59.3780   17.2400   18.2970 N.pl3  83  ARG83       0.1354
     75  NH2       57.7760   18.3140   19.5220 N.pl3  83  ARG83       0.1354
     76  N         56.6990   10.6560   11.4380 N.3    86  ARG86      -0.1231
     77  CA        55.3870   10.1280   11.7900 C.3    86  ARG86       0.1694
     78  C         54.4380   10.1030   10.5950 C.2    86  ARG86       0.2592
     79  O         53.4910    9.3270   10.5780 O.2    86  ARG86      -0.2718
     80  CB        54.7690   10.9060   12.9470 C.3    86  ARG86       0.0321
     81  CG        55.6120   10.6100   14.1930 C.3    86  ARG86       0.0489
     82  CD        55.1100   11.3470   15.4080 C.3    86  ARG86       0.2205
     83  NE        55.2850   12.8020   15.2080 N.pl3  86  ARG86      -0.0865
     84  CZ        54.1650   13.4270   14.8780 C.cat  86  ARG86       0.5346
     85  NH1       53.1110   12.6450   14.7060 N.pl3  86  ARG86       0.1354
     86  NH2       54.2170   14.6590   14.5460 N.pl3  86  ARG86       0.1354
     87  N         54.6860   10.9350    9.5880 N.am   87  GLY87      -0.1957
     88  CA        53.8720   10.9400    8.3880 C.3    87  GLY87       0.1869
     89  C         54.2330    9.8890    7.3510 C.2    87  GLY87       0.2309
     90  O         53.5590    9.7660    6.3230 O.2    87  GLY87      -0.2863
     91  N         51.7190    7.3780    5.4940 N.3    90  LEU90      -0.1245
     92  CA        50.9200    7.7380    4.3180 C.3    90  LEU90       0.1561
     93  C         51.6140    7.3710    3.0090 C.2    90  LEU90       0.2260
     94  O         50.9420    6.9790    2.0450 O.2    90  LEU90      -0.2867
     95  CB        50.5140    9.2180    4.3560 C.3    90  LEU90       0.0270
     96  CG        49.5950    9.6290    5.5260 C.3    90  LEU90       0.0019
     97  CD1       49.1350   11.0580    5.3140 C.3    90  LEU90       0.0001
     98  CD2       48.4160    8.6840    5.6860 C.3    90  LEU90       0.0001
     99  N         44.8630    9.9080   10.4240 N.3   147  ILE147     -0.1231
    100  CA        45.6770   10.9740   11.0030 C.3   147  ILE147      0.1692
    101  C         45.2830   12.3660   10.5230 C.2   147  ILE147      0.2593
    102  O         44.7490   12.5520    9.4210 O.2   147  ILE147     -0.2718
    103  CB        47.1870   10.7530   10.8210 C.3   147  ILE147      0.0266
    104  CG1       47.5730   10.6320    9.3620 C.3   147  ILE147      0.0019
    105  CG2       47.6410    9.5270   11.6050 C.3   147  ILE147      0.0020
    106  CD1       49.0890   10.6970    9.1840 C.3   147  ILE147      0.0001
    107  N         45.5870   13.3320   11.3780 N.am  148  GLY148     -0.1942
    108  CA        45.1770   14.6930   11.2040 C.3   148  GLY148      0.2014
    109  C         45.7510   15.3410    9.9810 C.2   148  GLY148      0.2639
    110  O         45.0760   16.1110    9.3300 O.2   148  GLY148     -0.2714
    111  N         47.0190   15.0830    9.7160 N.am  149  SER149     -0.1949
    112  CA        47.6580   15.3740    8.4460 C.3   149  SER149      0.1924
    113  C         47.1340   16.5810    7.6160 C.2   149  SER149      0.2314
    114  O         47.5240   17.7380    7.8580 O.2   149  SER149     -0.2863
    115  CB        47.6650   14.0890    7.6000 C.3   149  SER149      0.2116
    116  OG        46.3390   13.6900    7.2620 O.3   149  SER149     -0.2180
    117  N         46.0750   20.4180    8.3650 N.3   152  PHE152     -0.1227
    118  CA        47.1430   21.4120    8.4740 C.3   152  PHE152      0.1736
    119  C         47.7230   21.9000    7.1220 C.2   152  PHE152      0.2595
    120  O         48.6730   22.6630    7.1000 O.2   152  PHE152     -0.2718
    121  CB        48.2650   20.8260    9.3380 C.3   152  PHE152      0.0547
    122  CG        47.9040   20.7280   10.7870 C.ar  152  PHE152     -0.0202
    123  CD1       47.2130   19.6420   11.2660 C.ar  152  PHE152     -0.0042
    124  CD2       48.2170   21.7420   11.6630 C.ar  152  PHE152     -0.0042
    125  CE1       46.8350   19.5660   12.6060 C.ar  152  PHE152     -0.0003
    126  CE2       47.8580   21.6570   13.0170 C.ar  152  PHE152     -0.0003
    127  CZ        47.1490   20.5670   13.4770 C.ar  152  PHE152     -0.0000
    128  N         47.1400   21.4690    6.0030 N.am  153  ALA153     -0.1980
    129  CA        47.6680   21.7830    4.6890 C.3   153  ALA153      0.1597
    130  C         46.5530   21.8540    3.6810 C.2   153  ALA153      0.2287
    131  O         46.7060   21.3630    2.5730 O.2   153  ALA153     -0.2864
    132  CB        48.6630   20.7020    4.2770 C.3   153  ALA153      0.0319
@<TRIPOS>BOND
     1     1     2    1
     2     2     3    1
     3     2     5    1
     4     3     4    2
     5     5     6    1
     6     6     7    1
     7     6     8    1
     8     9    10    1
     9    94    93    2
    10    14    15    1
    11    14    13    1
    12    10    13    1
    13    10    11    1
    14   131   130    2
    15    15    16    1
    16    25    24    1
    17    93    92    1
    18    17    11   am
    19    17    18    1
    20    21    18    1
    21    21    22    1
    22    11    12    2
    23    26    27    1
    24   130   129    1
    25    18    19    1
    26    19    20    2
    27    23    24    1
    28    23    22    1
    29    30    27    1
    30    30    31    1
    31    27    28    1
    32   132   129    1
    33    92    95    1
    34    92    91    1
    35    95    96    1
    36    32    31    1
    37    32    33    1
    38   129   128    1
    39    97    96    1
    40    96    98    1
    41    33    34    1
    42    28    35   am
    43    28    29    2
    44   128   119   am
    45    35    36    1
    46    90    89    2
    47   120   119    2
    48   119   118    1
    49   116   115    1
    50    89    88    1
    51    36    39    1
    52    36    37    1
    53    39    40    1
    54   115   112    1
    55   113   114    2
    56   113   112    1
    57    55    54   ar
    58    37    38    2
    59    49    50    1
    60   117   118    1
    61    88    87    1
    62    45    47   ar
    63    45    42   ar
    64   112   111    1
    65   118   121    1
    66    54    56   ar
    67    54    53    1
    68    40    42   ar
    69    40    41   ar
    70    47    48   ar
    71   106   104    1
    72    42    44   ar
    73   110   109    2
    74   121   122    1
    75   104   103    1
    76   102   101    2
    77    50    53    1
    78    50    51    1
    79    87    78   am
    80   111   109   am
    81   109   108    1
    82    41    43   ar
    83    99   100    1
    84    48    46   ar
    85   101   100    1
    86   101   107   am
    87    79    78    2
    88    44    43   ar
    89    44    46   ar
    90    78    77    1
    91    51    57   am
    92    51    52    2
    93   122   123   ar
    94   122   124   ar
    95   103   100    1
    96   103   105    1
    97    57    58    1
    98   108   107    1
    99   123   125   ar
   100    76    77    1
   101   124   126   ar
   102    77    80    1
   103    58    61    1
   104    58    59    1
   105    61    62    1
   106    59    60    2
   107    68    67    2
   108    62    63    1
   109    62    64    1
   110    67    66    1
   111   125   127   ar
   112    80    81    1
   113   126   127   ar
   114    66    65    1
   115    66    69    1
   116    69    70    1
   117    81    82    1
   118    86    84    1
   119    85    84    1
   120    84    83    2
   121    83    82    1
   122    70    71    1
   123    71    72    1
   124    72    73    2
   125    74    73    1
   126    73    75    1
