@<TRIPOS>MOLECULE
tmp/4xoyA00.pdb
 115 106 0 0 0
SMALL
GASTEIGER

@<TRIPOS>ATOM
      1  N        -19.9490   20.7910   39.4650 N.3    21  ILE21      -0.1245
      2  CA       -19.7720   20.2340   40.8030 C.3    21  ILE21       0.1561
      3  C        -18.5730   20.8720   41.4830 C.2    21  ILE21       0.2260
      4  O        -18.5940   21.1570   42.6810 O.2    21  ILE21      -0.2867
      5  CB       -19.5840   18.7050   40.7720 C.3    21  ILE21       0.0252
      6  CG1      -20.9160   18.0100   40.5250 C.3    21  ILE21       0.0019
      7  CG2      -18.9940   18.1950   42.0780 C.3    21  ILE21       0.0019
      8  CD1      -20.7980   16.5100   40.5420 C.3    21  ILE21       0.0001
      9  N        -11.4490   19.5350   40.6480 N.3    24  GLY24      -0.1225
     10  CA       -10.3770   18.7890   41.2860 C.3    24  GLY24       0.1811
     11  C         -9.0940   19.1560   40.5650 C.2    24  GLY24       0.2280
     12  O         -9.0700   20.1320   39.8250 O.2    24  GLY24      -0.2866
     13  N        -15.1580   19.5240   37.0600 N.3    29  VAL29      -0.1245
     14  CA       -15.9740   18.3580   37.3510 C.3    29  VAL29       0.1561
     15  C        -17.4610   18.7170   37.2980 C.2    29  VAL29       0.2260
     16  O        -17.9310   19.5810   38.0400 O.2    29  VAL29      -0.2867
     17  CB       -15.6420   17.7730   38.7290 C.3    29  VAL29       0.0252
     18  CG1      -16.3640   16.4660   38.9240 C.3    29  VAL29       0.0019
     19  CG2      -14.1420   17.5830   38.8800 C.3    29  VAL29       0.0019
     20  N        -20.5350   11.4170   37.3710 N.3    42  ALA42      -0.1245
     21  CA       -19.5870   12.5130   37.4420 C.3    42  ALA42       0.1562
     22  C        -18.7240   12.4650   36.1930 C.2    42  ALA42       0.2260
     23  O        -18.3540   11.3830   35.7380 O.2    42  ALA42      -0.2867
     24  CB       -18.7340   12.4160   38.7010 C.3    42  ALA42       0.0290
     25  N        -15.2040   14.2420   34.4730 N.3    44  LYS44      -0.1245
     26  CA       -14.0380   15.0970   34.6070 C.3    44  LYS44       0.1561
     27  C        -13.4390   15.4340   33.2380 C.2    44  LYS44       0.2260
     28  O        -13.1970   14.5400   32.4260 O.2    44  LYS44      -0.2867
     29  CB       -12.9890   14.4050   35.4860 C.3    44  LYS44       0.0271
     30  CG       -13.2630   14.4980   36.9800 C.3    44  LYS44       0.0035
     31  CD       -12.6830   13.3040   37.7240 C.3    44  LYS44       0.0206
     32  CE       -13.4020   13.0640   39.0420 C.3    44  LYS44       0.1093
     33  NZ       -12.5760   12.2330   39.9770 N.3    44  LYS44      -0.1314
     34  N        -12.6740    3.8740   43.3250 N.3    69  ILE69      -0.1245
     35  CA       -13.4920    4.4700   42.2720 C.3    69  ILE69       0.1561
     36  C        -13.1020    3.8370   40.9310 C.2    69  ILE69       0.2260
     37  O        -11.9220    3.6300   40.6390 O.2    69  ILE69      -0.2867
     38  CB       -13.3390    6.0130   42.2120 C.3    69  ILE69       0.0252
     39  CG1      -14.3920    6.6190   41.2920 C.3    69  ILE69       0.0019
     40  CG2      -11.9540    6.4120   41.7640 C.3    69  ILE69       0.0019
     41  CD1      -15.7590    6.6620   41.9050 C.3    69  ILE69       0.0001
     42  N        -17.3430    8.6670   35.7710 N.3    90  GLN90      -0.1231
     43  CA       -17.2710    7.8740   37.0050 C.3    90  GLN90       0.1698
     44  C        -18.5870    7.9250   37.7850 C.2    90  GLN90       0.2592
     45  O        -19.3970    8.8270   37.5690 O.2    90  GLN90      -0.2718
     46  CB       -16.1140    8.3790   37.8890 C.3    90  GLN90       0.0381
     47  CG       -14.7380    8.1610   37.2810 C.3    90  GLN90       0.0905
     48  CD       -13.6200    8.8250   38.0700 C.2    90  GLN90       0.2608
     49  OE1      -13.7190    9.9830   38.4460 O.2    90  GLN90      -0.2717
     50  NE2      -12.5450    8.0960   38.2950 N.am   90  GLN90      -0.0878
     51  N        -18.7940    6.9660   38.6930 N.am   91  ASP91      -0.1960
     52  CA       -19.9730    6.9760   39.5690 C.3    91  ASP91       0.1840
     53  C        -20.0860    8.3020   40.3000 C.2    91  ASP91       0.2622
     54  O        -19.0900    8.8570   40.7740 O.2    91  ASP91      -0.2715
     55  CB       -19.9250    5.8480   40.6050 C.3    91  ASP91       0.1450
     56  CG       -19.9990    4.4660   39.9830 C.2    91  ASP91       0.3671
     57  OD1      -20.3970    4.3520   38.8030 O.co2  91  ASP91      -0.2456
     58  OD2      -19.6560    3.4910   40.6850 O.co2  91  ASP91      -0.2456
     59  N        -21.3030    8.8100   40.3950 N.am   92  LEU92      -0.1963
     60  CA       -21.5460   10.0340   41.1330 C.3    92  LEU92       0.1728
     61  C        -21.6420    9.7360   42.6240 C.2    92  LEU92       0.2616
     62  O        -22.4560    8.9160   43.0730 O.2    92  LEU92      -0.2715
     63  CB       -22.8220   10.7160   40.6470 C.3    92  LEU92       0.0311
     64  CG       -23.1470   12.0730   41.2740 C.3    92  LEU92       0.0022
     65  CD1      -21.9990   13.0500   41.0930 C.3    92  LEU92       0.0001
     66  CD2      -24.4350   12.6320   40.6730 C.3    92  LEU92       0.0001
     67  N        -20.7950   10.4050   43.3890 N.am   93  MET93      -0.1963
     68  CA       -20.8270   10.2800   44.8330 C.3    93  MET93       0.1736
     69  C        -21.4810   11.5180   45.4470 C.2    93  MET93       0.2616
     70  O        -21.6170   12.5430   44.7870 O.2    93  MET93      -0.2715
     71  CB       -19.4060   10.0640   45.3590 C.3    93  MET93       0.0427
     72  CG       -18.7240    8.8490   44.7010 C.3    93  MET93       0.0599
     73  SD       -19.4920    7.2810   45.1940 S.3    93  MET93      -0.1393
     74  CE       -18.5270    6.9290   46.6750 C.3    93  MET93       0.0692
     75  N        -21.8800   11.4250   46.7080 N.am   94  GLU94      -0.1963
     76  CA       -22.5320   12.5440   47.3810 C.3    94  GLU94       0.1733
     77  C        -21.5360   13.5720   47.8990 C.2    94  GLU94       0.2617
     78  O        -21.7250   14.7750   47.7330 O.2    94  GLU94      -0.2715
     79  CB       -23.4080   12.0320   48.5340 C.3    94  GLU94       0.0429
     80  CG       -23.8920   13.1150   49.5150 C.3    94  GLU94       0.1163
     81  CD       -24.9530   12.6030   50.4930 C.2    94  GLU94       0.3649
     82  OE1      -25.9980   12.0930   50.0290 O.co2  94  GLU94      -0.2457
     83  OE2      -24.7540   12.7230   51.7220 O.co2  94  GLU94      -0.2457
     84  N        -20.4610   13.1110   48.5250 N.am   95  THR95      -0.1937
     85  CA       -19.5490   14.0350   49.1670 C.3    95  THR95       0.2028
     86  C        -18.1730   13.3720   49.3260 C.2    95  THR95       0.2642
     87  O        -17.9740   12.2300   48.9220 O.2    95  THR95      -0.2714
     88  CB       -20.1200   14.4940   50.5490 C.3    95  THR95       0.1808
     89  OG1      -19.3330   15.5560   51.0760 O.3    95  THR95      -0.2208
     90  CG2      -20.1320   13.3550   51.5480 C.3    95  THR95       0.0379
     91  N        -17.2160   14.0970   49.8850 N.am   96  ASP96      -0.1971
     92  CA       -15.9190   13.5000   50.1990 C.3    96  ASP96       0.1709
     93  C        -15.6920   13.6630   51.6880 C.2    96  ASP96       0.2293
     94  O        -16.4440   14.3750   52.3450 O.2    96  ASP96      -0.2864
     95  CB       -14.7870   14.1110   49.3540 C.3    96  ASP96       0.1436
     96  CG       -14.6010   15.6130   49.5680 C.2    96  ASP96       0.3671
     97  OD1      -14.5530   16.0850   50.7210 O.co2  96  ASP96      -0.2456
     98  OD2      -14.4810   16.3280   48.5580 O.co2  96  ASP96      -0.2456
     99  N        -14.9850   17.4790   53.0570 N.3    99  LYS99      -0.1245
    100  CA       -16.2040   18.2620   53.2310 C.3    99  LYS99       0.1561
    101  C        -17.0130   17.7760   54.4270 C.2    99  LYS99       0.2260
    102  O        -17.5900   18.5730   55.1520 O.2    99  LYS99      -0.2867
    103  CB       -17.0370   18.2180   51.9560 C.3    99  LYS99       0.0271
    104  CG       -16.4320   19.0860   50.8350 C.3    99  LYS99       0.0035
    105  CD       -16.9940   18.6980   49.4750 C.3    99  LYS99       0.0206
    106  CE       -18.5090   18.7850   49.4730 C.3    99  LYS99       0.1093
    107  NZ       -19.1060   18.3130   48.1930 N.3    99  LYS99      -0.1314
    108  N        -14.1700    9.4120   48.7150 N.3   140  LEU140     -0.1245
    109  CA       -15.5410    9.7510   48.3540 C.3   140  LEU140      0.1561
    110  C        -16.5570    8.9130   49.1190 C.2   140  LEU140      0.2260
    111  O        -16.3340    7.7310   49.3820 O.2   140  LEU140     -0.2867
    112  CB       -15.7560    9.5580   46.8490 C.3   140  LEU140      0.0270
    113  CG       -14.8710   10.4090   45.9260 C.3   140  LEU140      0.0019
    114  CD1      -15.0250    9.9490   44.4870 C.3   140  LEU140      0.0001
    115  CD2      -15.2030   11.8800   46.0490 C.3   140  LEU140      0.0001
@<TRIPOS>BOND
     1    28    27    2
     2    27    26    1
     3    25    26    1
     4    26    29    1
     5    29    30    1
     6    23    22    2
     7    42    43    1
     8    22    21    1
     9    30    31    1
    10    43    44    1
    11    43    46    1
    12    13    14    1
    13    47    46    1
    14    47    48    1
    15    15    14    1
    16    15    16    2
    17    14    17    1
    18    20    21    1
    19    21    24    1
    20    45    44    2
    21    31    32    1
    22    44    51   am
    23    48    50   am
    24    48    49    2
    25    51    52    1
    26    17    19    1
    27    17    18    1
    28    57    56   ar
    29    32    33    1
    30     1     2    1
    31    52    53    1
    32    52    55    1
    33    12    11    2
    34    56    55    1
    35    56    58   ar
    36    53    59   am
    37    53    54    2
    38    59    60    1
    39     6     8    1
    40     6     5    1
    41    11    10    1
    42    37    36    2
    43    63    60    1
    44    63    64    1
    45     9    10    1
    46    66    64    1
    47     5     2    1
    48     5     7    1
    49     2     3    1
    50    36    35    1
    51    65    64    1
    52    60    61    1
    53    39    41    1
    54    39    38    1
    55     3     4    2
    56    40    38    1
    57    38    35    1
    58    35    34    1
    59    61    62    2
    60    61    67   am
    61    67    68    1
    62   114   113    1
    63    72    73    1
    64    72    71    1
    65    70    69    2
    66    68    71    1
    67    68    69    1
    68    73    74    1
    69    69    75   am
    70   113   115    1
    71   113   112    1
    72    75    76    1
    73   112   109    1
    74    76    77    1
    75    76    79    1
    76    78    77    2
    77    77    84   am
    78   107   106    1
    79   109   108    1
    80   109   110    1
    81    84    85    1
    82    79    80    1
    83    98    96   ar
    84    87    86    2
    85   110   111    2
    86    85    86    1
    87    85    88    1
    88    86    91   am
    89    95    96    1
    90    95    92    1
    91   106   105    1
    92   105   104    1
    93    80    81    1
    94    96    97   ar
    95    91    92    1
    96    82    81   ar
    97    92    93    1
    98    81    83   ar
    99    88    89    1
   100    88    90    1
   101   104   103    1
   102    93    94    2
   103   103   100    1
   104    99   100    1
   105   100   101    1
   106   101   102    2
