@<TRIPOS>MOLECULE
tmp/4xozA00.pdb
 151 137 0 0 0
SMALL
GASTEIGER

@<TRIPOS>ATOM
      1  N        -19.3650   21.3820   38.5620 N.3    22  ILE22      -0.1245
      2  CA       -19.1730   21.0820   39.9780 C.3    22  ILE22       0.1561
      3  C        -17.7450   21.3450   40.4210 C.2    22  ILE22       0.2260
      4  O        -17.4340   21.2310   41.6010 O.2    22  ILE22      -0.2867
      5  CB       -19.5730   19.6160   40.3560 C.3    22  ILE22       0.0252
      6  CG1      -18.7770   18.5780   39.6050 C.3    22  ILE22       0.0019
      7  CG2      -21.0460   19.3430   40.0810 C.3    22  ILE22       0.0019
      8  CD1      -19.3610   17.2030   39.8380 C.3    22  ILE22       0.0001
      9  N        -14.6140   19.5720   36.1910 N.3    30  VAL30      -0.1245
     10  CA       -15.4870   18.4590   36.5140 C.3    30  VAL30       0.1561
     11  C        -16.9290   18.8900   36.4400 C.2    30  VAL30       0.2260
     12  O        -17.3050   19.9230   36.9900 O.2    30  VAL30      -0.2867
     13  CB       -15.1900   17.8790   37.9130 C.3    30  VAL30       0.0252
     14  CG1      -16.1260   16.7360   38.2260 C.3    30  VAL30       0.0019
     15  CG2      -13.7610   17.4310   37.9850 C.3    30  VAL30       0.0019
     16  N        -20.0910   11.4210   37.1480 N.3    43  ALA43      -0.1245
     17  CA       -19.1790   12.5550   37.1080 C.3    43  ALA43       0.1562
     18  C        -18.3070   12.4630   35.8460 C.2    43  ALA43       0.2260
     19  O        -17.8840   11.3630   35.4340 O.2    43  ALA43      -0.2867
     20  CB       -18.2910   12.6140   38.3870 C.3    43  ALA43       0.0290
     21  N        -14.8320   14.3450   34.0490 N.3    45  LYS45      -0.1245
     22  CA       -13.7600   15.3250   34.1010 C.3    45  LYS45       0.1561
     23  C        -13.1320   15.4970   32.7240 C.2    45  LYS45       0.2260
     24  O        -12.7910   14.5170   32.0780 O.2    45  LYS45      -0.2867
     25  CB       -12.6850   14.9080   35.1090 C.3    45  LYS45       0.0271
     26  CG       -11.5000   15.8530   35.1810 C.3    45  LYS45       0.0035
     27  CD       -10.6520   15.6060   36.4450 C.3    45  LYS45       0.0206
     28  CE        -9.7240   16.7940   36.7150 C.3    45  LYS45       0.1093
     29  NZ        -8.8090   16.5250   37.8210 N.3    45  LYS45      -0.1314
     30  N        -10.0010   16.6990   30.6430 N.3    47  ILE47      -0.1245
     31  CA        -8.5750   16.9290   30.7870 C.3    47  ILE47       0.1561
     32  C         -7.9960   17.2910   29.4240 C.2    47  ILE47       0.2260
     33  O         -8.3980   16.7250   28.3950 O.2    47  ILE47      -0.2867
     34  CB        -7.8640   15.6460   31.2810 C.3    47  ILE47       0.0252
     35  CG1       -8.5320   15.0920   32.5390 C.3    47  ILE47       0.0019
     36  CG2       -6.3680   15.8740   31.4880 C.3    47  ILE47       0.0019
     37  CD1       -8.3200   13.6130   32.7050 C.3    47  ILE47       0.0001
     38  N          1.3290   11.8760   34.0630 N.3    58  ARG58      -0.1231
     39  CA         0.3960   11.6230   35.1780 C.3    58  ARG58       0.1694
     40  C         -0.9230   11.0640   34.6770 C.2    58  ARG58       0.2592
     41  O         -1.4930   10.1550   35.2680 O.2    58  ARG58      -0.2718
     42  CB         0.0980   12.8890   35.9640 C.3    58  ARG58       0.0321
     43  CG         1.0760   13.2370   37.0620 C.3    58  ARG58       0.0489
     44  CD         0.9610   14.7260   37.3260 C.3    58  ARG58       0.2205
     45  NE         0.6070   15.0420   38.7040 N.pl3  58  ARG58      -0.0865
     46  CZ         1.5020   15.1820   39.6700 C.cat  58  ARG58       0.5346
     47  NH1        2.7900   15.0070   39.3960 N.pl3  58  ARG58       0.1354
     48  NH2        1.1130   15.4830   40.9020 N.pl3  58  ARG58       0.1354
     49  N         -1.4270   11.6390   33.5920 N.am   59  THR59      -0.1953
     50  CA        -2.6700   11.1210   33.0100 C.3    59  THR59       0.1897
     51  C         -2.5630    9.6600   32.6060 C.2    59  THR59       0.2313
     52  O         -3.4270    8.8490   32.9610 O.2    59  THR59      -0.2863
     53  CB        -3.0910   11.9430   31.7750 C.3    59  THR59       0.1794
     54  OG1       -3.3200   13.2950   32.1840 O.3    59  THR59      -0.2208
     55  CG2       -4.3540   11.3430   31.1460 C.3    59  THR59       0.0378
     56  N         -2.2940    7.2010   35.6300 N.3    62  GLU62      -0.1231
     57  CA        -3.5120    6.9710   36.3660 C.3    62  GLU62       0.1699
     58  C         -4.5120    6.1510   35.5580 C.2    62  GLU62       0.2592
     59  O         -5.1990    5.2840   36.1060 O.2    62  GLU62      -0.2718
     60  CB        -4.1150    8.2970   36.7970 C.3    62  GLU62       0.0402
     61  CG        -5.3010    8.1200   37.7050 C.3    62  GLU62       0.1161
     62  CD        -5.6350    9.3550   38.5090 C.2    62  GLU62       0.3649
     63  OE1       -6.3400    9.1960   39.5090 O.co2  62  GLU62      -0.2457
     64  OE2       -5.1930   10.4730   38.1600 O.co2  62  GLU62      -0.2457
     65  N         -4.5810    6.3830   34.2540 N.am   63  ILE63      -0.1980
     66  CA        -5.4560    5.5690   33.4310 C.3    63  ILE63       0.1595
     67  C         -5.0660    4.0900   33.4990 C.2    63  ILE63       0.2287
     68  O         -5.9100    3.2440   33.7800 O.2    63  ILE63      -0.2864
     69  CB        -5.4600    6.0410   31.9450 C.3    63  ILE63       0.0276
     70  CG1       -6.1830    7.3780   31.8060 C.3    63  ILE63       0.0022
     71  CG2       -6.1570    5.0100   31.0840 C.3    63  ILE63       0.0022
     72  CD1       -6.1880    7.9140   30.3740 C.3    63  ILE63       0.0001
     73  N         -5.9130    2.6210   37.0510 N.3    66  LEU66      -0.1245
     74  CA        -7.3400    2.4480   37.3660 C.3    66  LEU66       0.1561
     75  C         -8.0260    1.4390   36.4520 C.2    66  LEU66       0.2260
     76  O         -9.0040    0.8050   36.8550 O.2    66  LEU66      -0.2867
     77  CB        -8.0880    3.7850   37.2870 C.3    66  LEU66       0.0270
     78  CG        -7.7170    4.8010   38.3810 C.3    66  LEU66       0.0019
     79  CD1       -8.5500    6.0680   38.1430 C.3    66  LEU66       0.0001
     80  CD2       -7.9330    4.1880   39.7370 C.3    66  LEU66       0.0001
     81  N        -11.7940    3.8840   43.2230 N.3    75  ILE75      -0.1245
     82  CA       -12.6650    4.4720   42.2110 C.3    75  ILE75       0.1561
     83  C        -12.3820    3.8200   40.8390 C.2    75  ILE75       0.2260
     84  O        -11.2510    3.4900   40.4910 O.2    75  ILE75      -0.2867
     85  CB       -12.5280    6.0030   42.1380 C.3    75  ILE75       0.0252
     86  CG1      -13.6920    6.6060   41.3520 C.3    75  ILE75       0.0019
     87  CG2      -11.2490    6.4040   41.4620 C.3    75  ILE75       0.0019
     88  CD1      -15.0650    6.5210   42.0270 C.3    75  ILE75       0.0001
     89  N        -13.0060    3.5870   36.4420 N.3    77  ILE77      -0.1245
     90  CA       -13.3440    4.3870   35.2430 C.3    77  ILE77       0.1561
     91  C        -14.5210    3.7310   34.5340 C.2    77  ILE77       0.2260
     92  O        -14.4430    2.5640   34.1560 O.2    77  ILE77      -0.2867
     93  CB       -12.1390    4.4950   34.2770 C.3    77  ILE77       0.0252
     94  CG1      -10.9500    5.2080   34.9550 C.3    77  ILE77       0.0019
     95  CG2      -12.5460    5.1860   32.9330 C.3    77  ILE77       0.0019
     96  CD1       -9.6920    5.3580   34.0610 C.3    77  ILE77       0.0001
     97  N        -12.9770   11.7010   31.1550 N.3    94  ILE94      -0.1245
     98  CA       -13.0260   10.5170   32.0210 C.3    94  ILE94       0.1561
     99  C        -14.3490   10.4600   32.7830 C.2    94  ILE94       0.2260
    100  O        -14.7640   11.4360   33.4210 O.2    94  ILE94      -0.2867
    101  CB       -11.8860   10.5200   33.0560 C.3    94  ILE94       0.0252
    102  CG1      -10.5140   10.7240   32.3770 C.3    94  ILE94       0.0019
    103  CG2      -11.9500    9.2510   33.9590 C.3    94  ILE94       0.0019
    104  CD1      -10.1550    9.6930   31.3320 C.3    94  ILE94       0.0001
    105  N        -16.6440    8.7640   35.7210 N.3    96  GLN96      -0.1231
    106  CA       -16.6020    7.9990   36.9660 C.3    96  GLN96       0.1698
    107  C        -17.9590    8.0370   37.6550 C.2    96  GLN96       0.2592
    108  O        -18.7980    8.8900   37.3300 O.2    96  GLN96      -0.2718
    109  CB       -15.5270    8.5590   37.9190 C.3    96  GLN96       0.0381
    110  CG       -14.0610    8.3930   37.4340 C.3    96  GLN96       0.0905
    111  CD       -13.0600    8.8370   38.4860 C.2    96  GLN96       0.2608
    112  OE1      -13.4030    9.5460   39.4310 O.2    96  GLN96      -0.2717
    113  NE2      -11.8180    8.4300   38.3210 N.am   96  GLN96      -0.0878
    114  N        -18.1790    7.1300   38.6070 N.am   97  ASP97      -0.1960
    115  CA       -19.3750    7.2120   39.4600 C.3    97  ASP97       0.1840
    116  C        -19.4030    8.5760   40.1210 C.2    97  ASP97       0.2622
    117  O        -18.3630    9.0940   40.5230 O.2    97  ASP97      -0.2715
    118  CB       -19.3800    6.1370   40.5530 C.3    97  ASP97       0.1450
    119  CG       -19.4840    4.7460   40.0090 C.2    97  ASP97       0.3671
    120  OD1      -19.9060    4.5980   38.8580 O.co2  97  ASP97      -0.2456
    121  OD2      -19.1340    3.7960   40.7350 O.co2  97  ASP97      -0.2456
    122  N        -20.5890    9.1570   40.2430 N.am   98  LEU98      -0.1963
    123  CA       -20.7010   10.4420   40.9230 C.3    98  LEU98       0.1728
    124  C        -20.6260   10.2180   42.4270 C.2    98  LEU98       0.2616
    125  O        -21.4080    9.4410   42.9900 O.2    98  LEU98      -0.2715
    126  CB       -22.0060   11.1530   40.5520 C.3    98  LEU98       0.0311
    127  CG       -22.3340   12.4700   41.2640 C.3    98  LEU98       0.0022
    128  CD1      -21.2340   13.4870   41.0380 C.3    98  LEU98       0.0001
    129  CD2      -23.6460   13.0140   40.7380 C.3    98  LEU98       0.0001
    130  N        -19.6880   10.8850   43.0810 N.am   99  MET99      -0.1977
    131  CA       -19.5530   10.7250   44.5170 C.3    99  MET99       0.1605
    132  C        -20.0750   11.9760   45.2260 C.2    99  MET99       0.2287
    133  O        -19.7800   13.0890   44.8320 O.2    99  MET99      -0.2864
    134  CB       -18.0910   10.4300   44.8950 C.3    99  MET99       0.0413
    135  CG       -17.5400    9.0990   44.3530 C.3    99  MET99       0.0598
    136  SD       -18.3950    7.5530   44.8260 S.3    99  MET99      -0.1393
    137  CE       -17.6100    7.1500   46.3820 C.3    99  MET99       0.0692
    138  N        -13.1540    9.4820   48.6030 N.3   147  LEU147     -0.1245
    139  CA       -14.4800    9.9010   48.2360 C.3   147  LEU147      0.1561
    140  C        -15.5150    9.0570   48.8970 C.2   147  LEU147      0.2260
    141  O        -15.3020    7.8670   49.1290 O.2   147  LEU147     -0.2867
    142  CB       -14.6800    9.8120   46.7190 C.3   147  LEU147      0.0270
    143  CG       -13.6370   10.5460   45.8840 C.3   147  LEU147      0.0019
    144  CD1      -13.9100   10.3130   44.4140 C.3   147  LEU147      0.0001
    145  CD2      -13.6270   12.0050   46.2280 C.3   147  LEU147      0.0001
    146  N         -9.1150    7.4770   45.4830 N.3   156  CYS156     -0.1235
    147  CA        -8.9170    8.0440   44.1460 C.3   156  CYS156      0.1677
    148  C         -7.5590    8.7400   44.0790 C.2   156  CYS156      0.2270
    149  O         -6.8210    8.7560   45.0470 O.2   156  CYS156     -0.2867
    150  CB       -10.0430    9.0390   43.8110 C.3   156  CYS156      0.0956
    151  SG        -9.9450   10.6260   44.7270 S.3   156  CYS156     -0.0801
@<TRIPOS>BOND
     1    33    32    2
     2    32    31    1
     3    72    70    1
     4    30    31    1
     5    31    34    1
     6    71    69    1
     7    55    53    1
     8    97    98    1
     9    34    36    1
    10    34    35    1
    11   104   102    1
    12    53    54    1
    13    53    50    1
    14    70    69    1
    15    69    66    1
    16    98    99    1
    17    98   101    1
    18    24    23    2
    19   102   101    1
    20    35    37    1
    21    51    52    2
    22    51    50    1
    23    23    22    1
    24    99   100    2
    25    95    93    1
    26    50    49    1
    27   101   103    1
    28    66    67    1
    29    66    65    1
    30    67    68    2
    31    49    40   am
    32    21    22    1
    33    96    94    1
    34    38    39    1
    35    22    25    1
    36    92    91    2
    37    65    58   am
    38    93    94    1
    39    93    90    1
    40    91    90    1
    41    40    39    1
    42    40    41    2
    43    25    26    1
    44    39    42    1
    45    26    27    1
    46    90    89    1
    47    19    18    2
    48    58    59    2
    49    58    57    1
    50    56    57    1
    51   105   106    1
    52    18    17    1
    53    42    43    1
    54     9    10    1
    55    57    60    1
    56    11    10    1
    57    11    12    2
    58    27    28    1
    59    75    76    2
    60    75    74    1
    61    10    13    1
    62    28    29    1
    63    60    61    1
    64   106   107    1
    65   106   109    1
    66    73    74    1
    67    43    44    1
    68    17    16    1
    69    17    20    1
    70    77    74    1
    71    77    78    1
    72    44    45    1
    73   108   107    2
    74   110   109    1
    75   110   111    1
    76   107   114   am
    77    61    62    1
    78    13    15    1
    79    13    14    1
    80    79    78    1
    81    64    62   ar
    82   113   111   am
    83    78    80    1
    84   111   112    2
    85    62    63   ar
    86     1     2    1
    87   114   115    1
    88    45    46    2
    89   120   119   ar
    90    47    46    1
    91   115   116    1
    92   115   118    1
    93     6     8    1
    94     6     5    1
    95    46    48    1
    96     2     5    1
    97     2     3    1
    98   119   118    1
    99   119   121   ar
   100     7     5    1
   101   116   122   am
   102   116   117    2
   103   122   123    1
   104     3     4    2
   105    84    83    2
   106   126   123    1
   107   126   127    1
   108   129   127    1
   109    83    82    1
   110   123   124    1
   111   128   127    1
   112    86    88    1
   113    86    85    1
   114    87    85    1
   115    85    82    1
   116    82    81    1
   117   124   125    2
   118   124   130   am
   119   130   131    1
   120   150   147    1
   121   150   151    1
   122   148   147    1
   123   148   149    2
   124   147   146    1
   125   135   136    1
   126   135   134    1
   127   144   143    1
   128   131   134    1
   129   131   132    1
   130   136   137    1
   131   133   132    2
   132   143   145    1
   133   143   142    1
   134   142   139    1
   135   139   138    1
   136   139   140    1
   137   140   141    2
