@<TRIPOS>MOLECULE
tmp/4xp0A00.pdb
 102 96 0 0 0
SMALL
GASTEIGER

@<TRIPOS>ATOM
      1  N        -19.5820   18.2610   38.6660 N.3    22  ILE22      -0.1245
      2  CA       -19.3410   17.7970   40.0270 C.3    22  ILE22       0.1561
      3  C        -18.2350   18.6130   40.6770 C.2    22  ILE22       0.2260
      4  O        -18.4140   19.1770   41.7560 O.2    22  ILE22      -0.2867
      5  CB       -18.9520   16.3140   40.0620 C.3    22  ILE22       0.0252
      6  CG1      -20.1800   15.4400   39.7980 C.3    22  ILE22       0.0019
      7  CG2      -18.3310   15.9640   41.4110 C.3    22  ILE22       0.0019
      8  CD1      -19.8830   13.9530   39.8250 C.3    22  ILE22       0.0001
      9  N        -14.7040   16.7790   36.1880 N.3    30  VAL30      -0.1245
     10  CA       -15.5010   15.6130   36.5220 C.3    30  VAL30       0.1561
     11  C        -16.9750   15.9800   36.5280 C.2    30  VAL30       0.2260
     12  O        -17.3740   16.9840   37.1170 O.2    30  VAL30      -0.2867
     13  CB       -15.1130   15.0270   37.8900 C.3    30  VAL30       0.0252
     14  CG1      -15.9440   13.7920   38.1790 C.3    30  VAL30       0.0019
     15  CG2      -13.6300   14.6930   37.9060 C.3    30  VAL30       0.0019
     16  N        -20.3430    8.5190   36.9670 N.3    43  ALA43      -0.1231
     17  CA       -19.3720    9.5930   37.0100 C.3    43  ALA43       0.1694
     18  C        -18.4860    9.5100   35.7710 C.2    43  ALA43       0.2592
     19  O        -18.1600    8.4100   35.3160 O.2    43  ALA43      -0.2718
     20  CB       -18.5180    9.4910   38.2780 C.3    43  ALA43       0.0304
     21  N        -18.1080   10.6690   35.2360 N.am   44  ILE44      -0.1966
     22  CA       -17.1770   10.7400   34.1100 C.3    44  ILE44       0.1727
     23  C        -16.0800   11.7650   34.3560 C.2    44  ILE44       0.2616
     24  O        -16.3510   12.9250   34.6810 O.2    44  ILE44      -0.2715
     25  CB       -17.8960   11.0790   32.7910 C.3    44  ILE44       0.0290
     26  CG1      -19.0930   10.1530   32.5940 C.3    44  ILE44       0.0022
     27  CG2      -16.9070   10.9920   31.6160 C.3    44  ILE44       0.0023
     28  CD1      -19.8520   10.3670   31.2740 C.3    44  ILE44       0.0001
     29  N        -14.8340   11.3270   34.2100 N.am   45  LYS45      -0.1977
     30  CA       -13.6890   12.2170   34.3560 C.3    45  LYS45       0.1596
     31  C        -13.0130   12.4160   32.9960 C.2    45  LYS45       0.2287
     32  O        -12.8380   11.4610   32.2380 O.2    45  LYS45      -0.2864
     33  CB       -12.6970   11.6660   35.3910 C.3    45  LYS45       0.0298
     34  CG       -12.1120   10.3100   35.0290 C.3    45  LYS45       0.0038
     35  CD       -11.4900    9.6120   36.2290 C.3    45  LYS45       0.0206
     36  CE       -10.1350   10.1920   36.5650 C.3    45  LYS45       0.1093
     37  NZ        -9.4190    9.3570   37.5740 N.3    45  LYS45      -0.1314
     38  N        -12.2820    0.9700   42.8260 N.3    75  ILE75      -0.1245
     39  CA       -13.1390    1.5410   41.7830 C.3    75  ILE75       0.1561
     40  C        -12.7930    0.8810   40.4380 C.2    75  ILE75       0.2260
     41  O        -11.6130    0.6450   40.1220 O.2    75  ILE75      -0.2867
     42  CB       -12.9860    3.0890   41.7060 C.3    75  ILE75       0.0252
     43  CG1      -14.1120    3.7070   40.8640 C.3    75  ILE75       0.0019
     44  CG2      -11.6270    3.4990   41.1520 C.3    75  ILE75       0.0019
     45  CD1      -15.4640    3.5920   41.5030 C.3    75  ILE75       0.0001
     46  N        -17.0600    5.7610   35.4850 N.3    96  GLN96      -0.1231
     47  CA       -16.9990    4.9380   36.6940 C.3    96  GLN96       0.1698
     48  C        -18.3060    5.0140   37.4850 C.2    96  GLN96       0.2592
     49  O        -19.1150    5.9250   37.2700 O.2    96  GLN96      -0.2718
     50  CB       -15.8290    5.4030   37.5780 C.3    96  GLN96       0.0381
     51  CG       -14.4830    5.2870   36.8900 C.3    96  GLN96       0.0905
     52  CD       -13.3390    5.8110   37.7360 C.2    96  GLN96       0.2608
     53  OE1      -13.4180    6.9040   38.2810 O.2    96  GLN96      -0.2717
     54  NE2      -12.2790    5.0140   37.8740 N.am   96  GLN96      -0.0878
     55  N        -18.5080    4.0690   38.4050 N.am   97  ASP97      -0.1960
     56  CA       -19.6510    4.1290   39.3060 C.3    97  ASP97       0.1840
     57  C        -19.7150    5.5100   39.9740 C.2    97  ASP97       0.2622
     58  O        -18.6970    6.0480   40.4260 O.2    97  ASP97      -0.2715
     59  CB       -19.5620    3.0330   40.3800 C.3    97  ASP97       0.1450
     60  CG       -19.5390    1.6200   39.8010 C.2    97  ASP97       0.3671
     61  OD1      -20.0230    1.4050   38.6660 O.co2  97  ASP97      -0.2456
     62  OD2      -19.0460    0.7020   40.4990 O.co2  97  ASP97      -0.2456
     63  N        -20.9150    6.0850   40.0320 N.am   98  LEU98      -0.1963
     64  CA       -21.1160    7.3540   40.7180 C.3    98  LEU98       0.1728
     65  C        -21.2400    7.0380   42.1990 C.2    98  LEU98       0.2616
     66  O        -22.0100    6.1610   42.5990 O.2    98  LEU98      -0.2715
     67  CB       -22.3910    8.0480   40.2140 C.3    98  LEU98       0.0311
     68  CG       -22.7580    9.4050   40.8170 C.3    98  LEU98       0.0022
     69  CD1      -21.7140   10.4710   40.4970 C.3    98  LEU98       0.0001
     70  CD2      -24.1440    9.8410   40.3320 C.3    98  LEU98       0.0001
     71  N        -20.4640    7.7410   43.0100 N.am   99  MET99      -0.1963
     72  CA       -20.4530    7.4730   44.4360 C.3    99  MET99       0.1736
     73  C        -20.9260    8.7220   45.1870 C.2    99  MET99       0.2616
     74  O        -20.5200    9.8320   44.8770 O.2    99  MET99      -0.2715
     75  CB       -19.0380    7.0560   44.8580 C.3    99  MET99       0.0427
     76  CG       -18.5240    5.7960   44.1370 C.3    99  MET99       0.0599
     77  SD       -19.2470    4.2430   44.7230 S.3    99  MET99      -0.1393
     78  CE       -18.2810    3.9230   46.2080 C.3    99  MET99       0.0692
     79  N        -21.7860    8.5320   46.1800 N.am  100  GLU100     -0.1963
     80  CA       -22.3740    9.6570   46.9080 C.3   100  GLU100      0.1733
     81  C        -21.3390   10.6780   47.3880 C.2   100  GLU100      0.2617
     82  O        -21.5280   11.8950   47.2500 O.2   100  GLU100     -0.2715
     83  CB       -23.2060    9.1440   48.0940 C.3   100  GLU100      0.0429
     84  CG       -23.7970   10.2530   48.9550 C.3   100  GLU100      0.1163
     85  CD       -24.8720    9.7570   49.9040 C.2   100  GLU100      0.3649
     86  OE1      -25.9100    9.2540   49.4250 O.co2 100  GLU100     -0.2457
     87  OE2      -24.6810    9.8790   51.1300 O.co2 100  GLU100     -0.2457
     88  N        -20.2310   10.1970   47.9460 N.am  101  THR101     -0.1951
     89  CA       -19.2960   11.1060   48.5900 C.3   101  THR101      0.1897
     90  C        -17.9050   10.4750   48.6640 C.2   101  THR101      0.2313
     91  O        -17.6390    9.4830   47.9880 O.2   101  THR101     -0.2863
     92  CB       -19.8350   11.5220   50.0000 C.3   101  THR101      0.1794
     93  OG1      -19.0730   12.6110   50.5280 O.3   101  THR101     -0.2208
     94  CG2      -19.8280   10.3680   50.9600 C.3   101  THR101      0.0378
     95  N        -13.7140    6.6110   47.9810 N.3   146  LEU146     -0.1245
     96  CA       -15.0940    6.9210   47.6260 C.3   146  LEU146      0.1561
     97  C        -16.0930    6.0970   48.4310 C.2   146  LEU146      0.2260
     98  O        -15.8350    4.9350   48.7480 O.2   146  LEU146     -0.2867
     99  CB       -15.3140    6.6540   46.1350 C.3   146  LEU146      0.0270
    100  CG       -14.7600    7.6410   45.1020 C.3   146  LEU146      0.0019
    101  CD1      -13.6240    8.4960   45.6680 C.3   146  LEU146      0.0001
    102  CD2      -14.3020    6.8810   43.8610 C.3   146  LEU146      0.0001
@<TRIPOS>BOND
     1    28    26    1
     2    27    25    1
     3    32    31    2
     4    26    25    1
     5    25    22    1
     6    31    30    1
     7    22    23    1
     8    22    21    1
     9    29    30    1
    10    29    23   am
    11    30    33    1
    12    23    24    2
    13    34    33    1
    14    34    35    1
    15    21    18   am
    16    19    18    2
    17    46    47    1
    18    18    17    1
    19     9    10    1
    20    35    36    1
    21    10    11    1
    22    10    13    1
    23    11    12    2
    24    36    37    1
    25    47    48    1
    26    47    50    1
    27    51    50    1
    28    51    52    1
    29    16    17    1
    30    17    20    1
    31    49    48    2
    32    48    55   am
    33    52    54   am
    34    52    53    2
    35    13    15    1
    36    13    14    1
    37    55    56    1
    38    61    60   ar
    39     1     2    1
    40    56    57    1
    41    56    59    1
    42     6     8    1
    43     6     5    1
    44    60    59    1
    45    60    62   ar
    46    57    63   am
    47    57    58    2
    48     2     5    1
    49     2     3    1
    50    63    64    1
    51     5     7    1
    52    41    40    2
    53    67    64    1
    54    67    68    1
    55    70    68    1
    56    40    39    1
    57    69    68    1
    58     3     4    2
    59    64    65    1
    60    43    45    1
    61    43    42    1
    62    44    42    1
    63    42    39    1
    64    39    38    1
    65    65    66    2
    66    65    71   am
    67    71    72    1
    68   102   100    1
    69    76    77    1
    70    76    75    1
    71    72    75    1
    72    72    73    1
    73    77    78    1
    74    74    73    2
    75   100   101    1
    76   100    99    1
    77    73    79   am
    78    99    96    1
    79    79    80    1
    80    80    81    1
    81    80    83    1
    82    82    81    2
    83    81    88   am
    84    96    95    1
    85    96    97    1
    86    88    89    1
    87    91    90    2
    88    83    84    1
    89    97    98    2
    90    89    90    1
    91    89    92    1
    92    84    85    1
    93    86    85   ar
    94    85    87   ar
    95    92    93    1
    96    92    94    1
