@<TRIPOS>MOLECULE
tmp/4xp1A03.pdb
 89 84 0 0 0
SMALL
GASTEIGER

@<TRIPOS>ATOM
      1  N         -4.1110    9.6210  -29.0010 N.3    19  PHE19      -0.1241
      2  CA        -5.1600    8.6180  -28.9520 C.3    19  PHE19       0.1605
      3  C         -4.6420    7.2660  -29.4400 C.2    19  PHE19       0.2264
      4  O         -4.8400    6.2450  -28.7820 O.2    19  PHE19      -0.2867
      5  CB        -6.3620    9.0630  -29.7880 C.3    19  PHE19       0.0534
      6  CG        -7.3760    7.9890  -29.9950 C.ar   19  PHE19      -0.0203
      7  CD1       -8.0550    7.4420  -28.9210 C.ar   19  PHE19      -0.0042
      8  CD2       -7.6530    7.5210  -31.2660 C.ar   19  PHE19      -0.0042
      9  CE1       -8.9960    6.4390  -29.1090 C.ar   19  PHE19      -0.0003
     10  CE2       -8.6030    6.5190  -31.4660 C.ar   19  PHE19      -0.0003
     11  CZ        -9.2710    5.9770  -30.3830 C.ar   19  PHE19      -0.0000
     12  N         -0.6960    3.8230  -27.5450 N.3    22  ASP22      -0.1239
     13  CA        -1.4670    3.2400  -26.4680 C.3    22  ASP22       0.1674
     14  C         -0.6810    2.0850  -25.8720 C.2    22  ASP22       0.2266
     15  O          0.3960    1.7610  -26.3580 O.2    22  ASP22      -0.2867
     16  CB        -2.8080    2.7700  -27.0260 C.3    22  ASP22       0.1410
     17  CG        -3.7350    2.2610  -25.9690 C.2    22  ASP22       0.3668
     18  OD1       -3.8760    2.9560  -24.9440 O.co2  22  ASP22      -0.2456
     19  OD2       -4.3120    1.1660  -26.1610 O.co2  22  ASP22      -0.2456
     20  N        -17.5370    3.0320  -27.5300 N.3    93  ALA93      -0.1245
     21  CA       -16.6160    3.9130  -26.8210 C.3    93  ALA93       0.1562
     22  C        -17.0590    4.0670  -25.3780 C.2    93  ALA93       0.2260
     23  O        -16.2270    4.1440  -24.4750 O.2    93  ALA93      -0.2867
     24  CB       -16.5300    5.2720  -27.4980 C.3    93  ALA93       0.0290
     25  N        -16.2280    0.9230  -23.1430 N.3    96  VAL96      -0.1231
     26  CA       -14.7890    0.8150  -22.9570 C.3    96  VAL96       0.1692
     27  C        -14.2880    1.7320  -21.8440 C.2    96  VAL96       0.2592
     28  O        -13.4270    1.3440  -21.0620 O.2    96  VAL96      -0.2718
     29  CB       -14.0310    1.1390  -24.2540 C.3    96  VAL96       0.0266
     30  CG1      -12.5290    1.1240  -23.9970 C.3    96  VAL96       0.0020
     31  CG2      -14.4030    0.1540  -25.3540 C.3    96  VAL96       0.0020
     32  N        -14.8360    2.9390  -21.7620 N.am   97  ASP97      -0.1974
     33  CA       -14.4190    3.8920  -20.7360 C.3    97  ASP97       0.1709
     34  C        -14.6150    3.3060  -19.3290 C.2    97  ASP97       0.2293
     35  O        -13.9730    3.7370  -18.3670 O.2    97  ASP97      -0.2864
     36  CB       -15.1870    5.2170  -20.8820 C.3    97  ASP97       0.1436
     37  CG       -14.2920    6.3830  -21.3360 C.2    97  ASP97       0.3671
     38  OD1      -13.0490    6.3020  -21.1800 O.co2  97  ASP97      -0.2456
     39  OD2      -14.8330    7.3910  -21.8440 O.co2  97  ASP97      -0.2456
     40  N        -11.4050    0.6660  -19.0420 N.3   100  TYR100     -0.1241
     41  CA       -10.0960    0.9710  -19.6040 C.3   100  TYR100      0.1605
     42  C         -9.2740    1.8260  -18.6550 C.2   100  TYR100      0.2264
     43  O         -8.0540    1.6580  -18.5240 O.2   100  TYR100     -0.2867
     44  CB       -10.2360    1.6670  -20.9500 C.3   100  TYR100      0.0534
     45  CG        -8.9160    1.8870  -21.6330 C.ar  100  TYR100     -0.0201
     46  CD1       -8.2270    3.0770  -21.4770 C.ar  100  TYR100     -0.0009
     47  CD2       -8.3520    0.9000  -22.4290 C.ar  100  TYR100     -0.0009
     48  CE1       -7.0170    3.2850  -22.0980 C.ar  100  TYR100      0.0417
     49  CE2       -7.1410    1.0970  -23.0570 C.ar  100  TYR100      0.0417
     50  CZ        -6.4810    2.2940  -22.8850 C.ar  100  TYR100      0.1957
     51  OH        -5.2750    2.5110  -23.4940 O.3   100  TYR100     -0.2866
     52  N         -6.6670   -2.8690  -34.4740 N.3   254  PHE254     -0.1241
     53  CA        -6.9380   -2.3650  -33.1280 C.3   254  PHE254      0.1605
     54  C         -5.9390   -1.2900  -32.7050 C.2   254  PHE254      0.2264
     55  O         -6.1720   -0.5640  -31.7430 O.2   254  PHE254     -0.2867
     56  CB        -6.9280   -3.5100  -32.1110 C.3   254  PHE254      0.0534
     57  CG        -8.1140   -4.4170  -32.2120 C.ar  254  PHE254     -0.0203
     58  CD1       -9.3110   -4.0800  -31.6190 C.ar  254  PHE254     -0.0042
     59  CD2       -8.0320   -5.6070  -32.9030 C.ar  254  PHE254     -0.0042
     60  CE1      -10.4060   -4.9140  -31.7120 C.ar  254  PHE254     -0.0003
     61  CE2       -9.1250   -6.4410  -33.0000 C.ar  254  PHE254     -0.0003
     62  CZ       -10.3120   -6.0940  -32.4010 C.ar  254  PHE254     -0.0000
     63  N        -14.4070    3.8570  -32.8140 N.3   260  PHE260     -0.1241
     64  CA       -14.9220    4.5070  -31.6090 C.3   260  PHE260      0.1605
     65  C        -15.5410    5.8810  -31.8540 C.2   260  PHE260      0.2264
     66  O        -16.0370    6.5020  -30.9140 O.2   260  PHE260     -0.2867
     67  CB       -13.8170    4.6480  -30.5740 C.3   260  PHE260      0.0534
     68  CG       -13.1940    3.3500  -30.1790 C.ar  260  PHE260     -0.0203
     69  CD1      -13.6530    2.6530  -29.0790 C.ar  260  PHE260     -0.0042
     70  CD2      -12.1420    2.8300  -30.9010 C.ar  260  PHE260     -0.0042
     71  CE1      -13.0730    1.4620  -28.7080 C.ar  260  PHE260     -0.0003
     72  CE2      -11.5600    1.6440  -30.5300 C.ar  260  PHE260     -0.0003
     73  CZ       -12.0260    0.9580  -29.4350 C.ar  260  PHE260     -0.0000
     74  N         -5.4680    8.1730  -24.8250 N.3   356  SER356     -0.1202
     75  CA        -6.4400    7.2600  -25.4040 C.3   356  SER356      0.2020
     76  C         -7.7880    7.4690  -24.7620 C.2   356  SER356      0.2619
     77  O         -8.7830    7.7190  -25.4450 O.2   356  SER356     -0.2717
     78  CB        -5.9920    5.8150  -25.2280 C.3   356  SER356      0.2103
     79  OG        -4.8600    5.5480  -26.0320 O.3   356  SER356     -0.2182
     80  N         -7.7990    7.3670  -23.4390 N.am  357  SER357     -0.1951
     81  CA        -8.9890    7.6230  -22.6460 C.3   357  SER357      0.1924
     82  C         -9.6240    8.9710  -23.0240 C.2   357  SER357      0.2314
     83  O        -10.8340    9.0380  -23.2360 O.2   357  SER357     -0.2863
     84  CB        -8.6420    7.5830  -21.1550 C.3   357  SER357      0.2116
     85  OG        -9.8150    7.5430  -20.3640 O.3   357  SER357     -0.2180
     86  N        -11.4100    8.7400  -26.4450 N.3   360  GLY360     -0.1225
     87  CA       -12.5950    7.9030  -26.4000 C.3   360  GLY360      0.1811
     88  C        -13.7620    8.6520  -25.7890 C.2   360  GLY360      0.2280
     89  O        -14.8730    8.6400  -26.3200 O.2   360  GLY360     -0.2866
@<TRIPOS>BOND
     1    52    53    1
     2    53    54    1
     3    53    56    1
     4    61    59   ar
     5    61    62   ar
     6    59    57   ar
     7    63    64    1
     8    54    55    2
     9    62    60   ar
    10    57    56    1
    11    57    58   ar
    12    65    64    1
    13    65    66    2
    14    60    58   ar
    15    64    67    1
    16    10     8   ar
    17    10    11   ar
    18     8     6   ar
    19    70    72   ar
    20    70    68   ar
    21    67    68    1
    22    72    73   ar
    23    11     9   ar
    24    68    69   ar
    25     6     5    1
    26     6     7   ar
    27     5     2    1
    28     3     2    1
    29     3     4    2
    30    73    71   ar
    31     9     7   ar
    32    69    71   ar
    33     1     2    1
    34    12    13    1
    35    20    21    1
    36    24    21    1
    37    16    13    1
    38    16    17    1
    39    21    22    1
    40    13    14    1
    41    86    87    1
    42    87    88    1
    43    15    14    2
    44    89    88    2
    45    19    17   ar
    46    79    78    1
    47    17    18   ar
    48    77    76    2
    49    75    78    1
    50    75    74    1
    51    75    76    1
    52    22    23    2
    53    31    29    1
    54    76    80   am
    55    29    30    1
    56    29    26    1
    57    51    50    1
    58    80    81    1
    59    83    82    2
    60    25    26    1
    61    49    50   ar
    62    49    47   ar
    63    82    81    1
    64    26    27    1
    65    50    48   ar
    66    81    84    1
    67    47    45   ar
    68    48    46   ar
    69    27    32   am
    70    27    28    2
    71    39    37   ar
    72    32    33    1
    73    45    46   ar
    74    45    44    1
    75    37    38   ar
    76    37    36    1
    77    84    85    1
    78    44    41    1
    79    36    33    1
    80    33    34    1
    81    41    40    1
    82    41    42    1
    83    34    35    2
    84    42    43    2
