@<TRIPOS>MOLECULE
tmp/4xp4A05.pdb
 137 130 0 0 0
SMALL
GASTEIGER

@<TRIPOS>ATOM
      1  N        198.0450  290.3110   29.2220 N.3    19  PHE19      -0.1227
      2  CA       199.1420  289.3530   29.2190 C.3    19  PHE19       0.1736
      3  C        198.6740  287.9890   29.7180 C.2    19  PHE19       0.2595
      4  O        198.8340  286.9750   29.0390 O.2    19  PHE19      -0.2718
      5  CB       200.2980  289.8670   30.0800 C.3    19  PHE19       0.0547
      6  CG       201.3540  288.8390   30.3600 C.ar   19  PHE19      -0.0202
      7  CD1      202.2650  288.4760   29.3800 C.ar   19  PHE19      -0.0042
      8  CD2      201.4490  288.2450   31.6080 C.ar   19  PHE19      -0.0042
      9  CE1      203.2450  287.5330   29.6360 C.ar   19  PHE19      -0.0003
     10  CE2      202.4280  287.3050   31.8740 C.ar   19  PHE19      -0.0003
     11  CZ       203.3270  286.9450   30.8860 C.ar   19  PHE19      -0.0000
     12  N        198.0710  287.9760   30.9010 N.am   20  ALA20      -0.1980
     13  CA       197.6820  286.7310   31.5460 C.3    20  ALA20       0.1597
     14  C        196.5400  286.0300   30.8160 C.2    20  ALA20       0.2287
     15  O        196.4650  284.7980   30.8070 O.2    20  ALA20      -0.2864
     16  CB       197.2980  286.9910   32.9900 C.3    20  ALA20       0.0319
     17  N        194.8700  284.7350   27.6770 N.3    22  ASP22      -0.1239
     18  CA       195.1990  284.3600   26.3100 C.3    22  ASP22       0.1674
     19  C        194.4430  283.0980   25.9280 C.2    22  ASP22       0.2266
     20  O        193.5260  282.6810   26.6350 O.2    22  ASP22      -0.2867
     21  CB       196.7060  284.1600   26.1360 C.3    22  ASP22       0.1410
     22  CG       197.1980  282.8610   26.7370 C.2    22  ASP22       0.3668
     23  OD1      196.5760  282.3680   27.7030 O.co2  22  ASP22      -0.2456
     24  OD2      198.2220  282.3350   26.2470 O.co2  22  ASP22      -0.2456
     25  N        194.9700  280.2300   26.2880 N.3    24  ALA24      -0.1231
     26  CA       195.0020  279.2390   27.3640 C.3    24  ALA24       0.1694
     27  C        193.7990  279.3220   28.3220 C.2    24  ALA24       0.2592
     28  O        193.5500  278.3940   29.0930 O.2    24  ALA24      -0.2718
     29  CB       196.2980  279.3640   28.1500 C.3    24  ALA24       0.0304
     30  N        193.0510  280.4170   28.2760 N.am   25  ASN25      -0.1974
     31  CA       191.8510  280.5290   29.0980 C.3    25  ASN25       0.1688
     32  C        190.6340  279.9050   28.4140 C.2    25  ASN25       0.2292
     33  O        189.6060  279.6720   29.0490 O.2    25  ASN25      -0.2864
     34  CB       191.5820  281.9930   29.4360 C.3    25  ASN25       0.1181
     35  CG       192.7230  282.6260   30.2090 C.2    25  ASN25       0.2629
     36  OD1      193.8290  282.7670   29.6940 O.2    25  ASN25      -0.2716
     37  ND2      192.4560  283.0210   31.4460 N.am   25  ASN25      -0.0877
     38  N        211.4880  283.9480   27.5510 N.3    93  ALA93      -0.1245
     39  CA       210.5500  284.7870   26.8250 C.3    93  ALA93       0.1562
     40  C        211.0550  285.0420   25.4130 C.2    93  ALA93       0.2260
     41  O        210.2650  285.2150   24.4840 O.2    93  ALA93      -0.2867
     42  CB       210.3370  286.1000   27.5580 C.3    93  ALA93       0.0290
     43  N        210.2070  281.9800   23.3170 N.3    96  VAL96      -0.1231
     44  CA       208.7730  281.7340   23.2150 C.3    96  VAL96       0.1692
     45  C        208.0830  282.4420   22.0490 C.2    96  VAL96       0.2592
     46  O        207.1550  281.8910   21.4590 O.2    96  VAL96      -0.2718
     47  CB       208.0530  282.1300   24.5230 C.3    96  VAL96       0.0266
     48  CG1      206.5400  282.0510   24.3530 C.3    96  VAL96       0.0020
     49  CG2      208.5070  281.2330   25.6610 C.3    96  VAL96       0.0020
     50  N        208.5210  283.6450   21.6960 N.am   97  ASP97      -0.1974
     51  CA       207.8280  284.3630   20.6260 C.3    97  ASP97       0.1709
     52  C        208.4190  284.0450   19.2490 C.2    97  ASP97       0.2293
     53  O        208.0630  284.6750   18.2520 O.2    97  ASP97      -0.2864
     54  CB       207.8030  285.8740   20.8850 C.3    97  ASP97       0.1436
     55  CG       209.1430  286.4260   21.2800 C.2    97  ASP97       0.3671
     56  OD1      210.1040  285.6360   21.3690 O.co2  97  ASP97      -0.2456
     57  OD2      209.2290  287.6540   21.5160 O.co2  97  ASP97      -0.2456
     58  N        207.7080  281.1570   18.3080 N.3    99  TYR99      -0.1227
     59  CA       206.6280  280.2270   17.9760 C.3    99  TYR99       0.1736
     60  C        205.2670  280.8680   18.2650 C.2    99  TYR99       0.2595
     61  O        204.4250  280.9590   17.3730 O.2    99  TYR99      -0.2718
     62  CB       206.8070  278.8640   18.6770 C.3    99  TYR99       0.0548
     63  CG       206.3950  278.7330   20.1280 C.ar   99  TYR99      -0.0200
     64  CD1      205.0800  278.4520   20.4790 C.ar   99  TYR99      -0.0009
     65  CD2      207.3350  278.8280   21.1470 C.ar   99  TYR99      -0.0009
     66  CE1      204.7060  278.3080   21.8060 C.ar   99  TYR99       0.0417
     67  CE2      206.9710  278.6830   22.4750 C.ar   99  TYR99       0.0417
     68  CZ       205.6580  278.4240   22.7980 C.ar   99  TYR99       0.1957
     69  OH       205.2990  278.2790   24.1180 O.3    99  TYR99      -0.2866
     70  N        205.0520  281.2820   19.5100 N.am  100  TYR100     -0.1976
     71  CA       203.7480  281.7190   20.0070 C.3   100  TYR100      0.1639
     72  C        202.9890  282.6470   19.0510 C.2   100  TYR100      0.2290
     73  O        201.7680  282.5460   18.9270 O.2   100  TYR100     -0.2864
     74  CB       203.9390  282.4260   21.3530 C.3   100  TYR100      0.0560
     75  CG       202.6570  282.8180   22.0500 C.ar  100  TYR100     -0.0198
     76  CD1      202.0260  284.0210   21.7670 C.ar  100  TYR100     -0.0009
     77  CD2      202.0880  281.9910   23.0080 C.ar  100  TYR100     -0.0009
     78  CE1      200.8510  284.3800   22.4080 C.ar  100  TYR100      0.0417
     79  CE2      200.9200  282.3430   23.6530 C.ar  100  TYR100      0.0417
     80  CZ       200.3070  283.5350   23.3510 C.ar  100  TYR100      0.1957
     81  OH       199.1450  283.8760   23.9970 O.3   100  TYR100     -0.2866
     82  N        200.6500  277.9180   35.0470 N.3   254  PHE254     -0.1227
     83  CA       200.9500  278.3840   33.6980 C.3   254  PHE254      0.1736
     84  C        199.9600  279.4350   33.1940 C.2   254  PHE254      0.2596
     85  O        200.2720  280.1870   32.2730 O.2   254  PHE254     -0.2718
     86  CB       200.9970  277.2010   32.7290 C.3   254  PHE254      0.0547
     87  CG       202.2440  276.3710   32.8470 C.ar  254  PHE254     -0.0202
     88  CD1      203.4370  276.8100   32.2970 C.ar  254  PHE254     -0.0042
     89  CD2      202.2260  275.1500   33.5010 C.ar  254  PHE254     -0.0042
     90  CE1      204.5920  276.0520   32.4030 C.ar  254  PHE254     -0.0003
     91  CE2      203.3780  274.3870   33.6110 C.ar  254  PHE254     -0.0003
     92  CZ       204.5600  274.8400   33.0620 C.ar  254  PHE254     -0.0000
     93  N        198.7750  279.4960   33.7980 N.am  255  SER255     -0.1952
     94  CA       197.7720  280.4760   33.3870 C.3   255  SER255      0.1924
     95  C        198.1670  281.8830   33.8270 C.2   255  SER255      0.2314
     96  O        198.0900  282.8300   33.0470 O.2   255  SER255     -0.2863
     97  CB       196.3970  280.1170   33.9480 C.3   255  SER255      0.2116
     98  OG       195.4430  281.1070   33.6040 O.3   255  SER255     -0.2180
     99  N        201.2000  284.4370   34.8830 N.3   257  GLY257     -0.1225
    100  CA       202.4060  284.5400   34.0740 C.3   257  GLY257      0.1811
    101  C        203.7960  284.6190   34.6910 C.2   257  GLY257      0.2280
    102  O        204.7070  285.1430   34.0450 O.2   257  GLY257     -0.2866
    103  N        208.4650  284.7450   33.2590 N.3   260  PHE260     -0.1241
    104  CA       208.8980  285.3960   32.0240 C.3   260  PHE260      0.1605
    105  C        209.4580  286.7950   32.2560 C.2   260  PHE260      0.2264
    106  O        209.9220  287.4480   31.3220 O.2   260  PHE260     -0.2867
    107  CB       207.7410  285.4730   31.0330 C.3   260  PHE260      0.0534
    108  CG       207.1900  284.1350   30.6410 C.ar  260  PHE260     -0.0203
    109  CD1      207.7900  283.3880   29.6400 C.ar  260  PHE260     -0.0042
    110  CD2      206.0700  283.6230   31.2720 C.ar  260  PHE260     -0.0042
    111  CE1      207.2800  282.1580   29.2770 C.ar  260  PHE260     -0.0003
    112  CE2      205.5520  282.3960   30.9080 C.ar  260  PHE260     -0.0003
    113  CZ       206.1600  281.6610   29.9110 C.ar  260  PHE260     -0.0000
    114  N        199.3720  289.3150   24.9050 N.3   356  SER356     -0.1202
    115  CA       200.2810  288.3550   25.5220 C.3   356  SER356      0.2020
    116  C        201.6790  288.5170   24.9500 C.2   356  SER356      0.2619
    117  O        202.6650  288.5310   25.6870 O.2   356  SER356     -0.2717
    118  CB       199.7930  286.9210   25.3170 C.3   356  SER356      0.2103
    119  OG       199.0040  286.4860   26.4130 O.3   356  SER356     -0.2182
    120  N        201.7560  288.6410   23.6300 N.am  357  SER357     -0.1951
    121  CA       203.0290  288.8580   22.9600 C.3   357  SER357      0.1924
    122  C        203.6220  290.2000   23.3810 C.2   357  SER357      0.2314
    123  O        204.8400  290.3420   23.4890 O.2   357  SER357     -0.2863
    124  CB       202.8550  288.7990   21.4400 C.3   357  SER357      0.2116
    125  OG       204.1080  288.8320   20.7780 O.3   357  SER357     -0.2180
    126  N        205.3040  289.7280   26.6850 N.3   360  GLY360     -0.1225
    127  CA       206.4300  288.8400   26.4680 C.3   360  GLY360      0.1811
    128  C        207.6320  289.5770   25.9150 C.2   360  GLY360      0.2280
    129  O        208.7240  289.5150   26.4790 O.2   360  GLY360     -0.2866
    130  N        206.9110  274.6410   21.6230 N.3   410  ASP410     -0.1239
    131  CA       205.8250  274.7270   22.5950 C.3   410  ASP410      0.1674
    132  C        206.1310  273.8830   23.8250 C.2   410  ASP410      0.2266
    133  O        205.9460  274.3270   24.9570 O.2   410  ASP410     -0.2867
    134  CB       204.5030  274.2800   21.9680 C.3   410  ASP410      0.1410
    135  CG       203.3190  274.4760   22.8980 C.2   410  ASP410      0.3668
    136  OD1      203.2710  275.5120   23.5950 O.co2 410  ASP410     -0.2456
    137  OD2      202.4380  273.5920   22.9330 O.co2 410  ASP410     -0.2456
@<TRIPOS>BOND
     1    61    60    2
     2    59    60    1
     3    59    58    1
     4    59    62    1
     5    53    52    2
     6    60    70   am
     7    62    63    1
     8    73    72    2
     9    72    71    1
    10    52    51    1
    11    70    71    1
    12    71    74    1
    13    63    64   ar
    14    63    65   ar
    15    64    66   ar
    16    51    54    1
    17    51    50    1
    18   125   124    1
    19    54    55    1
    20    65    67   ar
    21    55    56   ar
    22    55    57   ar
    23    74    75    1
    24   124   121    1
    25    46    45    2
    26   130   131    1
    27    50    45   am
    28    76    75   ar
    29    76    78   ar
    30    66    68   ar
    31   134   131    1
    32   134   135    1
    33    45    44    1
    34    75    77   ar
    35    78    80   ar
    36    67    68   ar
    37   131   132    1
    38    68    69    1
    39   135   137   ar
    40   135   136   ar
    41   121   122    1
    42   121   120    1
    43    77    79   ar
    44    44    43    1
    45    44    47    1
    46    80    79   ar
    47    80    81    1
    48   122   123    2
    49   120   116   am
    50   132   133    2
    51    48    47    1
    52    41    40    2
    53    47    49    1
    54   114   115    1
    55   116   115    1
    56   116   117    2
    57   118   115    1
    58   118   119    1
    59    40    39    1
    60   128   127    1
    61   128   129    2
    62    19    18    1
    63    19    20    2
    64    21    18    1
    65    21    22    1
    66    24    22   ar
    67    25    26    1
    68    18    17    1
    69   127   126    1
    70    22    23   ar
    71    39    38    1
    72    39    42    1
    73    26    29    1
    74    26    27    1
    75    30    27   am
    76    30    31    1
    77    27    28    2
    78    32    33    2
    79    32    31    1
    80     4     3    2
    81    31    34    1
    82     2     1    1
    83     2     3    1
    84     2     5    1
    85   111   109   ar
    86   111   113   ar
    87     7     9   ar
    88     7     6   ar
    89    34    35    1
    90     9    11   ar
    91   109   108   ar
    92    36    35    2
    93     3    12   am
    94   113   112   ar
    95     5     6    1
    96    35    37   am
    97     6     8   ar
    98   108   107    1
    99   108   110   ar
   100    15    14    2
   101    14    13    1
   102    11    10   ar
   103    12    13    1
   104   112   110   ar
   105   107   104    1
   106   106   105    2
   107    13    16    1
   108     8    10   ar
   109   104   105    1
   110   104   103    1
   111    85    84    2
   112    88    90   ar
   113    88    87   ar
   114    90    92   ar
   115    86    87    1
   116    86    83    1
   117    87    89   ar
   118    96    95    2
   119    92    91   ar
   120    84    83    1
   121    84    93   am
   122    94    93    1
   123    94    95    1
   124    94    97    1
   125    89    91   ar
   126    98    97    1
   127    83    82    1
   128   102   101    2
   129   100   101    1
   130   100    99    1
