@<TRIPOS>MOLECULE
tmp/4xp4A01.pdb
 125 118 0 0 0
SMALL
GASTEIGER

@<TRIPOS>ATOM
      1  N        192.3810  275.3400   27.4110 N.3    28  ARG28      -0.1245
      2  CA       192.7180  274.2660   28.3270 C.3    28  ARG28       0.1563
      3  C        191.8000  274.1340   29.5190 C.2    28  ARG28       0.2260
      4  O        191.4360  273.0660   29.9140 O.2    28  ARG28      -0.2867
      5  CB       194.1620  274.3520   28.7710 C.3    28  ARG28       0.0307
      6  CG       194.5300  273.2830   29.7700 C.3    28  ARG28       0.0489
      7  CD       195.8940  272.6920   29.5160 C.3    28  ARG28       0.2205
      8  NE       196.0960  271.4830   30.2920 N.pl3  28  ARG28      -0.0865
      9  CZ       195.9440  270.2630   29.8100 C.cat  28  ARG28       0.5346
     10  NH1      195.5940  270.0870   28.5490 N.pl3  28  ARG28       0.1354
     11  NH2      196.1460  269.2240   30.5880 N.pl3  28  ARG28       0.1354
     12  N        196.2650  262.9280   39.7780 N.3   243  GLU243     -0.1245
     13  CA       196.3390  263.5530   38.4630 C.3   243  GLU243      0.1567
     14  C        195.4860  264.8180   38.3940 C.2   243  GLU243      0.2260
     15  O        195.8100  265.7550   37.6660 O.2   243  GLU243     -0.2867
     16  CB       195.9030  262.5670   37.3780 C.3   243  GLU243      0.0388
     17  CG       195.9970  263.2410   36.0160 C.3   243  GLU243      0.1160
     18  CD       197.4070  263.0290   35.4840 C.2   243  GLU243      0.3649
     19  OE1      197.9310  261.9180   35.7230 O.co2 243  GLU243     -0.2457
     20  OE2      197.9140  263.9780   34.8550 O.co2 243  GLU243     -0.2457
     21  N        197.3020  267.6250   40.2510 N.3   246  VAL246     -0.1231
     22  CA       198.4330  268.0230   39.4240 C.3   246  VAL246      0.1692
     23  C        197.9840  268.9010   38.2600 C.2   246  VAL246      0.2592
     24  O        198.6500  269.8790   37.9170 O.2   246  VAL246     -0.2718
     25  CB       199.1870  266.8000   38.8700 C.3   246  VAL246      0.0266
     26  CG1      200.2350  267.2340   37.8560 C.3   246  VAL246      0.0020
     27  CG2      199.8190  266.0060   40.0030 C.3   246  VAL246      0.0020
     28  N        196.8550  268.5470   37.6510 N.am  247  ASP247     -0.1974
     29  CA       196.2990  269.3430   36.5630 C.3   247  ASP247      0.1709
     30  C        195.8800  270.7120   37.0710 C.2   247  ASP247      0.2293
     31  O        196.0960  271.7220   36.4030 O.2   247  ASP247     -0.2864
     32  CB       195.1030  268.6390   35.9170 C.3   247  ASP247      0.1436
     33  CG       195.5150  267.4960   35.0110 C.2   247  ASP247      0.3671
     34  OD1      196.6890  267.4670   34.5780 O.co2 247  ASP247     -0.2456
     35  OD2      194.6580  266.6310   34.7260 O.co2 247  ASP247     -0.2456
     36  N        199.2330  272.7040   37.9140 N.3   250  THR250     -0.1218
     37  CA       199.9190  273.0640   36.6810 C.3   250  THR250      0.1862
     38  C        199.1820  274.1610   35.9180 C.2   250  THR250      0.2287
     39  O        199.7880  275.1480   35.4950 O.2   250  THR250     -0.2866
     40  CB       200.0880  271.8420   35.7640 C.3   250  THR250      0.1770
     41  OG1      200.7840  270.8070   36.4690 O.3   250  THR250     -0.2211
     42  CG2      200.8720  272.2150   34.5200 C.3   250  THR250      0.0375
     43  N        200.6500  277.9180   35.0470 N.3   254  PHE254     -0.1241
     44  CA       200.9500  278.3840   33.6980 C.3   254  PHE254      0.1605
     45  C        199.9600  279.4350   33.1940 C.2   254  PHE254      0.2264
     46  O        200.2720  280.1870   32.2730 O.2   254  PHE254     -0.2867
     47  CB       200.9970  277.2010   32.7290 C.3   254  PHE254      0.0534
     48  CG       202.2440  276.3710   32.8470 C.ar  254  PHE254     -0.0203
     49  CD1      203.4370  276.8100   32.2970 C.ar  254  PHE254     -0.0042
     50  CD2      202.2260  275.1500   33.5010 C.ar  254  PHE254     -0.0042
     51  CE1      204.5920  276.0520   32.4030 C.ar  254  PHE254     -0.0003
     52  CE2      203.3780  274.3870   33.6110 C.ar  254  PHE254     -0.0003
     53  CZ       204.5600  274.8400   33.0620 C.ar  254  PHE254     -0.0000
     54  N        206.9110  274.6410   21.6230 N.3   410  ASP410     -0.1225
     55  CA       205.8250  274.7270   22.5950 C.3   410  ASP410      0.1805
     56  C        206.1310  273.8830   23.8250 C.2   410  ASP410      0.2597
     57  O        205.9460  274.3270   24.9570 O.2   410  ASP410     -0.2718
     58  CB       204.5030  274.2800   21.9680 C.3   410  ASP410      0.1424
     59  CG       203.3190  274.4760   22.8980 C.2   410  ASP410      0.3668
     60  OD1      203.2710  275.5120   23.5950 O.co2 410  ASP410     -0.2456
     61  OD2      202.4380  273.5920   22.9330 O.co2 410  ASP410     -0.2456
     62  N        206.6230  272.6720   23.5910 N.am  411  ARG411     -0.1979
     63  CA       206.9510  271.7600   24.6740 C.3   411  ARG411      0.1597
     64  C        208.1830  272.2260   25.4460 C.2   411  ARG411      0.2287
     65  O        208.1590  272.3270   26.6720 O.2   411  ARG411     -0.2864
     66  CB       207.1780  270.3520   24.1250 C.3   411  ARG411      0.0334
     67  CG       207.2220  269.2710   25.1910 C.3   411  ARG411      0.0492
     68  CD       207.1300  267.8810   24.5780 C.3   411  ARG411      0.2205
     69  NE       206.7570  266.8740   25.5670 N.pl3 411  ARG411     -0.0865
     70  CZ       207.6270  266.2120   26.3210 C.cat 411  ARG411      0.5346
     71  NH1      208.9260  266.4480   26.1950 N.pl3 411  ARG411      0.1354
     72  NH2      207.1990  265.3150   27.2000 N.pl3 411  ARG411      0.1354
     73  N        209.5970  277.1150   27.4340 N.3   414  ALA414     -0.1231
     74  CA       209.7010  276.6190   28.8010 C.3   414  ALA414      0.1694
     75  C        208.4890  275.7730   29.1710 C.2   414  ALA414      0.2593
     76  O        207.4060  276.3210   29.3890 O.2   414  ALA414     -0.2718
     77  CB       209.8530  277.7850   29.7760 C.3   414  ALA414      0.0304
     78  N        208.6420  274.4500   29.2350 N.am  415  GLY415     -0.1942
     79  CA       207.8650  273.6500   30.1580 C.3   415  GLY415      0.2014
     80  C        208.4690  273.5350   31.5420 C.2   415  GLY415      0.2638
     81  O        207.8520  273.8750   32.5500 O.2   415  GLY415     -0.2714
     82  N        209.7160  273.0640   31.5630 N.am  416  TYR416     -0.1973
     83  CA       210.4990  272.9290   32.7840 C.3   416  TYR416      0.1639
     84  C        211.4780  274.0770   32.9500 C.2   416  TYR416      0.2290
     85  O        212.1610  274.1840   33.9690 O.2   416  TYR416     -0.2864
     86  CB       211.2700  271.6070   32.7850 C.3   416  TYR416      0.0560
     87  CG       210.4160  270.3660   32.6340 C.ar  416  TYR416     -0.0198
     88  CD1      209.7940  269.7870   33.7340 C.ar  416  TYR416     -0.0009
     89  CD2      210.2510  269.7620   31.3940 C.ar  416  TYR416     -0.0009
     90  CE1      209.0190  268.6470   33.6000 C.ar  416  TYR416      0.0417
     91  CE2      209.4780  268.6250   31.2490 C.ar  416  TYR416      0.0417
     92  CZ       208.8650  268.0700   32.3550 C.ar  416  TYR416      0.1957
     93  OH       208.0930  266.9390   32.2130 O.3   416  TYR416     -0.2866
     94  N        209.6990  276.5460   35.2290 N.3   419  LEU419     -0.1245
     95  CA       209.4240  275.9010   36.5070 C.3   419  LEU419      0.1561
     96  C        210.6090  276.0310   37.4570 C.2   419  LEU419      0.2260
     97  O        210.4500  276.4370   38.6070 O.2   419  LEU419     -0.2867
     98  CB       209.0740  274.4250   36.3030 C.3   419  LEU419      0.0270
     99  CG       207.6310  274.1020   35.9070 C.3   419  LEU419      0.0019
    100  CD1      207.4610  272.6150   35.6490 C.3   419  LEU419      0.0001
    101  CD2      206.6680  274.5650   36.9830 C.3   419  LEU419      0.0001
    102  N        204.6330  269.9340   40.9490 N.3   469  ILE469     -0.1245
    103  CA       204.3920  269.9820   39.5110 C.3   469  ILE469      0.1561
    104  C        205.5510  269.3820   38.7250 C.2   469  ILE469      0.2260
    105  O        205.3510  268.5340   37.8550 O.2   469  ILE469     -0.2867
    106  CB       204.1660  271.4290   39.0280 C.3   469  ILE469      0.0252
    107  CG1      202.9000  272.0130   39.6530 C.3   469  ILE469      0.0019
    108  CG2      204.0820  271.4870   37.5110 C.3   469  ILE469      0.0019
    109  CD1      202.6540  273.4550   39.2810 C.3   469  ILE469      0.0001
    110  N        205.8070  265.4580   39.2120 N.3   472  TYR472     -0.1227
    111  CA       204.7700  264.7240   38.4980 C.3   472  TYR472      0.1736
    112  C        204.8770  264.9430   36.9960 C.2   472  TYR472      0.2596
    113  O        204.3610  264.1530   36.2070 O.2   472  TYR472     -0.2718
    114  CB       203.3830  265.1290   38.9940 C.3   472  TYR472      0.0548
    115  CG       202.8900  264.2910   40.1510 C.ar  472  TYR472     -0.0200
    116  CD1      203.2640  264.5830   41.4570 C.ar  472  TYR472     -0.0009
    117  CD2      202.0520  263.2060   39.9350 C.ar  472  TYR472     -0.0009
    118  CE1      202.8140  263.8160   42.5180 C.ar  472  TYR472      0.0417
    119  CE2      201.5970  262.4350   40.9870 C.ar  472  TYR472      0.0417
    120  CZ       201.9810  262.7430   42.2760 C.ar  472  TYR472      0.1957
    121  OH       201.5260  261.9750   43.3220 O.3   472  TYR472     -0.2866
    122  N        205.5440  266.0230   36.6050 N.am  473  GLY473     -0.1957
    123  CA       205.7860  266.2950   35.2010 C.3   473  GLY473      0.1869
    124  C        206.8010  265.3280   34.6230 C.2   473  GLY473      0.2309
    125  O        206.5850  264.7450   33.5600 O.2   473  GLY473     -0.2863
@<TRIPOS>BOND
     1    54    55    1
     2    58    55    1
     3    58    59    1
     4    55    56    1
     5    59    61   ar
     6    59    60   ar
     7    62    56   am
     8    62    63    1
     9    56    57    2
    10    66    63    1
    11    66    67    1
    12    68    67    1
    13    68    69    1
    14    63    64    1
    15    64    65    2
    16    69    70    2
    17    71    70    1
    18    70    72    1
    19     1     2    1
    20    73    74    1
    21     2     5    1
    22     2     3    1
    23    10     9    1
    24     5     6    1
    25    74    75    1
    26    74    77    1
    27    75    78   am
    28    75    76    2
    29    78    79    1
    30     7     6    1
    31     7     8    1
    32     3     4    2
    33     9     8    2
    34     9    11    1
    35    79    80    1
    36    91    89   ar
    37    91    92   ar
    38    89    87   ar
    39    80    82   am
    40    80    81    2
    41    82    83    1
    42    93    92    1
    43    46    45    2
    44    49    51   ar
    45    49    48   ar
    46    92    90   ar
    47    51    53   ar
    48    87    86    1
    49    87    88   ar
    50    47    48    1
    51    47    44    1
    52    83    86    1
    53    83    84    1
    54    48    50   ar
    55    84    85    2
    56    53    52   ar
    57    45    44    1
    58    50    52   ar
    59   125   124    2
    60    90    88   ar
    61    44    43    1
    62    42    40    1
    63    34    33   ar
    64   124   123    1
    65    35    33   ar
    66    20    18   ar
    67    33    32    1
    68   123   122    1
    69    94    95    1
    70    18    19   ar
    71    18    17    1
    72    39    38    2
    73   100    99    1
    74    40    41    1
    75    40    37    1
    76    99    98    1
    77    99   101    1
    78    32    29    1
    79    38    37    1
    80    17    16    1
    81   113   112    2
    82    98    95    1
    83    31    30    2
    84    95    96    1
    85    29    30    1
    86    29    28    1
    87   122   112   am
    88    37    36    1
    89   112   111    1
    90    16    13    1
    91    96    97    2
    92   108   106    1
    93    28    23   am
    94    15    14    2
    95   105   104    2
    96    26    25    1
    97    24    23    2
    98    23    22    1
    99    14    13    1
   100    13    12    1
   101   111   114    1
   102   111   110    1
   103   104   103    1
   104    25    22    1
   105    25    27    1
   106   114   115    1
   107   106   103    1
   108   106   107    1
   109   109   107    1
   110    22    21    1
   111   103   102    1
   112   117   115   ar
   113   117   119   ar
   114   115   116   ar
   115   119   120   ar
   116   116   118   ar
   117   120   118   ar
   118   120   121    1
