@<TRIPOS>MOLECULE
tmp/4xp6A00.pdb
 130 124 0 0 0
SMALL
GASTEIGER

@<TRIPOS>ATOM
      1  N       -149.3630 -150.3480  194.7740 N.3    19  PHE19      -0.1227
      2  CA      -150.4060 -149.3300  194.7280 C.3    19  PHE19       0.1736
      3  C       -149.9420 -148.0200  195.3590 C.2    19  PHE19       0.2595
      4  O       -150.2190 -146.9380  194.8410 O.2    19  PHE19      -0.2718
      5  CB      -151.6690 -149.8290  195.4330 C.3    19  PHE19       0.0547
      6  CG      -152.6040 -148.7300  195.8480 C.ar   19  PHE19      -0.0202
      7  CD1     -153.4900 -148.1750  194.9400 C.ar   19  PHE19      -0.0042
      8  CD2     -152.5960 -148.2490  197.1480 C.ar   19  PHE19      -0.0042
      9  CE1     -154.3490 -147.1600  195.3190 C.ar   19  PHE19      -0.0003
     10  CE2     -153.4530 -147.2350  197.5330 C.ar   19  PHE19      -0.0003
     11  CZ      -154.3300 -146.6900  196.6180 C.ar   19  PHE19      -0.0000
     12  N       -149.2340 -148.1290  196.4780 N.am   20  ALA20      -0.1980
     13  CA      -148.8140 -146.9580  197.2390 C.3    20  ALA20       0.1597
     14  C       -147.7600 -146.1390  196.5030 C.2    20  ALA20       0.2287
     15  O       -147.7540 -144.9120  196.5850 O.2    20  ALA20      -0.2864
     16  CB      -148.2900 -147.3800  198.6020 C.3    20  ALA20       0.0319
     17  N       -146.2490 -144.4860  193.3600 N.3    22  ASP22      -0.1239
     18  CA      -146.6030 -144.0040  192.0290 C.3    22  ASP22       0.1674
     19  C       -145.7540 -142.7980  191.6440 C.2    22  ASP22       0.2266
     20  O       -144.8020 -142.4530  192.3440 O.2    22  ASP22      -0.2867
     21  CB      -148.0920 -143.6510  191.9540 C.3    22  ASP22       0.1410
     22  CG      -148.5180 -142.6640  193.0260 C.2    22  ASP22       0.3668
     23  OD1     -147.6410 -142.0460  193.6660 O.co2  22  ASP22      -0.2456
     24  OD2     -149.7400 -142.5020  193.2250 O.co2  22  ASP22      -0.2456
     25  N       -146.2660 -139.8320  191.9320 N.3    24  ALA24      -0.1245
     26  CA      -146.2910 -138.8220  192.9840 C.3    24  ALA24       0.1562
     27  C       -145.0660 -138.9490  193.8860 C.2    24  ALA24       0.2260
     28  O       -144.5960 -137.9650  194.4560 O.2    24  ALA24      -0.2867
     29  CB      -147.5680 -138.9380  193.8030 C.3    24  ALA24       0.0290
     30  N       -162.6750 -143.7800  192.9700 N.3    93  ALA93      -0.1245
     31  CA      -161.6610 -144.5540  192.2660 C.3    93  ALA93       0.1562
     32  C       -162.1140 -144.8340  190.8400 C.2    93  ALA93       0.2260
     33  O       -161.2980 -145.0930  189.9550 O.2    93  ALA93      -0.2867
     34  CB      -161.3740 -145.8510  193.0030 C.3    93  ALA93       0.0290
     35  N       -161.1490 -141.7070  188.8900 N.3    96  VAL96      -0.1231
     36  CA      -159.6990 -141.6180  188.7530 C.3    96  VAL96       0.1692
     37  C       -159.1780 -142.4340  187.5710 C.2    96  VAL96       0.2592
     38  O       -158.2420 -142.0200  186.8870 O.2    96  VAL96      -0.2718
     39  CB      -158.9890 -142.0870  190.0380 C.3    96  VAL96       0.0266
     40  CG1     -157.4830 -142.1050  189.8380 C.3    96  VAL96       0.0020
     41  CG2     -159.3680 -141.1910  191.2080 C.3    96  VAL96       0.0020
     42  N       -159.7870 -143.5900  187.3310 N.am   97  ASP97      -0.1974
     43  CA      -159.3480 -144.4700  186.2540 C.3    97  ASP97       0.1709
     44  C       -159.6680 -143.8900  184.8770 C.2    97  ASP97       0.2293
     45  O       -159.1100 -144.3230  183.8690 O.2    97  ASP97      -0.2864
     46  CB      -159.9840 -145.8560  186.4030 C.3    97  ASP97       0.1436
     47  CG      -159.3620 -146.6650  187.5290 C.2    97  ASP97       0.3671
     48  OD1     -158.8530 -146.0570  188.4950 O.co2  97  ASP97      -0.2456
     49  OD2     -159.3800 -147.9120  187.4470 O.co2  97  ASP97      -0.2456
     50  N       -158.9260 -140.9250  183.9840 N.3    99  TYR99      -0.1227
     51  CA      -157.8230 -140.0300  183.6460 C.3    99  TYR99       0.1736
     52  C       -156.4740 -140.6930  183.9520 C.2    99  TYR99       0.2595
     53  O       -155.6470 -140.8490  183.0550 O.2    99  TYR99      -0.2718
     54  CB      -157.9770 -138.6640  184.3440 C.3    99  TYR99       0.0548
     55  CG      -157.5380 -138.5650  185.7890 C.ar   99  TYR99      -0.0200
     56  CD1     -156.2390 -138.1950  186.1140 C.ar   99  TYR99      -0.0009
     57  CD2     -158.4290 -138.8030  186.8260 C.ar   99  TYR99      -0.0009
     58  CE1     -155.8330 -138.0890  187.4300 C.ar   99  TYR99       0.0417
     59  CE2     -158.0320 -138.6980  188.1460 C.ar   99  TYR99       0.0417
     60  CZ      -156.7340 -138.3410  188.4420 C.ar   99  TYR99       0.1957
     61  OH      -156.3330 -138.2350  189.7540 O.3    99  TYR99      -0.2866
     62  N       -156.2560 -141.0640  185.2120 N.am  100  TYR100     -0.1976
     63  CA      -154.9580 -141.5300  185.7060 C.3   100  TYR100      0.1639
     64  C       -154.2790 -142.5500  184.7890 C.2   100  TYR100      0.2290
     65  O       -153.0590 -142.5240  184.6290 O.2   100  TYR100     -0.2864
     66  CB      -155.1270 -142.1320  187.1040 C.3   100  TYR100      0.0560
     67  CG      -153.8320 -142.5240  187.7840 C.ar  100  TYR100     -0.0198
     68  CD1     -153.2680 -143.7770  187.5830 C.ar  100  TYR100     -0.0009
     69  CD2     -153.1810 -141.6440  188.6380 C.ar  100  TYR100     -0.0009
     70  CE1     -152.0880 -144.1390  188.2060 C.ar  100  TYR100      0.0417
     71  CE2     -152.0010 -141.9970  189.2660 C.ar  100  TYR100      0.0417
     72  CZ      -151.4590 -143.2450  189.0470 C.ar  100  TYR100      0.1957
     73  OH      -150.2850 -143.5980  189.6710 O.3   100  TYR100     -0.2866
     74  N       -151.9930 -138.1200  200.3900 N.3   254  PHE254     -0.1227
     75  CA      -152.2360 -138.5700  199.0210 C.3   254  PHE254      0.1736
     76  C       -151.2130 -139.6020  198.5570 C.2   254  PHE254      0.2596
     77  O       -151.5000 -140.4120  197.6750 O.2   254  PHE254     -0.2718
     78  CB      -152.2440 -137.3790  198.0610 C.3   254  PHE254      0.0547
     79  CG      -153.5030 -136.5620  198.1200 C.ar  254  PHE254     -0.0202
     80  CD1     -154.6340 -136.9570  197.4250 C.ar  254  PHE254     -0.0042
     81  CD2     -153.5560 -135.3990  198.8690 C.ar  254  PHE254     -0.0042
     82  CE1     -155.7940 -136.2090  197.4760 C.ar  254  PHE254     -0.0003
     83  CE2     -154.7140 -134.6450  198.9250 C.ar  254  PHE254     -0.0003
     84  CZ      -155.8350 -135.0510  198.2280 C.ar  254  PHE254     -0.0000
     85  N       -150.0220 -139.5720  199.1490 N.am  255  SER255     -0.1938
     86  CA      -148.9840 -140.5410  198.8150 C.3   255  SER255      0.2055
     87  C       -149.4200 -141.9340  199.2550 C.2   255  SER255      0.2642
     88  O       -149.3460 -142.8930  198.4860 O.2   255  SER255     -0.2714
     89  CB      -147.6540 -140.1600  199.4670 C.3   255  SER255      0.2130
     90  OG      -146.5940 -140.9540  198.9650 O.3   255  SER255     -0.2179
     91  N       -149.8710 -142.0360  200.5000 N.am  256  LEU256     -0.1977
     92  CA      -150.5140 -143.2480  200.9880 C.3   256  LEU256      0.1596
     93  C       -151.9100 -143.3460  200.3770 C.2   256  LEU256      0.2287
     94  O       -152.4600 -142.3470  199.9150 O.2   256  LEU256     -0.2864
     95  CB      -150.5800 -143.2550  202.5160 C.3   256  LEU256      0.0297
     96  CG      -149.2300 -143.2300  203.2400 C.3   256  LEU256      0.0022
     97  CD1     -149.4210 -143.2000  204.7480 C.3   256  LEU256      0.0001
     98  CD2     -148.3790 -144.4230  202.8310 C.3   256  LEU256      0.0001
     99  N       -159.4820 -144.7930  199.5450 N.3   260  PHE260     -0.1241
    100  CA      -159.7960 -145.1760  198.1710 C.3   260  PHE260      0.1605
    101  C       -160.4880 -146.5320  198.1110 C.2   260  PHE260      0.2264
    102  O       -161.0240 -146.9190  197.0720 O.2   260  PHE260     -0.2867
    103  CB      -158.5280 -145.2050  197.3160 C.3   260  PHE260      0.0534
    104  CG      -157.9270 -143.8500  197.0740 C.ar  260  PHE260     -0.0203
    105  CD1     -157.0410 -143.2970  197.9840 C.ar  260  PHE260     -0.0042
    106  CD2     -158.2420 -143.1310  195.9310 C.ar  260  PHE260     -0.0042
    107  CE1     -156.4830 -142.0520  197.7630 C.ar  260  PHE260     -0.0003
    108  CE2     -157.6870 -141.8850  195.7040 C.ar  260  PHE260     -0.0003
    109  CZ      -156.8070 -141.3450  196.6220 C.ar  260  PHE260     -0.0000
    110  N       -150.5200 -149.2190  190.6960 N.3   356  SER356     -0.1202
    111  CA      -151.3560 -148.2280  191.3610 C.3   356  SER356      0.2020
    112  C       -152.7540 -148.2390  190.7570 C.2   356  SER356      0.2619
    113  O       -153.7450 -148.0140  191.4510 O.2   356  SER356     -0.2717
    114  CB      -150.7390 -146.8330  191.2550 C.3   356  SER356      0.2103
    115  OG      -149.5750 -146.7260  192.0550 O.3   356  SER356     -0.2182
    116  N       -152.8260 -148.5080  189.4570 N.am  357  SER357     -0.1951
    117  CA      -154.1050 -148.5930  188.7630 C.3   357  SER357      0.1924
    118  C       -154.7880 -149.9260  189.0460 C.2   357  SER357      0.2314
    119  O       -156.0160 -150.0170  189.0370 O.2   357  SER357     -0.2863
    120  CB      -153.9150 -148.4070  187.2560 C.3   357  SER357      0.2116
    121  OG      -155.1570 -148.4780  186.5760 O.3   357  SER357     -0.2180
    122  N       -156.7320 -149.5340  192.1740 N.3   360  GLY360     -0.1225
    123  CA      -157.8820 -148.6900  191.9100 C.3   360  GLY360      0.1811
    124  C       -159.0470 -149.4790  191.3470 C.2   360  GLY360      0.2280
    125  O       -160.1550 -149.4320  191.8800 O.2   360  GLY360     -0.2866
    126  N       -160.7810 -136.6250  192.5010 N.3   414  ALA414     -0.1245
    127  CA      -160.4890 -137.1790  193.8180 C.3   414  ALA414      0.1562
    128  C       -159.9640 -136.1460  194.8140 C.2   414  ALA414      0.2260
    129  O       -159.7370 -136.4710  195.9790 O.2   414  ALA414     -0.2867
    130  CB      -159.4930 -138.3230  193.6870 C.3   414  ALA414      0.0290
@<TRIPOS>BOND
     1    53    52    2
     2    51    52    1
     3    51    50    1
     4    51    54    1
     5    45    44    2
     6    52    62   am
     7    54    55    1
     8    65    64    2
     9    64    63    1
    10    44    43    1
    11    62    63    1
    12    63    66    1
    13    55    56   ar
    14    55    57   ar
    15    56    58   ar
    16    43    46    1
    17    43    42    1
    18    46    47    1
    19   121   120    1
    20    57    59   ar
    21    38    37    2
    22    66    67    1
    23   120   117    1
    24    42    37   am
    25    58    60   ar
    26    49    47   ar
    27    47    48   ar
    28    37    36    1
    29    68    67   ar
    30    68    70   ar
    31    67    69   ar
    32    59    60   ar
    33    70    72   ar
    34    60    61    1
    35    69    71   ar
    36    36    35    1
    37    36    39    1
    38   117   118    1
    39   117   116    1
    40   119   118    2
    41    72    71   ar
    42    72    73    1
    43   116   112   am
    44    40    39    1
    45    33    32    2
    46    39    41    1
    47   110   111    1
    48   112   111    1
    49   112   113    2
    50    32    31    1
    51   114   111    1
    52   114   115    1
    53   124   125    2
    54   124   123    1
    55    19    18    1
    56    19    20    2
    57   123   122    1
    58    25    26    1
    59    21    18    1
    60    21    22    1
    61    18    17    1
    62    31    30    1
    63    31    34    1
    64   126   127    1
    65    26    29    1
    66    26    27    1
    67    22    24   ar
    68    22    23   ar
    69   130   127    1
    70   127   128    1
    71    27    28    2
    72     2     1    1
    73     2     3    1
    74     2     5    1
    75   128   129    2
    76     4     3    2
    77     7     9   ar
    78     7     6   ar
    79     9    11   ar
    80     3    12   am
    81     5     6    1
    82   108   106   ar
    83   108   109   ar
    84     6     8   ar
    85   106   104   ar
    86    12    13    1
    87    14    15    2
    88    14    13    1
    89    11    10   ar
    90   109   107   ar
    91   102   101    2
    92   104   103    1
    93   104   105   ar
    94     8    10   ar
    95    13    16    1
    96   103   100    1
    97    80    82   ar
    98    80    79   ar
    99    82    84   ar
   100    77    76    2
   101   107   105   ar
   102    78    79    1
   103    78    75    1
   104   101   100    1
   105    79    81   ar
   106   100    99    1
   107    84    83   ar
   108    88    87    2
   109    76    75    1
   110    76    85   am
   111    86    85    1
   112    86    87    1
   113    86    89    1
   114    81    83   ar
   115    90    89    1
   116    75    74    1
   117    87    91   am
   118    94    93    2
   119    93    92    1
   120    91    92    1
   121    92    95    1
   122    95    96    1
   123    98    96    1
   124    96    97    1
