@<TRIPOS>MOLECULE
tmp/4xp7A00.pdb
 171 161 0 0 0
SMALL
GASTEIGER

@<TRIPOS>ATOM
      1  N         11.7460   -0.5930   15.2520 N.3    11  ALA11      -0.1231
      2  CA        12.5350    0.5600   14.8590 C.3    11  ALA11       0.1679
      3  C         13.0460    1.3000   16.0710 C.2    11  ALA11       0.2434
      4  O         12.3700    1.2950   17.0950 O.2    11  ALA11      -0.2733
      5  CB        11.6500    1.5250   14.0550 C.3    11  ALA11       0.0304
      6  N         14.1750    2.0030   15.9230 N.am   12  PRO12      -0.2718
      7  CA        14.7460    2.8150   16.9480 C.3    12  PRO12       0.1535
      8  C         13.8450    4.0110   17.2000 C.2    12  PRO12       0.2598
      9  O         13.3870    4.6630   16.2600 O.2    12  PRO12      -0.2715
     10  CB        16.1100    3.2280   16.3670 C.3    12  PRO12       0.0310
     11  CG        15.8920    3.2130   14.9110 C.3    12  PRO12       0.0237
     12  CD        14.9540    2.0770   14.6670 C.3    12  PRO12       0.0939
     13  N         13.5950    4.2880   18.4770 N.am   13  MET13      -0.1964
     14  CA        12.7430    5.4210   18.8760 C.3    13  MET13       0.1736
     15  C         13.2280    6.0700   20.1660 C.2    13  MET13       0.2616
     16  O         13.1940    5.4660   21.2330 O.2    13  MET13      -0.2715
     17  CB        11.2790    5.0230   19.0320 C.3    13  MET13       0.0427
     18  CG        10.5160    4.7010   17.7320 C.3    13  MET13       0.0599
     19  SD         8.8250    4.1290   18.0540 S.3    13  MET13      -0.1393
     20  CE         9.0510    2.4440   18.5860 C.3    13  MET13       0.0692
     21  N         13.6970    7.3100   20.0510 N.am   14  VAL14      -0.1977
     22  CA        14.0670    8.1300   21.2050 C.3    14  VAL14       0.1596
     23  C         12.9160    8.1200   22.2130 C.2    14  VAL14       0.2287
     24  O         11.7450    8.2620   21.8470 O.2    14  VAL14      -0.2864
     25  CB        14.4380    9.5680   20.7440 C.3    14  VAL14       0.0276
     26  CG1       14.5790   10.5050   21.9230 C.3    14  VAL14       0.0022
     27  CG2       15.7490    9.5520   19.9710 C.3    14  VAL14       0.0022
     28  N         10.9790    6.0790   23.5880 N.3    16  VAL16      -0.1245
     29  CA        10.1170    4.9020   23.5440 C.3    16  VAL16       0.1561
     30  C         10.9260    3.5910   23.6300 C.2    16  VAL16       0.2260
     31  O         10.6090    2.6890   24.4180 O.2    16  VAL16      -0.2867
     32  CB         9.2360    4.9400   22.2810 C.3    16  VAL16       0.0252
     33  CG1        8.4100    3.6530   22.1470 C.3    16  VAL16       0.0019
     34  CG2        8.3260    6.1480   22.3390 C.3    16  VAL16       0.0019
     35  N         18.1280    5.9630   19.5690 N.3    36  GLU36      -0.1245
     36  CA        19.3890    6.6360   19.2870 C.3    36  GLU36       0.1567
     37  C         20.0350    7.1130   20.5730 C.2    36  GLU36       0.2260
     38  O         19.3740    7.7340   21.4210 O.2    36  GLU36      -0.2867
     39  CB        19.1910    7.8410   18.3880 C.3    36  GLU36       0.0388
     40  CG        20.5010    8.3020   17.7550 C.3    36  GLU36       0.1160
     41  CD        20.4050    9.6850   17.1570 C.2    36  GLU36       0.3649
     42  OE1       20.7480    9.8460   15.9790 O.co2  36  GLU36      -0.2457
     43  OE2       19.9850   10.6050   17.8730 O.co2  36  GLU36      -0.2457
     44  N         21.7750    1.5870   18.3880 N.3    80  GLN80      -0.1245
     45  CA        21.8710    2.7240   17.4560 C.3    80  GLN80       0.1566
     46  C         22.5680    3.9330   18.0520 C.2    80  GLN80       0.2260
     47  O         22.1590    4.4490   19.0980 O.2    80  GLN80      -0.2867
     48  CB        20.5030    3.1740   16.9030 C.3    80  GLN80       0.0367
     49  CG        20.6710    4.1440   15.7300 C.3    80  GLN80       0.0905
     50  CD        19.4030    4.8450   15.3140 C.2    80  GLN80       0.2608
     51  OE1       18.7880    5.5730   16.1150 O.2    80  GLN80      -0.2717
     52  NE2       19.0100    4.6740   14.0480 N.am   80  GLN80      -0.0878
     53  N         22.6990    5.9940   12.7340 N.3   106  ASN106     -0.1240
     54  CA        21.5870    6.7670   12.2070 C.3   106  ASN106      0.1653
     55  C         22.1790    7.8130   11.2700 C.2   106  ASN106      0.2266
     56  O         22.9050    8.7080   11.6980 O.2   106  ASN106     -0.2867
     57  CB        20.8130    7.4640   13.3160 C.3   106  ASN106      0.1155
     58  CG        19.5450    8.1760   12.7950 C.2   106  ASN106      0.2627
     59  OD1       19.1050    7.9600   11.6470 O.2   106  ASN106     -0.2716
     60  ND2       18.9170    8.9740   13.6620 N.am  106  ASN106     -0.0877
     61  N         20.6510    3.3740    8.9080 N.3   139  LYS139     -0.1245
     62  CA        19.2570    3.7070    8.6360 C.3   139  LYS139      0.1561
     63  C         19.2490    5.0510    7.9610 C.2   139  LYS139      0.2260
     64  O         19.8130    5.9850    8.4760 O.2   139  LYS139     -0.2867
     65  CB        18.4640    3.7550    9.9550 C.3   139  LYS139      0.0271
     66  CG        17.0190    4.2420    9.8510 C.3   139  LYS139      0.0035
     67  CD        16.2290    3.7410   11.0620 C.3   139  LYS139      0.0206
     68  CE        14.7570    4.1370   11.0240 C.3   139  LYS139      0.1093
     69  NZ        14.5830    5.5990   11.1430 N.3   139  LYS139     -0.1314
     70  N         17.0030    8.1880    5.4690 N.3   141  ARG141     -0.1245
     71  CA        15.8610    8.7260    4.7610 C.3   141  ARG141      0.1563
     72  C         16.2320    8.9050    3.3010 C.2   141  ARG141      0.2260
     73  O         17.4040    9.1030    2.9890 O.2   141  ARG141     -0.2867
     74  CB        15.4390   10.0400    5.3710 C.3   141  ARG141      0.0307
     75  CG        14.4180    9.8070    6.4630 C.3   141  ARG141      0.0489
     76  CD        14.0340   11.0940    7.1420 C.3   141  ARG141      0.2205
     77  NE        12.7980   11.6370    6.6060 N.pl3 141  ARG141     -0.0865
     78  CZ        11.7030   11.8840    7.3190 C.cat 141  ARG141      0.5346
     79  NH1       11.6570   11.6220    8.6270 N.pl3 141  ARG141      0.1354
     80  NH2       10.6320   12.3960    6.7140 N.pl3 141  ARG141      0.1354
     81  N         13.7780    4.5190    5.4440 N.3   167  HIS167     -0.1241
     82  CA        12.5280    5.2220    5.7140 C.3   167  HIS167      0.1621
     83  C         12.2130    5.9740    4.4260 C.2   167  HIS167      0.2264
     84  O         12.9460    6.8840    4.0200 O.2   167  HIS167     -0.2867
     85  CB        12.7090    6.1680    6.8810 C.3   167  HIS167      0.0745
     86  CG        11.4900    6.9620    7.2420 C.ar  167  HIS167      0.0817
     87  ND1       11.5420    8.0140    8.1350 N.ar  167  HIS167     -0.2268
     88  CD2       10.2000    6.8770    6.8380 C.ar  167  HIS167      0.1154
     89  CE1       10.3380    8.5300    8.2830 C.ar  167  HIS167      0.1986
     90  NE2        9.5030    7.8570    7.5120 N.ar  167  HIS167     -0.2212
     91  N         10.7780    0.7980    5.7900 N.3   198  ASN198     -0.1225
     92  CA        10.2870    1.5430    6.9430 C.3   198  ASN198      0.1785
     93  C          9.4740    2.7520    6.4710 C.2   198  ASN198      0.2598
     94  O          9.7090    3.3040    5.3710 O.2   198  ASN198     -0.2718
     95  CB        11.4860    1.9450    7.8190 C.3   198  ASN198      0.1169
     96  CG        11.1030    2.8780    8.9200 C.2   198  ASN198      0.2627
     97  OD1       11.4710    4.0760    8.8980 O.2   198  ASN198     -0.2716
     98  ND2       10.3140    2.3570    9.9040 N.am  198  ASN198     -0.0877
     99  N          8.4800    3.1320    7.2760 N.am  199  GLY199     -0.1942
    100  CA         7.7080    4.3350    7.0650 C.3   199  GLY199      0.2014
    101  C          6.2490    4.0750    6.7760 C.2   199  GLY199      0.2639
    102  O          5.5620    4.9680    6.2920 O.2   199  GLY199     -0.2714
    103  N          5.7550    2.8790    7.1230 N.am  200  GLY200     -0.1939
    104  CA         4.4220    2.4260    6.7420 C.3   200  GLY200      0.2014
    105  C          3.3670    2.5190    7.8090 C.2   200  GLY200      0.2639
    106  O          2.2380    2.1830    7.5230 O.2   200  GLY200     -0.2714
    107  N          3.7230    2.9290    9.0340 N.am  201  SER201     -0.1949
    108  CA         2.7540    2.9230   10.1640 C.3   201  SER201      0.1924
    109  C          1.5940    3.8900    9.8570 C.2   201  SER201      0.2314
    110  O          1.7240    4.8420    9.0880 O.2   201  SER201     -0.2863
    111  CB         3.4110    3.2550   11.5390 C.3   201  SER201      0.2116
    112  OG         4.2820    2.2510   12.0280 O.3   201  SER201     -0.2180
    113  N          0.1550    0.4140    7.8940 N.3   205  ILE205     -0.1245
    114  CA         0.1880   -0.6370    8.9390 C.3   205  ILE205      0.1561
    115  C         -0.7400   -0.3930   10.1220 C.2   205  ILE205      0.2260
    116  O         -0.4560    0.3930   11.0000 O.2   205  ILE205     -0.2867
    117  CB         1.6030   -0.9140    9.4790 C.3   205  ILE205      0.0252
    118  CG1        2.5650   -1.3080    8.3390 C.3   205  ILE205      0.0019
    119  CG2        1.5610   -2.0630   10.4730 C.3   205  ILE205      0.0019
    120  CD1        4.0230   -1.1430    8.7160 C.3   205  ILE205      0.0001
    121  N         10.7140   -2.8360    9.3750 N.3   224  MET224     -0.1230
    122  CA        10.9170   -2.2040   10.6720 C.3   224  MET224      0.1702
    123  C          9.7000   -1.2900   10.9730 C.2   224  MET224      0.2592
    124  O          9.3400   -0.4450   10.1430 O.2   224  MET224     -0.2718
    125  CB        12.1980   -1.3830   10.5520 C.3   224  MET224      0.0401
    126  CG        12.6410   -0.5680   11.7040 C.3   224  MET224      0.0596
    127  SD        13.9990    0.5140   11.2220 S.3   224  MET224     -0.1393
    128  CE        15.3780   -0.5530   11.6070 C.3   224  MET224      0.0692
    129  N          9.1400   -1.4270   12.1660 N.am  225  VAL225     -0.1966
    130  CA         7.9460   -0.6820   12.6080 C.3   225  VAL225      0.1727
    131  C          8.2190    0.1990   13.8400 C.2   225  VAL225      0.2616
    132  O          8.7510   -0.2750   14.8320 O.2   225  VAL225     -0.2715
    133  CB         6.8280   -1.6700   12.9550 C.3   225  VAL225      0.0290
    134  CG1        5.5430   -0.9420   13.3840 C.3   225  VAL225      0.0023
    135  CG2        6.5910   -2.6110   11.7790 C.3   225  VAL225      0.0023
    136  N          7.8660    1.4800   13.7470 N.am  226  ALA226     -0.1963
    137  CA         8.0400    2.4520   14.8330 C.3   226  ALA226      0.1728
    138  C          6.6470    2.8590   15.4010 C.2   226  ALA226      0.2616
    139  O          6.2490    2.3150   16.4020 O.2   226  ALA226     -0.2715
    140  CB         8.8010    3.6600   14.3330 C.3   226  ALA226      0.0334
    141  N          5.9270    3.7890   14.7780 N.am  227  ARG227     -0.1977
    142  CA         4.7110    4.3630   15.3770 C.3   227  ARG227      0.1597
    143  C          3.6730    3.3090   15.7230 C.2   227  ARG227      0.2287
    144  O          3.0930    3.3510   16.8120 O.2   227  ARG227     -0.2864
    145  CB         4.0780    5.4200   14.4760 C.3   227  ARG227      0.0334
    146  CG         4.7710    6.7690   14.5400 C.3   227  ARG227      0.0492
    147  CD         4.2740    7.6800   13.4590 C.3   227  ARG227      0.2205
    148  NE         4.6390    7.1570   12.1420 N.pl3 227  ARG227     -0.0865
    149  CZ         4.1510    7.6160   11.0010 C.cat 227  ARG227      0.5346
    150  NH1        3.2790    8.6330   10.9930 N.pl3 227  ARG227      0.1354
    151  NH2        4.5410    7.0790    9.8470 N.pl3 227  ARG227      0.1354
    152  N          4.8450    1.7120   18.8680 N.3   230  MET230     -0.1245
    153  CA         4.6660    2.6390   19.9810 C.3   230  MET230      0.1570
    154  C          3.2080    2.6880   20.4630 C.2   230  MET230      0.2261
    155  O          2.9850    2.7580   21.6760 O.2   230  MET230     -0.2867
    156  CB         5.1360    4.0280   19.5840 C.3   230  MET230      0.0387
    157  CG         4.8100    5.1890   20.5070 C.3   230  MET230      0.0595
    158  SD         5.4530    6.7690   19.8570 S.3   230  MET230     -0.1393
    159  CE         4.3390    7.2320   18.5710 C.3   230  MET230      0.0692
    160  N          5.7190    8.9040   29.7170 N.3   267  TYR267     -0.1241
    161  CA         5.7850    9.2090   28.2890 C.3   267  TYR267      0.1605
    162  C          5.3010    8.0890   27.3960 C.2   267  TYR267      0.2264
    163  O          4.4790    8.3500   26.5270 O.2   267  TYR267     -0.2867
    164  CB         7.2070    9.6510   27.8770 C.3   267  TYR267      0.0534
    165  CG         7.3130   10.1580   26.4670 C.ar  267  TYR267     -0.0201
    166  CD1        7.0350   11.4920   26.1450 C.ar  267  TYR267     -0.0009
    167  CD2        7.6490    9.2980   25.4360 C.ar  267  TYR267     -0.0009
    168  CE1        7.1140   11.9330   24.8170 C.ar  267  TYR267      0.0417
    169  CE2        7.7610    9.7470   24.1140 C.ar  267  TYR267      0.0417
    170  CZ         7.4830   11.0370   23.8210 C.ar  267  TYR267      0.1957
    171  OH         7.6180   11.3850   22.4950 O.3   267  TYR267     -0.2866
@<TRIPOS>BOND
     1    73    72    2
     2    72    71    1
     3    84    83    2
     4    83    82    1
     5    71    74    1
     6    71    70    1
     7    74    75    1
     8    94    93    2
     9    81    82    1
    10    82    85    1
    11    91    92    1
    12   102   101    2
    13    75    76    1
    14    93    92    1
    15    93    99   am
    16    77    76    1
    17    77    78    2
    18    80    78    1
    19   104   103    1
    20   104   105    1
    21   101   100    1
    22   101   103   am
    23    88    86   ar
    24    88    90   ar
    25    85    86    1
    26    92    95    1
    27   100    99    1
    28    86    87   ar
    29    78    79    1
    30    90    89   ar
    31   106   105    2
    32   105   107   am
    33    95    96    1
    34   113   114    1
    35    63    64    2
    36    63    62    1
    37    87    89   ar
    38   118   120    1
    39   118   117    1
    40    62    61    1
    41    62    65    1
    42    97    96    2
    43    96    98   am
    44   114   117    1
    45   114   115    1
    46   107   108    1
    47   110   109    2
    48   121   122    1
    49   117   119    1
    50   151   149    1
    51    66    65    1
    52    66    67    1
    53   109   108    1
    54   115   116    2
    55   124   123    2
    56   108   111    1
    57   125   122    1
    58   125   126    1
    59   122   123    1
    60   123   129   am
    61   150   149    1
    62   149   148    2
    63    68    67    1
    64    68    69    1
    65   127   128    1
    66   127   126    1
    67    55    56    2
    68    55    54    1
    69   111   112    1
    70    59    58    2
    71   135   133    1
    72   148   147    1
    73   129   130    1
    74    54    53    1
    75    54    57    1
    76   130   133    1
    77   130   131    1
    78    58    57    1
    79    58    60   am
    80   133   134    1
    81   147   146    1
    82   136   131   am
    83   136   137    1
    84   131   132    2
    85    52    50   am
    86     5     2    1
    87   140   137    1
    88   145   146    1
    89   145   142    1
    90    12    11    1
    91    12     6    1
    92   141   142    1
    93   141   138   am
    94   137   138    1
    95     2     1    1
    96     2     3    1
    97    11    10    1
    98    50    49    1
    99    50    51    2
   100   142   143    1
   101   138   139    2
   102   143   144    2
   103    49    48    1
   104     6     3   am
   105     6     7    1
   106    42    41   ar
   107     3     4    2
   108     9     8    2
   109    10     7    1
   110    48    45    1
   111     7     8    1
   112    41    40    1
   113    41    43   ar
   114     8    13   am
   115    45    46    1
   116    45    44    1
   117    18    19    1
   118    18    17    1
   119    40    39    1
   120    46    47    2
   121    19    20    1
   122    39    36    1
   123    13    14    1
   124   159   158    1
   125   152   153    1
   126    14    17    1
   127    14    15    1
   128    36    35    1
   129    36    37    1
   130   156   153    1
   131   156   157    1
   132   158   157    1
   133    27    25    1
   134   153   154    1
   135    21    15   am
   136    21    22    1
   137    15    16    2
   138   154   155    2
   139    37    38    2
   140    25    22    1
   141    25    26    1
   142    22    23    1
   143    24    23    2
   144    33    32    1
   145    32    34    1
   146    32    29    1
   147   171   170    1
   148    29    28    1
   149    29    30    1
   150    30    31    2
   151   170   169   ar
   152   170   168   ar
   153   169   167   ar
   154   168   166   ar
   155   167   165   ar
   156   166   165   ar
   157   165   164    1
   158   163   162    2
   159   162   161    1
   160   164   161    1
   161   161   160    1
