@<TRIPOS>MOLECULE
tmp/4xp9A03.pdb
 113 105 0 0 0
SMALL
GASTEIGER

@<TRIPOS>ATOM
      1  N       -146.5080 -161.6030  201.5650 N.3    10  VAL10      -0.1245
      2  CA      -145.7710 -160.6380  200.7550 C.3    10  VAL10       0.1561
      3  C       -146.6510 -160.0150  199.6710 C.2    10  VAL10       0.2260
      4  O       -146.4950 -158.8350  199.3470 O.2    10  VAL10      -0.2867
      5  CB      -144.5400 -161.2690  200.1200 C.3    10  VAL10       0.0252
      6  CG1     -143.9600 -160.3500  199.0460 C.3    10  VAL10       0.0019
      7  CG2     -143.5260 -161.5370  201.2080 C.3    10  VAL10       0.0019
      8  N       -148.4580 -157.1040  201.2890 N.3    13  LEU13      -0.1231
      9  CA      -147.5960 -155.9780  201.5920 C.3    13  LEU13       0.1693
     10  C       -147.2250 -155.2260  200.3330 C.2    13  LEU13       0.2591
     11  O       -147.1200 -154.0060  200.3470 O.2    13  LEU13      -0.2718
     12  CB      -146.3290 -156.4430  202.3020 C.3    13  LEU13       0.0284
     13  CG      -146.5250 -157.1290  203.6460 C.3    13  LEU13       0.0019
     14  CD1     -145.1670 -157.4620  204.1940 C.3    13  LEU13       0.0001
     15  CD2     -147.2820 -156.2300  204.5890 C.3    13  LEU13       0.0001
     16  N       -147.0410 -155.9510  199.2390 N.am   14  LEU14      -0.1980
     17  CA      -146.6670 -155.2970  197.9980 C.3    14  LEU14       0.1596
     18  C       -147.8670 -154.6010  197.3740 C.2    14  LEU14       0.2287
     19  O       -147.7240 -153.5530  196.7540 O.2    14  LEU14      -0.2864
     20  CB      -146.0550 -156.2950  197.0200 C.3    14  LEU14       0.0297
     21  CG      -144.7310 -156.9120  197.4660 C.3    14  LEU14       0.0022
     22  CD1     -144.2520 -157.9420  196.4550 C.3    14  LEU14       0.0001
     23  CD2     -143.6960 -155.8330  197.6670 C.3    14  LEU14       0.0001
     24  N       -147.9530 -151.4450  199.4610 N.3    17  ILE17      -0.1245
     25  CA      -146.8410 -150.5650  199.1570 C.3    17  ILE17       0.1561
     26  C       -146.9990 -150.0300  197.7400 C.2    17  ILE17       0.2260
     27  O       -146.6800 -148.8710  197.4580 O.2    17  ILE17      -0.2867
     28  CB      -145.4950 -151.2810  199.3010 C.3    17  ILE17       0.0252
     29  CG1     -145.2380 -151.6410  200.7680 C.3    17  ILE17       0.0019
     30  CG2     -144.3860 -150.4040  198.7970 C.3    17  ILE17       0.0019
     31  CD1     -143.9430 -152.4130  200.9800 C.3    17  ILE17       0.0001
     32  N       -145.6360 -157.8760  192.3350 N.3   201  TRP201     -0.1241
     33  CA      -144.2350 -158.1840  192.5880 C.3   201  TRP201      0.1605
     34  C       -143.3730 -157.4270  191.6040 C.2   201  TRP201      0.2264
     35  O       -142.2740 -156.9760  191.9490 O.2   201  TRP201     -0.2867
     36  CB      -143.9690 -159.6760  192.4650 C.3   201  TRP201      0.0550
     37  CG      -144.4600 -160.4320  193.6380 C.ar  201  TRP201      0.0003
     38  CD1     -145.7580 -160.5960  194.0240 C.ar  201  TRP201      0.0946
     39  CD2     -143.6610 -161.1370  194.5900 C.ar  201  TRP201      0.0152
     40  NE1     -145.8120 -161.3570  195.1630 N.ar  201  TRP201     -0.2442
     41  CE2     -144.5390 -161.7060  195.5280 C.ar  201  TRP201      0.0810
     42  CE3     -142.2820 -161.3380  194.7410 C.ar  201  TRP201      0.0012
     43  CZ2     -144.0910 -162.4690  196.5990 C.ar  201  TRP201      0.0191
     44  CZ3     -141.8340 -162.0890  195.8110 C.ar  201  TRP201      0.0001
     45  CH2     -142.7370 -162.6430  196.7300 C.ar  201  TRP201      0.0015
     46  N       -141.9890 -153.6090  192.7790 N.3   205  LEU205     -0.1245
     47  CA      -140.5520 -153.7970  192.9870 C.3   205  LEU205      0.1561
     48  C       -139.6990 -153.1330  191.9150 C.2   205  LEU205      0.2260
     49  O       -138.5960 -152.6550  192.1900 O.2   205  LEU205     -0.2867
     50  CB      -140.2120 -155.2940  193.0550 C.3   205  LEU205      0.0270
     51  CG      -140.6660 -156.0820  194.2910 C.3   205  LEU205      0.0019
     52  CD1     -140.1070 -157.4930  194.2340 C.3   205  LEU205      0.0001
     53  CD2     -140.2490 -155.3760  195.5720 C.3   205  LEU205      0.0001
     54  N       -138.0370 -149.6640  192.4230 N.3   208  TYR208     -0.1241
     55  CA      -136.8620 -149.6100  193.2760 C.3   208  TYR208      0.1605
     56  C       -135.6030 -150.0020  192.5080 C.2   208  TYR208      0.2264
     57  O       -134.5140 -149.4780  192.7690 O.2   208  TYR208     -0.2867
     58  CB      -137.0530 -150.4910  194.4990 C.3   208  TYR208      0.0534
     59  CG      -138.1440 -149.9610  195.4050 C.ar  208  TYR208     -0.0201
     60  CD1     -137.9440 -148.7950  196.1530 C.ar  208  TYR208     -0.0009
     61  CD2     -139.3790 -150.6110  195.5090 C.ar  208  TYR208     -0.0009
     62  CE1     -138.9360 -148.2910  196.9710 C.ar  208  TYR208      0.0417
     63  CE2     -140.3800 -150.1120  196.3340 C.ar  208  TYR208      0.0417
     64  CZ      -140.1500 -148.9530  197.0590 C.ar  208  TYR208      0.1957
     65  OH      -141.1420 -148.4560  197.8780 O.3   208  TYR208     -0.2866
     66  N       -135.0040 -146.8770  190.6470 N.3   211  LEU211     -0.1231
     67  CA      -134.6480 -145.8000  191.5590 C.3   211  LEU211      0.1693
     68  C       -133.1670 -145.8930  191.9360 C.2   211  LEU211      0.2591
     69  O       -132.4830 -144.8780  192.0630 O.2   211  LEU211     -0.2718
     70  CB      -135.5130 -145.8440  192.8200 C.3   211  LEU211      0.0284
     71  CG      -136.8530 -145.1120  192.8470 C.3   211  LEU211      0.0019
     72  CD1     -137.2930 -144.9840  194.2800 C.3   211  LEU211      0.0001
     73  CD2     -136.7440 -143.7400  192.2150 C.3   211  LEU211      0.0001
     74  N       -132.6750 -147.1210  192.0700 N.am  212  LEU212     -0.1980
     75  CA      -131.2790 -147.3710  192.4200 C.3   212  LEU212      0.1596
     76  C       -130.3480 -146.9940  191.2620 C.2   212  LEU212      0.2287
     77  O       -129.3320 -146.3140  191.4520 O.2   212  LEU212     -0.2864
     78  CB      -131.0950 -148.8420  192.7930 C.3   212  LEU212      0.0297
     79  CG      -129.7050 -149.3920  193.1010 C.3   212  LEU212      0.0022
     80  CD1     -129.1870 -148.8570  194.4320 C.3   212  LEU212      0.0001
     81  CD2     -129.7500 -150.9200  193.0930 C.3   212  LEU212      0.0001
     82  N       -130.3980 -143.4110  190.8580 N.3   215  LEU215     -0.1245
     83  CA      -129.7900 -142.7820  192.0190 C.3   215  LEU215      0.1561
     84  C       -128.2710 -142.7380  191.8420 C.2   215  LEU215      0.2260
     85  O       -127.6060 -141.8240  192.3300 O.2   215  LEU215     -0.2867
     86  CB      -130.1740 -143.5230  193.3060 C.3   215  LEU215      0.0270
     87  CG      -129.4840 -143.1090  194.6040 C.3   215  LEU215      0.0019
     88  CD1     -129.6180 -141.6010  194.8550 C.3   215  LEU215      0.0001
     89  CD2     -130.0050 -143.9370  195.7890 C.3   215  LEU215      0.0001
     90  N       -144.5900 -151.0320  208.9420 N.3   282  LEU282     -0.1245
     91  CA      -143.5620 -151.3600  207.9670 C.3   282  LEU282      0.1561
     92  C       -143.9050 -150.6660  206.6620 C.2   282  LEU282      0.2260
     93  O       -143.0640 -150.0560  206.0010 O.2   282  LEU282     -0.2867
     94  CB      -143.4700 -152.8780  207.7580 C.3   282  LEU282      0.0270
     95  CG      -142.7100 -153.2730  206.4900 C.3   282  LEU282      0.0019
     96  CD1     -141.2490 -152.8150  206.5600 C.3   282  LEU282      0.0001
     97  CD2     -142.8040 -154.7710  206.1720 C.3   282  LEU282      0.0001
     98  N       -141.9790 -147.5450  204.4760 N.3   286  ILE286     -0.1245
     99  CA      -141.4570 -147.7500  203.1280 C.3   286  ILE286      0.1561
    100  C       -141.9490 -146.6650  202.1640 C.2   286  ILE286      0.2260
    101  O       -141.2120 -146.2170  201.2790 O.2   286  ILE286     -0.2867
    102  CB      -141.8500 -149.1350  202.6100 C.3   286  ILE286      0.0252
    103  CG1     -141.0760 -150.1960  203.3920 C.3   286  ILE286      0.0019
    104  CG2     -141.5920 -149.2530  201.1210 C.3   286  ILE286      0.0019
    105  CD1     -141.6350 -151.5830  203.2420 C.3   286  ILE286      0.0001
    106  N       -135.7460 -141.0830  199.1660 N.3   293  ILE293     -0.1245
    107  CA      -134.7970 -141.5730  198.1730 C.3   293  ILE293      0.1561
    108  C       -134.9730 -140.8940  196.8320 C.2   293  ILE293      0.2260
    109  O       -134.0160 -140.4010  196.2230 O.2   293  ILE293     -0.2867
    110  CB      -134.9540 -143.0940  197.9390 C.3   293  ILE293      0.0252
    111  CG1     -134.6080 -143.8830  199.2030 C.3   293  ILE293      0.0019
    112  CG2     -134.0900 -143.5440  196.7810 C.3   293  ILE293      0.0019
    113  CD1     -133.2530 -143.5400  199.7680 C.3   293  ILE293      0.0001
@<TRIPOS>BOND
     1    66    67    1
     2    82    83    1
     3    76    77    2
     4    76    75    1
     5    67    68    1
     6    67    70    1
     7    34    35    2
     8    34    33    1
     9    84    83    1
    10    84    85    2
    11    48    49    2
    12    48    47    1
    13    68    69    2
    14    68    74   am
    15    83    86    1
    16    74    75    1
    17    73    71    1
    18    32    33    1
    19    75    78    1
    20    54    55    1
    21    36    33    1
    22    36    37    1
    23    56    57    2
    24    56    55    1
    25    46    47    1
    26    78    79    1
    27    70    71    1
    28    71    72    1
    29    47    50    1
    30    50    51    1
    31    81    79    1
    32    79    80    1
    33    55    58    1
    34    86    87    1
    35    37    38   ar
    36    37    39   ar
    37    38    40   ar
    38    52    51    1
    39    51    53    1
    40    58    59    1
    41    39    42   ar
    42    39    41   ar
    43    87    88    1
    44    87    89    1
    45    42    44   ar
    46    40    41   ar
    47    59    61   ar
    48    59    60   ar
    49    61    63   ar
    50    41    43   ar
    51    44    45   ar
    52    60    62   ar
    53   109   108    2
    54    63    64   ar
    55    22    21    1
    56    43    45   ar
    57    19    18    2
    58   112   110    1
    59   108   107    1
    60    62    64   ar
    61    20    21    1
    62    20    17    1
    63    64    65    1
    64    18    17    1
    65    27    26    2
    66    21    23    1
    67    26    25    1
    68   110   107    1
    69   110   111    1
    70    17    16    1
    71   107   106    1
    72    30    28    1
    73     6     5    1
    74    25    28    1
    75    25    24    1
    76   111   113    1
    77    16    10   am
    78    28    29    1
    79     4     3    2
    80     3     2    1
    81     5     2    1
    82     5     7    1
    83    10    11    2
    84    10     9    1
    85     2     1    1
    86    29    31    1
    87   104   102    1
    88   101   100    2
    89     8     9    1
    90     9    12    1
    91   100    99    1
    92    12    13    1
    93   102    99    1
    94   102   103    1
    95    99    98    1
    96   105   103    1
    97    13    14    1
    98    13    15    1
    99    93    92    2
   100    97    95    1
   101    95    96    1
   102    95    94    1
   103    92    91    1
   104    94    91    1
   105    91    90    1
