@<TRIPOS>MOLECULE
tmp/4xp9A04.pdb
 116 109 0 0 0
SMALL
GASTEIGER

@<TRIPOS>ATOM
      1  N       -149.8540 -149.5310  196.1790 N.3    19  PHE19      -0.1227
      2  CA      -150.9230 -148.5550  196.1490 C.3    19  PHE19       0.1736
      3  C       -150.3840 -147.2150  196.6520 C.2    19  PHE19       0.2595
      4  O       -150.5720 -146.1740  196.0320 O.2    19  PHE19      -0.2718
      5  CB      -152.1040 -149.0370  196.9950 C.3    19  PHE19       0.0547
      6  CG      -153.0880 -147.9630  197.3360 C.ar   19  PHE19      -0.0202
      7  CD1     -153.9350 -147.4460  196.3670 C.ar   19  PHE19      -0.0042
      8  CD2     -153.1860 -147.4820  198.6360 C.ar   19  PHE19      -0.0042
      9  CE1     -154.8560 -146.4540  196.6820 C.ar   19  PHE19      -0.0003
     10  CE2     -154.1130 -146.4930  198.9650 C.ar   19  PHE19      -0.0003
     11  CZ      -154.9480 -145.9800  197.9910 C.ar   19  PHE19      -0.0000
     12  N       -149.6780 -147.2550  197.7700 N.am   20  ALA20      -0.1980
     13  CA      -149.2770 -146.0310  198.4280 C.3    20  ALA20       0.1597
     14  C       -148.1510 -145.3210  197.6870 C.2    20  ALA20       0.2287
     15  O       -148.1380 -144.0950  197.6030 O.2    20  ALA20      -0.2864
     16  CB      -148.8660 -146.3210  199.8380 C.3    20  ALA20       0.0319
     17  N       -146.6890 -143.9490  194.5960 N.3    22  ASP22      -0.1239
     18  CA      -146.9700 -143.6090  193.2080 C.3    22  ASP22       0.1674
     19  C       -146.1790 -142.3850  192.7770 C.2    22  ASP22       0.2266
     20  O       -145.1390 -142.0820  193.3580 O.2    22  ASP22      -0.2867
     21  CB      -148.4620 -143.3840  192.9880 C.3    22  ASP22       0.1410
     22  CG      -149.0090 -142.2330  193.7970 C.2    22  ASP22       0.3668
     23  OD1     -148.2480 -141.5530  194.5310 O.co2  22  ASP22      -0.2456
     24  OD2     -150.2330 -142.0140  193.6960 O.co2  22  ASP22      -0.2456
     25  N       -146.6080 -139.1660  193.0010 N.3    24  ALA24      -0.1245
     26  CA      -146.4440 -138.0450  193.9260 C.3    24  ALA24       0.1562
     27  C       -145.2860 -138.2620  194.9080 C.2    24  ALA24       0.2260
     28  O       -144.7960 -137.3100  195.5140 O.2    24  ALA24      -0.2867
     29  CB      -147.7140 -137.7960  194.6870 C.3    24  ALA24       0.0290
     30  N       -163.3610 -143.2540  194.2930 N.3    93  ALA93      -0.1245
     31  CA      -162.3910 -144.1480  193.6680 C.3    93  ALA93       0.1562
     32  C       -162.7370 -144.3650  192.2110 C.2    93  ALA93       0.2260
     33  O       -161.8520 -144.6160  191.3800 O.2    93  ALA93      -0.2867
     34  CB      -162.3460 -145.4720  194.3950 C.3    93  ALA93       0.0290
     35  N       -161.7070 -141.1680  190.1850 N.3    96  VAL96      -0.1245
     36  CA      -160.2610 -141.0580  190.1160 C.3    96  VAL96       0.1561
     37  C       -159.7200 -141.9360  188.9910 C.2    96  VAL96       0.2260
     38  O       -158.7130 -141.6120  188.3750 O.2    96  VAL96      -0.2867
     39  CB      -159.6000 -141.4490  191.4580 C.3    96  VAL96       0.0252
     40  CG1     -158.0910 -141.3980  191.3410 C.3    96  VAL96       0.0019
     41  CG2     -160.0590 -140.5390  192.5490 C.3    96  VAL96       0.0019
     42  N       -156.7020 -140.6350  186.3970 N.3   100  TYR100     -0.1241
     43  CA      -155.3940 -141.0430  186.8990 C.3   100  TYR100      0.1605
     44  C       -154.6600 -141.9850  185.9380 C.2   100  TYR100      0.2264
     45  O       -153.4250 -141.9620  185.8390 O.2   100  TYR100     -0.2867
     46  CB      -155.5570 -141.7270  188.2590 C.3   100  TYR100      0.0534
     47  CG      -154.2540 -142.0560  188.9440 C.ar  100  TYR100     -0.0201
     48  CD1     -153.7300 -141.2010  189.8990 C.ar  100  TYR100     -0.0009
     49  CD2     -153.5470 -143.2150  188.6360 C.ar  100  TYR100     -0.0009
     50  CE1     -152.5430 -141.4800  190.5320 C.ar  100  TYR100      0.0417
     51  CE2     -152.3450 -143.5090  189.2650 C.ar  100  TYR100      0.0417
     52  CZ      -151.8510 -142.6320  190.2130 C.ar  100  TYR100      0.1957
     53  OH      -150.6610 -142.8810  190.8460 O.3   100  TYR100     -0.2866
     54  N       -152.4680 -137.5070  201.4830 N.3   254  PHE254     -0.1227
     55  CA      -152.6820 -138.0600  200.1470 C.3   254  PHE254      0.1736
     56  C       -151.6280 -139.0970  199.7370 C.2   254  PHE254      0.2596
     57  O       -151.8440 -139.8710  198.8020 O.2   254  PHE254     -0.2718
     58  CB      -152.7430 -136.9350  199.1140 C.3   254  PHE254      0.0547
     59  CG      -154.0300 -136.1510  199.1560 C.ar  254  PHE254     -0.0202
     60  CD1     -155.2130 -136.7160  198.7060 C.ar  254  PHE254     -0.0042
     61  CD2     -154.0650 -134.8620  199.6530 C.ar  254  PHE254     -0.0042
     62  CE1     -156.4110 -136.0140  198.7510 C.ar  254  PHE254     -0.0003
     63  CE2     -155.2570 -134.1540  199.7040 C.ar  254  PHE254     -0.0003
     64  CZ      -156.4350 -134.7340  199.2490 C.ar  254  PHE254     -0.0000
     65  N       -150.4940 -139.1320  200.4310 N.am  255  SER255     -0.1938
     66  CA      -149.4400 -140.0700  200.0530 C.3   255  SER255      0.2055
     67  C       -149.7440 -141.4830  200.5590 C.2   255  SER255      0.2643
     68  O       -149.6900 -142.4440  199.8010 O.2   255  SER255     -0.2714
     69  CB      -148.0990 -139.5840  200.5790 C.3   255  SER255      0.2130
     70  OG      -147.0800 -140.4880  200.2260 O.3   255  SER255     -0.2179
     71  N       -150.0890 -141.5880  201.8380 N.am  256  LEU256     -0.1963
     72  CA      -150.6700 -142.8030  202.4010 C.3   256  LEU256      0.1728
     73  C       -152.0860 -142.8830  201.8510 C.2   256  LEU256      0.2616
     74  O       -152.6400 -141.8700  201.4210 O.2   256  LEU256     -0.2715
     75  CB      -150.6700 -142.7570  203.9210 C.3   256  LEU256      0.0311
     76  CG      -149.2990 -142.7230  204.5880 C.3   256  LEU256      0.0022
     77  CD1     -149.4360 -142.6960  206.0970 C.3   256  LEU256      0.0001
     78  CD2     -148.5210 -143.9360  204.1450 C.3   256  LEU256      0.0001
     79  N       -152.6950 -144.0490  201.7990 N.am  257  GLY257     -0.1955
     80  CA      -153.9760 -144.0620  201.1030 C.3   257  GLY257      0.1869
     81  C       -155.2700 -143.8860  201.8980 C.2   257  GLY257      0.2309
     82  O       -156.3370 -144.1920  201.3710 O.2   257  GLY257     -0.2863
     83  N       -159.8350 -144.3540  201.4510 N.3   260  PHE260     -0.1241
     84  CA      -160.3070 -144.5030  200.0700 C.3   260  PHE260      0.1605
     85  C       -160.9920 -145.8360  199.8610 C.2   260  PHE260      0.2264
     86  O       -161.4620 -146.1350  198.7540 O.2   260  PHE260     -0.2867
     87  CB      -159.1620 -144.3780  199.0660 C.3   260  PHE260      0.0534
     88  CG      -158.5430 -142.9990  198.9980 C.ar  260  PHE260     -0.0203
     89  CD1     -158.3460 -142.2460  200.1560 C.ar  260  PHE260     -0.0042
     90  CD2     -158.1430 -142.4620  197.7720 C.ar  260  PHE260     -0.0042
     91  CE1     -157.7760 -140.9920  200.0920 C.ar  260  PHE260     -0.0003
     92  CE2     -157.5750 -141.2130  197.6970 C.ar  260  PHE260     -0.0003
     93  CZ      -157.3880 -140.4710  198.8570 C.ar  260  PHE260     -0.0000
     94  N       -159.4740 -148.4830  199.7740 N.3   262  VAL262     -0.1245
     95  CA      -158.4950 -149.3350  199.1190 C.3   262  VAL262      0.1561
     96  C       -157.7470 -150.1910  200.1250 C.2   262  VAL262      0.2260
     97  O       -157.6270 -151.3970  199.9590 O.2   262  VAL262     -0.2867
     98  CB      -157.4900 -148.4970  198.3210 C.3   262  VAL262      0.0252
     99  CG1     -156.3160 -149.3590  197.8450 C.3   262  VAL262      0.0019
    100  CG2     -158.1950 -147.8080  197.1690 C.3   262  VAL262      0.0019
    101  N       -151.2270 -148.3390  191.8310 N.3   356  SER356     -0.1202
    102  CA      -152.1490 -147.4100  192.4570 C.3   356  SER356      0.2020
    103  C       -153.5140 -147.4770  191.7920 C.2   356  SER356      0.2619
    104  O       -154.5420 -147.4930  192.4770 O.2   356  SER356     -0.2717
    105  CB      -151.5920 -145.9910  192.4110 C.3   356  SER356      0.2103
    106  OG      -150.4340 -145.8610  193.2260 O.3   356  SER356     -0.2182
    107  N       -153.5400 -147.5480  190.4650 N.am  357  SER357     -0.1951
    108  CA      -154.8200 -147.7220  189.8040 C.3   357  SER357      0.1924
    109  C       -155.4170 -149.0810  190.1750 C.2   357  SER357      0.2314
    110  O       -156.6400 -149.2120  190.2550 O.2   357  SER357     -0.2863
    111  CB      -154.6900 -147.6010  188.2840 C.3   357  SER357      0.2116
    112  OG      -155.9820 -147.6940  187.6840 O.3   357  SER357     -0.2180
    113  N       -157.2910 -148.6500  193.4340 N.3   360  GLY360     -0.1225
    114  CA      -158.5000 -147.8670  193.3160 C.3   360  GLY360      0.1811
    115  C       -159.6100 -148.7270  192.7550 C.2   360  GLY360      0.2280
    116  O       -160.7190 -148.7360  193.2790 O.2   360  GLY360     -0.2866
@<TRIPOS>BOND
     1    45    44    2
     2    44    43    1
     3    42    43    1
     4    43    46    1
     5   112   111    1
     6    46    47    1
     7   111   108    1
     8    38    37    2
     9    49    47   ar
    10    49    51   ar
    11    47    48   ar
    12    37    36    1
    13    51    52   ar
    14   108   109    1
    15   108   107    1
    16    48    50   ar
    17    36    35    1
    18    36    39    1
    19   109   110    2
    20    52    50   ar
    21    52    53    1
    22   107   103   am
    23    40    39    1
    24    33    32    2
    25    39    41    1
    26   103   102    1
    27   103   104    2
    28   101   102    1
    29    32    31    1
    30   105   102    1
    31   105   106    1
    32   115   116    2
    33   115   114    1
    34    19    18    1
    35    19    20    2
    36    21    18    1
    37    21    22    1
    38    25    26    1
    39    18    17    1
    40   114   113    1
    41    31    30    1
    42    31    34    1
    43    24    22   ar
    44    22    23   ar
    45    26    29    1
    46    26    27    1
    47    27    28    2
    48     4     3    2
    49     2     1    1
    50     2     3    1
    51     2     5    1
    52     7     9   ar
    53     7     6   ar
    54     3    12   am
    55     9    11   ar
    56     5     6    1
    57   100    98    1
    58     6     8   ar
    59    15    14    2
    60    14    13    1
    61    92    90   ar
    62    92    93   ar
    63    12    13    1
    64    90    88   ar
    65    99    98    1
    66    11    10   ar
    67    98    95    1
    68    13    16    1
    69     8    10   ar
    70    60    62   ar
    71    60    59   ar
    72    62    64   ar
    73    86    85    2
    74    57    56    2
    75    93    91   ar
    76    88    87    1
    77    88    89   ar
    78    87    84    1
    79    58    59    1
    80    58    55    1
    81    95    94    1
    82    95    96    1
    83    59    61   ar
    84    64    63   ar
    85    61    63   ar
    86    56    55    1
    87    56    65   am
    88    68    67    2
    89    85    84    1
    90    97    96    2
    91    66    65    1
    92    66    67    1
    93    66    69    1
    94    84    83    1
    95    91    89   ar
    96    55    54    1
    97    70    69    1
    98    67    71   am
    99    80    79    1
   100    80    81    1
   101    82    81    2
   102    74    73    2
   103    79    73   am
   104    71    72    1
   105    73    72    1
   106    72    75    1
   107    75    76    1
   108    78    76    1
   109    76    77    1
