@<TRIPOS>MOLECULE
tmp/4xp9A01.pdb
 112 109 0 0 0
SMALL
GASTEIGER

@<TRIPOS>ATOM
      1  N       -146.6700 -143.5790  176.5850 N.3   109  ARG109     -0.1245
      2  CA      -146.5320 -142.8380  175.3400 C.3   109  ARG109      0.1563
      3  C       -145.1190 -142.3130  175.1620 C.2   109  ARG109      0.2260
      4  O       -144.5940 -142.3080  174.0490 O.2   109  ARG109     -0.2867
      5  CB      -147.5240 -141.6800  175.2840 C.3   109  ARG109      0.0307
      6  CG      -147.4740 -140.9100  173.9760 C.3   109  ARG109      0.0489
      7  CD      -147.6400 -141.8590  172.8170 C.3   109  ARG109      0.2205
      8  NE      -147.5280 -141.1970  171.5220 N.pl3 109  ARG109     -0.0865
      9  CZ      -146.4350 -141.2100  170.7700 C.cat 109  ARG109      0.5346
     10  NH1     -145.3480 -141.8420  171.1940 N.pl3 109  ARG109      0.1354
     11  NH2     -146.4240 -140.5860  169.5980 N.pl3 109  ARG109      0.1354
     12  N       -142.8350 -145.5560  174.4630 N.3   112  PHE112     -0.1227
     13  CA      -142.8720 -145.9690  173.0680 C.3   112  PHE112      0.1736
     14  C       -142.1330 -144.9260  172.2540 C.2   112  PHE112      0.2595
     15  O       -141.6330 -145.1970  171.1710 O.2   112  PHE112     -0.2718
     16  CB      -144.3060 -146.1220  172.5680 C.3   112  PHE112      0.0547
     17  CG      -145.0610 -147.2810  173.1870 C.ar  112  PHE112     -0.0202
     18  CD1     -144.3960 -148.4330  173.5960 C.ar  112  PHE112     -0.0042
     19  CD2     -146.4450 -147.2220  173.3460 C.ar  112  PHE112     -0.0042
     20  CE1     -145.0990 -149.5050  174.1590 C.ar  112  PHE112     -0.0003
     21  CE2     -147.1490 -148.2860  173.9040 C.ar  112  PHE112     -0.0003
     22  CZ      -146.4740 -149.4280  174.3120 C.ar  112  PHE112     -0.0000
     23  N       -142.0580 -143.7210  172.7980 N.am  113  ALA113     -0.1980
     24  CA      -141.4110 -142.6140  172.1100 C.3   113  ALA113      0.1597
     25  C       -139.8860 -142.6430  172.1990 C.2   113  ALA113      0.2287
     26  O       -139.2120 -141.9230  171.4660 O.2   113  ALA113     -0.2864
     27  CB      -141.9280 -141.3110  172.6560 C.3   113  ALA113      0.0319
     28  N       -137.8760 -145.3320  171.8580 N.3   115  PHE115     -0.1227
     29  CA      -137.2200 -146.3740  171.0910 C.3   115  PHE115      0.1736
     30  C       -136.5130 -145.7000  169.9240 C.2   115  PHE115      0.2596
     31  O       -136.9500 -145.7620  168.7820 O.2   115  PHE115     -0.2718
     32  CB      -138.2260 -147.4250  170.6220 C.3   115  PHE115      0.0547
     33  CG      -138.7610 -148.2850  171.7320 C.ar  115  PHE115     -0.0202
     34  CD1     -137.9810 -149.2880  172.2920 C.ar  115  PHE115     -0.0042
     35  CD2     -140.0390 -148.0830  172.2270 C.ar  115  PHE115     -0.0042
     36  CE1     -138.4670 -150.0740  173.3190 C.ar  115  PHE115     -0.0003
     37  CE2     -140.5370 -148.8690  173.2480 C.ar  115  PHE115     -0.0003
     38  CZ      -139.7490 -149.8660  173.7950 C.ar  115  PHE115     -0.0000
     39  N       -135.4370 -145.0050  170.2480 N.am  116  THR116     -0.1953
     40  CA      -134.6700 -144.3130  169.2490 C.3   116  THR116      0.1897
     41  C       -133.3310 -143.9040  169.7520 C.2   116  THR116      0.2313
     42  O       -133.0850 -143.7960  170.9590 O.2   116  THR116     -0.2863
     43  CB      -135.3500 -143.0310  168.7300 C.3   116  THR116      0.1794
     44  OG1     -134.3790 -142.2780  167.9880 O.3   116  THR116     -0.2208
     45  CG2     -135.8490 -142.1730  169.8830 C.3   116  THR116      0.0378
     46  N       -131.8650 -141.0750  168.9910 N.3   118  SER118     -0.1217
     47  CA      -131.8610 -139.6360  169.2470 C.3   118  SER118      0.1889
     48  C       -133.2420 -139.1470  169.7200 C.2   118  SER118      0.2288
     49  O       -134.1900 -139.0380  168.9210 O.2   118  SER118     -0.2866
     50  CB      -131.4540 -138.8670  167.9940 C.3   118  SER118      0.2089
     51  OG      -131.3640 -137.4690  168.2530 O.3   118  SER118     -0.2183
     52  N       -136.5260 -137.3070  170.7360 N.3   120  PRO120     -0.2116
     53  CA      -137.2740 -136.2400  170.0510 C.3   120  PRO120      0.1372
     54  C       -137.3110 -134.9000  170.7780 C.2   120  PRO120      0.2244
     55  O       -137.3230 -133.8520  170.1310 O.2   120  PRO120     -0.2868
     56  CB      -138.6720 -136.8090  169.9060 C.3   120  PRO120      0.0268
     57  CG      -138.7770 -137.8670  170.9530 C.3   120  PRO120      0.0207
     58  CD      -137.3940 -138.4430  171.0730 C.3   120  PRO120      0.0892
     59  N       -143.1280 -129.4400  165.1010 N.3   128  TRP128     -0.1241
     60  CA      -144.0300 -128.9650  166.1570 C.3   128  TRP128      0.1605
     61  C       -143.5080 -127.7770  166.9590 C.2   128  TRP128      0.2264
     62  O       -144.1910 -127.3090  167.8650 O.2   128  TRP128     -0.2867
     63  CB      -144.3390 -130.0830  167.1440 C.3   128  TRP128      0.0550
     64  CG      -143.1260 -130.6180  167.7920 C.ar  128  TRP128      0.0003
     65  CD1     -142.4660 -130.0910  168.8650 C.ar  128  TRP128      0.0946
     66  CD2     -142.4120 -131.7960  167.4200 C.ar  128  TRP128      0.0152
     67  NE1     -141.3810 -130.8700  169.1820 N.ar  128  TRP128     -0.2442
     68  CE2     -141.3260 -131.9260  168.3100 C.ar  128  TRP128      0.0810
     69  CE3     -142.5860 -132.7570  166.4230 C.ar  128  TRP128      0.0012
     70  CZ2     -140.4150 -132.9830  168.2280 C.ar  128  TRP128      0.0191
     71  CZ3     -141.6840 -133.8000  166.3450 C.ar  128  TRP128      0.0001
     72  CH2     -140.6120 -133.9050  167.2410 C.ar  128  TRP128      0.0015
     73  N       -142.3250 -130.2610  173.1930 N.3   150  TYR150     -0.1241
     74  CA      -142.5760 -131.6280  172.7630 C.3   150  TYR150      0.1605
     75  C       -143.7810 -132.1800  173.4830 C.2   150  TYR150      0.2264
     76  O       -144.6750 -132.7500  172.8640 O.2   150  TYR150     -0.2867
     77  CB      -141.3850 -132.5380  173.0240 C.3   150  TYR150      0.0534
     78  CG      -141.6200 -133.9680  172.5800 C.ar  150  TYR150     -0.0201
     79  CD1     -141.4690 -134.3330  171.2520 C.ar  150  TYR150     -0.0009
     80  CD2     -141.9830 -134.9540  173.4880 C.ar  150  TYR150     -0.0009
     81  CE1     -141.6730 -135.6350  170.8410 C.ar  150  TYR150      0.0417
     82  CE2     -142.1960 -136.2670  173.0870 C.ar  150  TYR150      0.0417
     83  CZ      -142.0330 -136.6040  171.7630 C.ar  150  TYR150      0.1957
     84  OH      -142.2350 -137.9040  171.3470 O.3   150  TYR150     -0.2866
     85  N       -146.5180 -131.7040  170.7860 N.3   154  TYR154     -0.1241
     86  CA      -146.4870 -132.9760  170.0670 C.3   154  TYR154      0.1605
     87  C       -147.2650 -134.1090  170.7510 C.2   154  TYR154      0.2264
     88  O       -148.1030 -134.7470  170.1250 O.2   154  TYR154     -0.2867
     89  CB      -145.0540 -133.4510  169.8440 C.3   154  TYR154      0.0534
     90  CG      -144.9970 -134.7550  169.0800 C.ar  154  TYR154     -0.0201
     91  CD1     -145.0860 -134.7670  167.6920 C.ar  154  TYR154     -0.0009
     92  CD2     -144.8850 -135.9720  169.7390 C.ar  154  TYR154     -0.0009
     93  CE1     -145.0500 -135.9540  166.9720 C.ar  154  TYR154      0.0417
     94  CE2     -144.8530 -137.1760  169.0300 C.ar  154  TYR154      0.0417
     95  CZ      -144.9330 -137.1560  167.6460 C.ar  154  TYR154      0.1957
     96  OH      -144.8890 -138.3330  166.9380 O.3   154  TYR154     -0.2866
     97  N       -153.1310 -142.3670  168.9460 N.3   173  ASP173     -0.1239
     98  CA      -151.9130 -142.9370  169.5170 C.3   173  ASP173      0.1674
     99  C       -152.0050 -142.9140  171.0540 C.2   173  ASP173      0.2266
    100  O       -151.5230 -143.8240  171.7240 O.2   173  ASP173     -0.2867
    101  CB      -150.6640 -142.1910  169.0220 C.3   173  ASP173      0.1410
    102  CG      -150.5660 -140.7710  169.5720 C.2   173  ASP173      0.3668
    103  OD1     -151.6150 -140.0790  169.6990 O.co2 173  ASP173     -0.2456
    104  OD2     -149.4260 -140.3540  169.8840 O.co2 173  ASP173     -0.2456
    105  N       -154.5250 -145.5370  172.1540 N.3   176  LEU176     -0.1245
    106  CA      -153.8700 -146.8270  172.1040 C.3   176  LEU176      0.1561
    107  C       -153.1500 -147.0720  173.4180 C.2   176  LEU176      0.2260
    108  O       -153.2440 -148.1620  173.9920 O.2   176  LEU176     -0.2867
    109  CB      -152.8870 -146.9020  170.9430 C.3   176  LEU176      0.0270
    110  CG      -152.2510 -148.2800  170.7920 C.3   176  LEU176      0.0019
    111  CD1     -153.3530 -149.3260  170.7290 C.3   176  LEU176      0.0001
    112  CD2     -151.3520 -148.3390  169.5580 C.3   176  LEU176      0.0001
@<TRIPOS>BOND
     1    59    60    1
     2    60    61    1
     3    60    63    1
     4    71    69   ar
     5    71    72   ar
     6    69    66   ar
     7    96    95    1
     8    61    62    2
     9    93    95   ar
    10    93    91   ar
    11    63    64    1
    12    72    70   ar
    13    66    64   ar
    14    66    68   ar
    15    95    94   ar
    16    91    90   ar
    17    64    65   ar
    18    44    43    1
    19    50    51    1
    20    50    47    1
    21    70    68   ar
    22    68    67   ar
    23    43    40    1
    24    43    45    1
    25    31    30    2
    26    65    67   ar
    27    49    48    2
    28    97    98    1
    29    46    47    1
    30   101    98    1
    31   101   102    1
    32    94    92   ar
    33    90    92   ar
    34    90    89    1
    35    47    48    1
    36    40    41    1
    37    40    39    1
    38    98    99    1
    39   112   110    1
    40   102   103   ar
    41   102   104   ar
    42    11     9    1
    43    41    42    2
    44    89    86    1
    45    56    53    1
    46    56    57    1
    47    30    39   am
    48    30    29    1
    49    53    52    1
    50    53    54    1
    51    86    87    1
    52    86    85    1
    53    88    87    2
    54    55    54    2
    55    32    29    1
    56    32    33    1
    57   111   110    1
    58    52    58    1
    59     9    10    1
    60     9     8    2
    61   110   109    1
    62    81    79   ar
    63    81    83   ar
    64   109   106    1
    65    57    58    1
    66    99   100    2
    67    29    28    1
    68    15    14    2
    69    79    78   ar
    70    84    83    1
    71    26    25    2
    72     8     7    1
    73    33    35   ar
    74    33    34   ar
    75    83    82   ar
    76   106   105    1
    77   106   107    1
    78    24    25    1
    79    24    27    1
    80    24    23    1
    81    35    37   ar
    82    14    23   am
    83    14    13    1
    84    34    36   ar
    85    16    13    1
    86    16    17    1
    87    78    77    1
    88    78    80   ar
    89    74    77    1
    90    74    73    1
    91    74    75    1
    92     7     6    1
    93    76    75    2
    94    13    12    1
    95    82    80   ar
    96    17    19   ar
    97    17    18   ar
    98    37    38   ar
    99    36    38   ar
   100    19    21   ar
   101   107   108    2
   102    18    20   ar
   103    21    22   ar
   104     6     5    1
   105     4     3    2
   106    20    22   ar
   107     3     2    1
   108     5     2    1
   109     2     1    1
