@<TRIPOS>MOLECULE
tmp/4xp9A00.pdb
 164 163 0 0 0
SMALL
GASTEIGER

@<TRIPOS>ATOM
      1  N       -143.1340 -134.8220  196.8540 N.3    29  PHE29      -0.1241
      2  CA      -142.3980 -134.7620  198.1130 C.3    29  PHE29       0.1605
      3  C       -141.0530 -134.0090  198.0060 C.2    29  PHE29       0.2264
      4  O       -140.8150 -133.0910  198.7920 O.2    29  PHE29      -0.2867
      5  CB      -142.1430 -136.1560  198.6870 C.3    29  PHE29       0.0534
      6  CG      -141.2580 -136.1280  199.8970 C.ar   29  PHE29      -0.0203
      7  CD1     -141.7860 -135.8280  201.1460 C.ar   29  PHE29      -0.0042
      8  CD2     -139.8950 -136.3780  199.7910 C.ar   29  PHE29      -0.0042
      9  CE1     -140.9750 -135.7770  202.2690 C.ar   29  PHE29      -0.0003
     10  CE2     -139.0800 -136.3320  200.9120 C.ar   29  PHE29      -0.0003
     11  CZ      -139.6200 -136.0250  202.1510 C.ar   29  PHE29      -0.0000
     12  N       -138.8080 -131.9690  207.1050 N.3    42  LEU42      -0.1245
     13  CA      -138.9920 -133.3000  207.6600 C.3    42  LEU42       0.1561
     14  C       -139.6370 -133.2380  209.0480 C.2    42  LEU42       0.2260
     15  O       -140.3570 -134.1620  209.4440 O.2    42  LEU42      -0.2867
     16  CB      -137.6570 -134.0390  207.7270 C.3    42  LEU42       0.0270
     17  CG      -137.0220 -134.3010  206.3600 C.3    42  LEU42       0.0019
     18  CD1     -135.5680 -134.6780  206.5030 C.3    42  LEU42       0.0001
     19  CD2     -137.7710 -135.3820  205.6250 C.3    42  LEU42       0.0001
     20  N       -143.3360 -132.6410  208.5790 N.3    45  TYR45      -0.1227
     21  CA      -143.7290 -133.8270  207.8290 C.3    45  TYR45       0.1736
     22  C       -143.8140 -135.0470  208.7400 C.2    45  TYR45       0.2596
     23  O       -144.7910 -135.7940  208.7000 O.2    45  TYR45      -0.2718
     24  CB      -142.7300 -134.0750  206.7060 C.3    45  TYR45       0.0548
     25  CG      -142.9530 -135.3530  205.9240 C.ar   45  TYR45      -0.0200
     26  CD1     -143.8360 -135.3910  204.8590 C.ar   45  TYR45      -0.0009
     27  CD2     -142.2510 -136.5060  206.2290 C.ar   45  TYR45      -0.0009
     28  CE1     -144.0270 -136.5350  204.1320 C.ar   45  TYR45       0.0417
     29  CE2     -142.4350 -137.6610  205.5050 C.ar   45  TYR45       0.0417
     30  CZ      -143.3270 -137.6700  204.4560 C.ar   45  TYR45       0.1957
     31  OH      -143.5340 -138.8190  203.7240 O.3    45  TYR45      -0.2866
     32  N       -142.8020 -135.2300  209.5830 N.am   46  GLY46      -0.1957
     33  CA      -142.7610 -136.3830  210.4600 C.3    46  GLY46       0.1869
     34  C       -143.8170 -136.3270  211.5450 C.2    46  GLY46       0.2309
     35  O       -144.4110 -137.3420  211.9040 O.2    46  GLY46      -0.2863
     36  N       -147.0500 -137.1020  209.9400 N.3    49  LEU49      -0.1231
     37  CA      -147.0480 -138.5100  209.6070 C.3    49  LEU49       0.1693
     38  C       -147.4380 -139.3270  210.8350 C.2    49  LEU49       0.2591
     39  O       -148.1590 -140.3340  210.7380 O.2    49  LEU49      -0.2718
     40  CB      -145.6730 -138.9070  209.1090 C.3    49  LEU49       0.0284
     41  CG      -145.5200 -140.2810  208.5050 C.3    49  LEU49       0.0019
     42  CD1     -146.7010 -140.5590  207.6030 C.3    49  LEU49       0.0001
     43  CD2     -144.2240 -140.3220  207.7220 C.3    49  LEU49       0.0001
     44  N       -146.9940 -138.8510  211.9980 N.am   50  ALA50      -0.1980
     45  CA      -147.0970 -139.6110  213.2310 C.3    50  ALA50       0.1597
     46  C       -148.4600 -139.4850  213.8970 C.2    50  ALA50       0.2287
     47  O       -148.9820 -140.4600  214.4480 O.2    50  ALA50      -0.2864
     48  CB      -146.0140 -139.1750  214.1820 C.3    50  ALA50       0.0319
     49  N       -150.2490 -141.8410  209.7250 N.3    54  ILE54      -0.1245
     50  CA      -150.1180 -143.2480  210.1010 C.3    54  ILE54       0.1561
     51  C       -151.2980 -143.7380  210.9520 C.2    54  ILE54       0.2260
     52  O       -151.8240 -144.8270  210.7030 O.2    54  ILE54      -0.2867
     53  CB      -148.8190 -143.5170  210.8180 C.3    54  ILE54       0.0252
     54  CG1     -147.6450 -143.2300  209.8890 C.3    54  ILE54       0.0019
     55  CG2     -148.7400 -144.9520  211.2120 C.3    54  ILE54       0.0019
     56  CD1     -146.3160 -143.6520  210.4310 C.3    54  ILE54       0.0001
     57  N       -151.0630 -154.3340  212.6350 N.3   277  TYR277     -0.1241
     58  CA      -150.3170 -153.1930  213.1650 C.3   277  TYR277      0.1605
     59  C       -148.8480 -153.1900  212.7350 C.2   277  TYR277      0.2264
     60  O       -148.2860 -152.1410  212.4200 O.2   277  TYR277     -0.2867
     61  CB      -150.3990 -153.1930  214.6850 C.3   277  TYR277      0.0534
     62  CG      -149.5030 -152.1980  215.3810 C.ar  277  TYR277     -0.0201
     63  CD1     -149.7910 -150.8430  215.3660 C.ar  277  TYR277     -0.0009
     64  CD2     -148.3960 -152.6170  216.0920 C.ar  277  TYR277     -0.0009
     65  CE1     -148.9860 -149.9330  216.0230 C.ar  277  TYR277      0.0417
     66  CE2     -147.5890 -151.7120  216.7620 C.ar  277  TYR277      0.0417
     67  CZ      -147.8890 -150.3750  216.7170 C.ar  277  TYR277      0.1957
     68  OH      -147.0920 -149.4640  217.3690 O.3   277  TYR277     -0.2866
     69  N       -147.0890 -150.3180  210.0450 N.3   281  LEU281     -0.1245
     70  CA      -145.8890 -149.5390  210.3290 C.3   281  LEU281      0.1561
     71  C       -144.8060 -149.7700  209.2960 C.2   281  LEU281      0.2260
     72  O       -144.1790 -148.8240  208.8210 O.2   281  LEU281     -0.2867
     73  CB      -145.3320 -149.8790  211.7040 C.3   281  LEU281      0.0270
     74  CG      -146.0770 -149.3830  212.9390 C.3   281  LEU281      0.0019
     75  CD1     -145.3370 -149.8300  214.1820 C.3   281  LEU281      0.0001
     76  CD2     -146.2570 -147.8640  212.9240 C.3   281  LEU281      0.0001
     77  N       -143.6330 -146.7780  206.5920 N.3   285  PHE285     -0.1241
     78  CA      -142.2390 -146.3810  206.5760 C.3   285  PHE285      0.1605
     79  C       -141.6450 -146.4720  205.1840 C.2   285  PHE285      0.2264
     80  O       -140.9170 -145.5720  204.7480 O.2   285  PHE285     -0.2867
     81  CB      -141.4250 -147.2450  207.5310 C.3   285  PHE285      0.0534
     82  CG      -139.9560 -146.9720  207.4680 C.ar  285  PHE285     -0.0203
     83  CD1     -139.4180 -145.8680  208.1120 C.ar  285  PHE285     -0.0042
     84  CD2     -139.1120 -147.8070  206.7530 C.ar  285  PHE285     -0.0042
     85  CE1     -138.0610 -145.6010  208.0490 C.ar  285  PHE285     -0.0003
     86  CE2     -137.7580 -147.5500  206.6840 C.ar  285  PHE285     -0.0003
     87  CZ      -137.2280 -146.4450  207.3380 C.ar  285  PHE285     -0.0000
     88  N       -142.7700 -143.4130  202.8710 N.3   288  SER288     -0.1202
     89  CA      -142.0200 -142.1890  203.0770 C.3   288  SER288      0.2020
     90  C       -140.5520 -142.3500  202.7050 C.2   288  SER288      0.2618
     91  O       -139.9460 -141.4430  202.1430 O.2   288  SER288     -0.2717
     92  CB      -142.1560 -141.7220  204.5210 C.3   288  SER288      0.2103
     93  OG      -143.4980 -141.3560  204.7940 O.3   288  SER288     -0.2182
     94  N       -139.9800 -143.5120  202.9780 N.am  289  ALA289     -0.1979
     95  CA      -138.5660 -143.6860  202.7040 C.3   289  ALA289      0.1597
     96  C       -138.3450 -143.5870  201.2020 C.2   289  ALA289      0.2287
     97  O       -137.3390 -143.0340  200.7390 O.2   289  ALA289     -0.2864
     98  CB      -138.0650 -145.0150  203.2480 C.3   289  ALA289      0.0319
     99  N       -138.1090 -140.0680  200.1670 N.3   292  PHE292     -0.1241
    100  CA      -136.8540 -139.4830  200.5930 C.3   292  PHE292      0.1605
    101  C       -135.8010 -139.8070  199.5510 C.2   292  PHE292      0.2264
    102  O       -135.1040 -138.9150  199.0710 O.2   292  PHE292     -0.2867
    103  CB      -136.4700 -140.0170  201.9770 C.3   292  PHE292      0.0534
    104  CG      -135.2540 -139.3610  202.5770 C.ar  292  PHE292     -0.0203
    105  CD1     -135.3020 -138.0410  203.0080 C.ar  292  PHE292     -0.0042
    106  CD2     -134.0700 -140.0780  202.7360 C.ar  292  PHE292     -0.0042
    107  CE1     -134.1860 -137.4380  203.5680 C.ar  292  PHE292     -0.0003
    108  CE2     -132.9540 -139.4830  203.2920 C.ar  292  PHE292     -0.0003
    109  CZ      -133.0140 -138.1620  203.7140 C.ar  292  PHE292     -0.0000
    110  N       -153.3140 -157.7340  221.4360 N.3   448  PHE448     -0.1228
    111  CA      -153.1880 -156.6340  222.3810 C.3   448  PHE448      0.1721
    112  C       -153.9710 -155.4210  221.9280 C.2   448  PHE448      0.2437
    113  O       -154.1490 -155.2130  220.7340 O.2   448  PHE448     -0.2733
    114  CB      -151.7220 -156.2660  222.5860 C.3   448  PHE448      0.0547
    115  CG      -151.0030 -155.9300  221.3180 C.ar  448  PHE448     -0.0202
    116  CD1     -150.8810 -154.6160  220.9070 C.ar  448  PHE448     -0.0042
    117  CD2     -150.4460 -156.9250  220.5390 C.ar  448  PHE448     -0.0042
    118  CE1     -150.2170 -154.2950  219.7460 C.ar  448  PHE448     -0.0003
    119  CE2     -149.7900 -156.6130  219.3680 C.ar  448  PHE448     -0.0003
    120  CZ      -149.6710 -155.2910  218.9710 C.ar  448  PHE448     -0.0000
    121  N       -154.4460 -154.6160  222.8880 N.am  449  PRO449     -0.2718
    122  CA      -155.0730 -153.3260  222.6070 C.3   449  PRO449      0.1520
    123  C       -154.0680 -152.3470  222.0100 C.2   449  PRO449      0.2440
    124  O       -152.8740 -152.4290  222.3290 O.2   449  PRO449     -0.2731
    125  CB      -155.5520 -152.8540  223.9860 C.3   449  PRO449      0.0310
    126  CG      -154.6380 -153.5130  224.9490 C.3   449  PRO449      0.0237
    127  CD      -154.2840 -154.8430  224.3370 C.3   449  PRO449      0.0939
    128  N       -154.5470 -151.4280  221.1620 N.am  450  PRO450     -0.2716
    129  CA      -153.7450 -150.3020  220.6910 C.3   450  PRO450      0.1536
    130  C       -153.3680 -149.4290  221.8760 C.2   450  PRO450      0.2599
    131  O       -154.1600 -149.3420  222.8120 O.2   450  PRO450     -0.2715
    132  CB      -154.6980 -149.5550  219.7450 C.3   450  PRO450      0.0310
    133  CG      -155.8570 -150.4810  219.5140 C.3   450  PRO450      0.0237
    134  CD      -155.9510 -151.3260  220.7250 C.3   450  PRO450      0.0939
    135  N       -152.1940 -148.8100  221.8510 N.am  451  GLY451     -0.1955
    136  CA      -151.7810 -147.9580  222.9480 C.3   451  GLY451      0.1869
    137  C       -152.6890 -146.7470  223.0770 C.2   451  GLY451      0.2309
    138  O       -153.4560 -146.4430  222.1650 O.2   451  GLY451     -0.2863
    139  N       -151.7990 -143.9090  222.8780 N.3   453  TYR453     -0.1227
    140  CA      -151.3550 -142.9980  221.8290 C.3   453  TYR453      0.1736
    141  C       -152.2220 -143.0870  220.5690 C.2   453  TYR453      0.2595
    142  O       -152.7250 -142.0820  220.0730 O.2   453  TYR453     -0.2718
    143  CB      -149.9040 -143.2820  221.4610 C.3   453  TYR453      0.0548
    144  CG      -149.4380 -142.4870  220.2740 C.ar  453  TYR453     -0.0200
    145  CD1     -149.1930 -141.1360  220.3910 C.ar  453  TYR453     -0.0009
    146  CD2     -149.2520 -143.0820  219.0410 C.ar  453  TYR453     -0.0009
    147  CE1     -148.7720 -140.3930  219.3210 C.ar  453  TYR453      0.0417
    148  CE2     -148.8310 -142.3470  217.9580 C.ar  453  TYR453      0.0417
    149  CZ      -148.5910 -140.9960  218.1070 C.ar  453  TYR453      0.1957
    150  OH      -148.1690 -140.2370  217.0410 O.3   453  TYR453     -0.2866
    151  N       -152.4100 -144.2970  220.0630 N.am  454  TRP454     -0.1976
    152  CA      -153.2150 -144.4830  218.8640 C.3   454  TRP454      0.1640
    153  C       -154.6620 -144.0990  219.1230 C.2   454  TRP454      0.2290
    154  O       -155.3860 -143.7140  218.2030 O.2   454  TRP454     -0.2864
    155  CB      -153.1370 -145.9300  218.3770 C.3   454  TRP454      0.0576
    156  CG      -151.7660 -146.3360  217.9770 C.ar  454  TRP454      0.0006
    157  CD1     -150.9470 -147.2220  218.6120 C.ar  454  TRP454      0.0946
    158  CD2     -151.0410 -145.8560  216.8480 C.ar  454  TRP454      0.0152
    159  NE1     -149.7590 -147.3270  217.9370 N.ar  454  TRP454     -0.2442
    160  CE2     -149.7930 -146.4940  216.8500 C.ar  454  TRP454      0.0810
    161  CE3     -151.3280 -144.9400  215.8380 C.ar  454  TRP454      0.0012
    162  CZ2     -148.8310 -146.2470  215.8780 C.ar  454  TRP454      0.0191
    163  CZ3     -150.3730 -144.6930  214.8750 C.ar  454  TRP454      0.0001
    164  CH2     -149.1400 -145.3440  214.9010 C.ar  454  TRP454      0.0015
@<TRIPOS>BOND
     1     1     2    1
     2     3     2    1
     3     3     4    2
     4     2     5    1
     5     5     6    1
     6   102   101    2
     7   101   100    1
     8     8     6   ar
     9     8    10   ar
    10     6     7   ar
    11    99   100    1
    12   100   103    1
    13    97    96    2
    14    10    11   ar
    15     7     9   ar
    16    96    95    1
    17   103   104    1
    18    91    90    2
    19    11     9   ar
    20   104   106   ar
    21   104   105   ar
    22    95    94    1
    23    95    98    1
    24    90    94   am
    25    90    89    1
    26   106   108   ar
    27    88    89    1
    28   105   107   ar
    29    89    92    1
    30   108   109   ar
    31   107   109   ar
    32    31    30    1
    33    28    30   ar
    34    28    26   ar
    35    30    29   ar
    36    92    93    1
    37    80    79    2
    38    26    25   ar
    39    79    78    1
    40    29    27   ar
    41    19    17    1
    42    25    27   ar
    43    25    24    1
    44    17    18    1
    45    17    16    1
    46    78    77    1
    47    78    81    1
    48    86    84   ar
    49    86    87   ar
    50    24    21    1
    51    84    82   ar
    52    12    13    1
    53    87    85   ar
    54    82    81    1
    55    82    83   ar
    56    42    41    1
    57    13    16    1
    58    13    14    1
    59    43    41    1
    60    21    20    1
    61    21    22    1
    62    85    83   ar
    63    41    40    1
    64    23    22    2
    65    22    32   am
    66    72    71    2
    67    14    15    2
    68    40    37    1
    69    71    70    1
    70    32    33    1
    71    37    36    1
    72    37    38    1
    73    49    50    1
    74    54    56    1
    75    54    53    1
    76    69    70    1
    77    50    53    1
    78    50    51    1
    79    70    73    1
    80    33    34    1
    81    52    51    2
    82    39    38    2
    83    53    55    1
    84    38    44   am
    85    34    35    2
    86    73    74    1
    87    44    45    1
    88    60    59    2
    89    57    58    1
    90    59    58    1
    91    76    74    1
    92    74    75    1
    93    58    61    1
    94    45    46    1
    95    45    48    1
    96    46    47    2
    97    61    62    1
    98   163   164   ar
    99   163   161   ar
   100   164   162   ar
   101    63    62   ar
   102    63    65   ar
   103    62    64   ar
   104   161   158   ar
   105   162   160   ar
   106    65    67   ar
   107    64    66   ar
   108    67    66   ar
   109    67    68    1
   110   158   160   ar
   111   158   156   ar
   112   160   159   ar
   113   150   149    1
   114   159   157   ar
   115   148   149   ar
   116   148   146   ar
   117   156   155    1
   118   156   157   ar
   119   149   147   ar
   120   154   153    2
   121   155   152    1
   122   152   153    1
   123   152   151    1
   124   120   119   ar
   125   120   118   ar
   126   146   144   ar
   127   147   145   ar
   128   119   117   ar
   129   133   132    1
   130   133   134    1
   131   132   129    1
   132   118   116   ar
   133   151   141   am
   134   142   141    2
   135   144   145   ar
   136   144   143    1
   137   117   115   ar
   138   141   140    1
   139   129   128    1
   140   129   130    1
   141   134   128    1
   142   113   112    2
   143   116   115   ar
   144   128   123   am
   145   115   114    1
   146   110   111    1
   147   143   140    1
   148   140   139    1
   149   135   130   am
   150   135   136    1
   151   130   131    2
   152   112   111    1
   153   112   121   am
   154   123   124    2
   155   123   122    1
   156   138   137    2
   157   111   114    1
   158   122   121    1
   159   122   125    1
   160   121   127    1
   161   136   137    1
   162   125   126    1
   163   127   126    1
