@<TRIPOS>MOLECULE
tmp/4xpaA01.pdb
 141 138 0 0 0
SMALL
GASTEIGER

@<TRIPOS>ATOM
      1  N        -45.8960 -134.1190   30.0550 N.3    29  PHE29      -0.1241
      2  CA       -45.1310 -134.0550   31.2980 C.3    29  PHE29       0.1605
      3  C        -43.7890 -133.3140   31.1530 C.2    29  PHE29       0.2264
      4  O        -43.5460 -132.3650   31.8980 O.2    29  PHE29      -0.2867
      5  CB       -44.9030 -135.4640   31.8720 C.3    29  PHE29       0.0534
      6  CG       -44.0430 -135.4830   33.1060 C.ar   29  PHE29      -0.0203
      7  CD1      -44.5850 -135.1990   34.3480 C.ar   29  PHE29      -0.0042
      8  CD2      -42.6910 -135.7770   33.0210 C.ar   29  PHE29      -0.0042
      9  CE1      -43.7960 -135.2100   35.4800 C.ar   29  PHE29      -0.0003
     10  CE2      -41.8980 -135.7900   34.1500 C.ar   29  PHE29      -0.0003
     11  CZ       -42.4510 -135.5060   35.3810 C.ar   29  PHE29      -0.0000
     12  N        -41.7960 -131.1500   40.1850 N.3    42  LEU42      -0.1245
     13  CA       -42.0200 -132.4940   40.6930 C.3    42  LEU42       0.1561
     14  C        -42.7110 -132.4510   42.0520 C.2    42  LEU42       0.2260
     15  O        -43.4220 -133.3860   42.4190 O.2    42  LEU42      -0.2867
     16  CB       -40.6990 -133.2600   40.7840 C.3    42  LEU42       0.0270
     17  CG       -39.9610 -133.4260   39.4520 C.3    42  LEU42       0.0019
     18  CD1      -38.6560 -134.1810   39.6320 C.3    42  LEU42       0.0001
     19  CD2      -40.8470 -134.1320   38.4420 C.3    42  LEU42       0.0001
     20  N        -46.3360 -131.8930   41.4530 N.3    45  TYR45      -0.1227
     21  CA       -46.6250 -133.1080   40.7030 C.3    45  TYR45       0.1736
     22  C        -46.6790 -134.3000   41.6430 C.2    45  TYR45       0.2596
     23  O        -47.6830 -135.0050   41.7020 O.2    45  TYR45      -0.2718
     24  CB       -45.5710 -133.3300   39.6150 C.3    45  TYR45       0.0548
     25  CG       -45.7020 -134.6360   38.8670 C.ar   45  TYR45      -0.0200
     26  CD1      -46.6090 -134.7730   37.8260 C.ar   45  TYR45      -0.0009
     27  CD2      -44.9040 -135.7260   39.1900 C.ar   45  TYR45      -0.0009
     28  CE1      -46.7290 -135.9650   37.1370 C.ar   45  TYR45       0.0417
     29  CE2      -45.0160 -136.9200   38.5070 C.ar   45  TYR45       0.0417
     30  CZ       -45.9300 -137.0350   37.4810 C.ar   45  TYR45       0.1957
     31  OH       -46.0430 -138.2250   36.7990 O.3    45  TYR45      -0.2866
     32  N        -45.5950 -134.5030   42.3870 N.am   46  GLY46      -0.1957
     33  CA       -45.5070 -135.5850   43.3480 C.3    46  GLY46       0.1869
     34  C        -46.6130 -135.5290   44.3800 C.2    46  GLY46       0.2309
     35  O        -47.2310 -136.5470   44.6840 O.2    46  GLY46      -0.2863
     36  N        -49.8000 -136.2790   42.7780 N.3    49  LEU49      -0.1231
     37  CA       -49.7100 -137.6900   42.4490 C.3    49  LEU49       0.1693
     38  C        -49.9480 -138.5060   43.7110 C.2    49  LEU49       0.2591
     39  O        -50.7330 -139.4560   43.7140 O.2    49  LEU49      -0.2718
     40  CB       -48.3470 -138.0180   41.8380 C.3    49  LEU49       0.0284
     41  CG       -48.1480 -139.4010   41.2270 C.3    49  LEU49       0.0019
     42  CD1      -49.0680 -139.5850   40.0400 C.3    49  LEU49       0.0001
     43  CD2      -46.6970 -139.5760   40.8210 C.3    49  LEU49       0.0001
     44  N        -49.2720 -138.1190   44.7890 N.am   50  ALA50      -0.1980
     45  CA       -49.3840 -138.8420   46.0450 C.3    50  ALA50       0.1597
     46  C        -50.7720 -138.7350   46.6560 C.2    50  ALA50       0.2287
     47  O        -51.4060 -139.7510   46.9200 O.2    50  ALA50      -0.2864
     48  CB       -48.3470 -138.3410   47.0370 C.3    50  ALA50       0.0319
     49  N        -52.7240 -141.1030   42.7990 N.3    54  ILE54      -0.1245
     50  CA       -52.5540 -142.5130   43.1220 C.3    54  ILE54       0.1561
     51  C        -53.7150 -143.0720   43.9580 C.2    54  ILE54       0.2260
     52  O        -54.1660 -144.1840   43.6950 O.2    54  ILE54      -0.2867
     53  CB       -51.2130 -142.7680   43.8330 C.3    54  ILE54       0.0252
     54  CG1      -50.0570 -142.3930   42.9060 C.3    54  ILE54       0.0019
     55  CG2      -51.0830 -144.2270   44.2150 C.3    54  ILE54       0.0019
     56  CD1      -48.6970 -142.7390   43.4540 C.3    54  ILE54       0.0001
     57  N        -53.1120 -153.6120   45.6760 N.3   277  TYR277     -0.1241
     58  CA       -52.4910 -152.4430   46.2740 C.3   277  TYR277      0.1605
     59  C        -51.0620 -152.3190   45.7860 C.2   277  TYR277      0.2264
     60  O        -50.5660 -151.2180   45.5620 O.2   277  TYR277     -0.2867
     61  CB       -52.5260 -152.5160   47.7980 C.3   277  TYR277      0.0534
     62  CG       -51.7440 -151.4110   48.4650 C.ar  277  TYR277     -0.0201
     63  CD1      -52.1420 -150.0890   48.3480 C.ar  277  TYR277     -0.0009
     64  CD2      -50.6090 -151.6900   49.2140 C.ar  277  TYR277     -0.0009
     65  CE1      -51.4320 -149.0740   48.9550 C.ar  277  TYR277      0.0417
     66  CE2      -49.8940 -150.6800   49.8280 C.ar  277  TYR277      0.0417
     67  CZ       -50.3110 -149.3730   49.6950 C.ar  277  TYR277      0.1957
     68  OH       -49.6030 -148.3610   50.3020 O.3   277  TYR277     -0.2866
     69  N        -49.6020 -149.3930   43.0880 N.3   281  LEU281     -0.1245
     70  CA       -48.3670 -148.6910   43.4130 C.3   281  LEU281      0.1561
     71  C        -47.3240 -148.9090   42.3250 C.2   281  LEU281      0.2260
     72  O        -46.6710 -147.9630   41.8820 O.2   281  LEU281     -0.2867
     73  CB       -47.8220 -149.1460   44.7680 C.3   281  LEU281      0.0270
     74  CG       -48.5870 -148.6750   46.0070 C.3   281  LEU281      0.0019
     75  CD1      -47.9290 -149.2090   47.2640 C.3   281  LEU281      0.0001
     76  CD2      -48.6730 -147.1560   46.0510 C.3   281  LEU281      0.0001
     77  N        -48.5290 -146.9970   39.1220 N.3   284  SER284     -0.1202
     78  CA       -48.4140 -145.5570   39.3360 C.3   284  SER284      0.2020
     79  C        -46.9850 -145.0940   39.1240 C.2   284  SER284      0.2618
     80  O        -46.7340 -144.1310   38.3980 O.2   284  SER284     -0.2717
     81  CB       -48.8660 -145.1710   40.7460 C.3   284  SER284      0.2103
     82  OG       -50.2100 -145.5390   40.9770 O.3   284  SER284     -0.2182
     83  N        -46.0560 -145.7950   39.7650 N.am  285  PHE285     -0.1975
     84  CA       -44.6470 -145.4550   39.6840 C.3   285  PHE285      0.1639
     85  C        -44.1250 -145.5530   38.2570 C.2   285  PHE285      0.2290
     86  O        -43.6010 -144.5780   37.7150 O.2   285  PHE285     -0.2864
     87  CB       -43.8300 -146.3610   40.6010 C.3   285  PHE285      0.0560
     88  CG       -42.3490 -146.2390   40.4040 C.ar  285  PHE285     -0.0200
     89  CD1      -41.6640 -145.1310   40.8780 C.ar  285  PHE285     -0.0042
     90  CD2      -41.6390 -147.2340   39.7460 C.ar  285  PHE285     -0.0042
     91  CE1      -40.2980 -145.0170   40.6990 C.ar  285  PHE285     -0.0003
     92  CE2      -40.2740 -147.1260   39.5640 C.ar  285  PHE285     -0.0003
     93  CZ       -39.6010 -146.0160   40.0420 C.ar  285  PHE285     -0.0000
     94  N        -45.3080 -142.7840   36.0040 N.3   288  SER288     -0.1202
     95  CA       -44.6500 -141.5180   36.2970 C.3   288  SER288      0.2020
     96  C        -43.1560 -141.6010   36.0080 C.2   288  SER288      0.2618
     97  O        -42.5380 -140.6140   35.6090 O.2   288  SER288     -0.2717
     98  CB       -44.8870 -141.1150   37.7500 C.3   288  SER288      0.2103
     99  OG       -46.2710 -140.9660   38.0060 O.3   288  SER288     -0.2182
    100  N        -42.5780 -142.7800   36.2090 N.am  289  ALA289     -0.1979
    101  CA       -41.1610 -142.9830   35.9290 C.3   289  ALA289      0.1597
    102  C        -40.9090 -142.8750   34.4360 C.2   289  ALA289      0.2287
    103  O        -39.8980 -142.3220   34.0080 O.2   289  ALA289     -0.2864
    104  CB       -40.6930 -144.3300   36.4480 C.3   289  ALA289      0.0319
    105  N        -40.8530 -139.3730   33.4880 N.3   292  PHE292     -0.1241
    106  CA       -39.5790 -138.7990   33.8910 C.3   292  PHE292      0.1605
    107  C        -38.4900 -139.1870   32.8970 C.2   292  PHE292      0.2264
    108  O        -37.6960 -138.3460   32.4800 O.2   292  PHE292     -0.2867
    109  CB       -39.2080 -139.2530   35.3040 C.3   292  PHE292      0.0534
    110  CG       -38.0510 -138.5030   35.8970 C.ar  292  PHE292     -0.0203
    111  CD1      -38.1690 -137.1580   36.2110 C.ar  292  PHE292     -0.0042
    112  CD2      -36.8470 -139.1420   36.1450 C.ar  292  PHE292     -0.0042
    113  CE1      -37.1080 -136.4610   36.7600 C.ar  292  PHE292     -0.0003
    114  CE2      -35.7840 -138.4520   36.6950 C.ar  292  PHE292     -0.0003
    115  CZ       -35.9140 -137.1080   36.9990 C.ar  292  PHE292     -0.0000
    116  N        -54.1190 -143.1240   55.7100 N.3   453  TYR453     -0.1227
    117  CA       -53.6650 -142.1960   54.6820 C.3   453  TYR453      0.1736
    118  C        -54.5410 -142.2580   53.4300 C.2   453  TYR453      0.2595
    119  O        -55.0230 -141.2330   52.9540 O.2   453  TYR453     -0.2718
    120  CB       -52.2070 -142.4760   54.3120 C.3   453  TYR453      0.0548
    121  CG       -51.7610 -141.7660   53.0550 C.ar  453  TYR453     -0.0200
    122  CD1      -51.5050 -140.4030   53.0610 C.ar  453  TYR453     -0.0009
    123  CD2      -51.5940 -142.4600   51.8630 C.ar  453  TYR453     -0.0009
    124  CE1      -51.0990 -139.7460   51.9160 C.ar  453  TYR453      0.0417
    125  CE2      -51.1890 -141.8120   50.7130 C.ar  453  TYR453      0.0417
    126  CZ       -50.9410 -140.4550   50.7460 C.ar  453  TYR453      0.1957
    127  OH       -50.5360 -139.8020   49.6050 O.3   453  TYR453     -0.2866
    128  N        -54.7470 -143.4600   52.9020 N.am  454  TRP454     -0.1976
    129  CA       -55.5560 -143.6250   51.6990 C.3   454  TRP454      0.1640
    130  C        -56.9860 -143.1770   51.9450 C.2   454  TRP454      0.2290
    131  O        -57.6040 -142.5430   51.0930 O.2   454  TRP454     -0.2864
    132  CB       -55.5410 -145.0810   51.2230 C.3   454  TRP454      0.0576
    133  CG       -54.1780 -145.5530   50.8500 C.ar  454  TRP454      0.0006
    134  CD1      -53.3950 -146.4290   51.5420 C.ar  454  TRP454      0.0946
    135  CD2      -53.4210 -145.1540   49.7050 C.ar  454  TRP454      0.0152
    136  NE1      -52.2000 -146.6080   50.8920 N.ar  454  TRP454     -0.2442
    137  CE2      -52.1910 -145.8340   49.7600 C.ar  454  TRP454      0.0810
    138  CE3      -53.6660 -144.2900   48.6360 C.ar  454  TRP454      0.0012
    139  CZ2      -51.2070 -145.6780   48.7860 C.ar  454  TRP454      0.0191
    140  CZ3      -52.6870 -144.1350   47.6710 C.ar  454  TRP454      0.0001
    141  CH2      -51.4740 -144.8250   47.7530 C.ar  454  TRP454      0.0015
@<TRIPOS>BOND
     1     1     2    1
     2     3     2    1
     3     3     4    2
     4     2     5    1
     5     5     6    1
     6   108   107    2
     7   107   106    1
     8     8     6   ar
     9     8    10   ar
    10     6     7   ar
    11   105   106    1
    12   106   109    1
    13   103   102    2
    14    10    11   ar
    15     7     9   ar
    16   102   101    1
    17   109   110    1
    18    11     9   ar
    19    97    96    2
    20   110   112   ar
    21   110   111   ar
    22   101   100    1
    23   101   104    1
    24    94    95    1
    25    96   100   am
    26    96    95    1
    27   112   114   ar
    28   111   113   ar
    29    95    98    1
    30   114   115   ar
    31   113   115   ar
    32    31    30    1
    33    28    30   ar
    34    28    26   ar
    35    30    29   ar
    36    86    85    2
    37    98    99    1
    38    26    25   ar
    39    85    84    1
    40    80    79    2
    41    19    17    1
    42    29    27   ar
    43    25    27   ar
    44    25    24    1
    45    77    78    1
    46    79    78    1
    47    79    83   am
    48    78    81    1
    49    17    18    1
    50    17    16    1
    51    92    90   ar
    52    92    93   ar
    53    24    21    1
    54    84    83    1
    55    84    87    1
    56    90    88   ar
    57    42    41    1
    58    93    91   ar
    59    12    13    1
    60    88    87    1
    61    88    89   ar
    62    13    16    1
    63    13    14    1
    64    91    89   ar
    65    21    20    1
    66    21    22    1
    67    81    82    1
    68    43    41    1
    69    41    40    1
    70    22    23    2
    71    22    32   am
    72    40    37    1
    73    72    71    2
    74    14    15    2
    75    71    70    1
    76    32    33    1
    77    37    36    1
    78    37    38    1
    79    49    50    1
    80    54    56    1
    81    54    53    1
    82    69    70    1
    83    50    53    1
    84    50    51    1
    85    33    34    1
    86    70    73    1
    87    52    51    2
    88    38    39    2
    89    38    44   am
    90    53    55    1
    91    34    35    2
    92    73    74    1
    93    44    45    1
    94    60    59    2
    95    57    58    1
    96    59    58    1
    97    74    76    1
    98    74    75    1
    99    45    46    1
   100    45    48    1
   101    58    61    1
   102    46    47    2
   103   140   141   ar
   104   140   138   ar
   105   141   139   ar
   106    61    62    1
   107    63    62   ar
   108    63    65   ar
   109    62    64   ar
   110   138   135   ar
   111   139   137   ar
   112    65    67   ar
   113    64    66   ar
   114   127   126    1
   115    67    66   ar
   116    67    68    1
   117   135   137   ar
   118   135   133   ar
   119   137   136   ar
   120   125   126   ar
   121   125   123   ar
   122   126   124   ar
   123   133   132    1
   124   133   134   ar
   125   136   134   ar
   126   131   130    2
   127   132   129    1
   128   129   130    1
   129   129   128    1
   130   123   121   ar
   131   124   122   ar
   132   128   118   am
   133   119   118    2
   134   121   122   ar
   135   121   120    1
   136   118   117    1
   137   120   117    1
   138   117   116    1
