@<TRIPOS>MOLECULE
tmp/4xpdB01.pdb
 91 86 0 0 0
SMALL
GASTEIGER

@<TRIPOS>ATOM
      1  N         25.2600    2.4330  -15.5600 N.3    17  ASN17      -0.1240
      2  CA        24.8490    2.1880  -14.1860 C.3    17  ASN17       0.1653
      3  C         25.9310    1.4940  -13.3600 C.2    17  ASN17       0.2266
      4  O         26.1080    1.8170  -12.1920 O.2    17  ASN17      -0.2867
      5  CB        23.5570    1.3780  -14.1600 C.3    17  ASN17       0.1155
      6  CG        23.0140    1.2140  -12.7670 C.2    17  ASN17       0.2627
      7  OD1       23.0920    0.1350  -12.1940 O.2    17  ASN17      -0.2716
      8  ND2       22.4840    2.2920  -12.2010 N.am   17  ASN17      -0.0877
      9  N         28.1780    3.1250  -10.1980 N.3    21  HIS21      -0.1241
     10  CA        28.2910    2.4200   -8.9230 C.3    21  HIS21       0.1621
     11  C         29.7460    2.1560   -8.5370 C.2    21  HIS21       0.2264
     12  O         30.0880    2.2120   -7.3570 O.2    21  HIS21      -0.2867
     13  CB        27.5060    1.1020   -8.9460 C.3    21  HIS21       0.0745
     14  CG        26.0530    1.2580   -8.6240 C.ar   21  HIS21       0.0817
     15  ND1       25.1340    1.7360   -9.5330 N.ar   21  HIS21      -0.2268
     16  CD2       25.3570    0.9880   -7.4950 C.ar   21  HIS21       0.1154
     17  CE1       23.9350    1.7540   -8.9780 C.ar   21  HIS21       0.1986
     18  NE2       24.0430    1.3090   -7.7400 N.ar   21  HIS21      -0.2212
     19  N         24.9970  -12.1840  -15.5150 N.3    48  THR48      -0.1218
     20  CA        24.5310  -13.4510  -14.9620 C.3    48  THR48       0.1862
     21  C         23.6150  -14.1250  -15.9800 C.2    48  THR48       0.2287
     22  O         23.1760  -13.4900  -16.9410 O.2    48  THR48      -0.2866
     23  CB        23.7500  -13.2560  -13.6530 C.3    48  THR48       0.1770
     24  OG1       22.5410  -12.5310  -13.9130 O.3    48  THR48      -0.2211
     25  CG2       24.5980  -12.5120  -12.6260 C.3    48  THR48       0.0375
     26  N         20.2770  -17.1350  -16.3200 N.3    50  THR50      -0.1218
     27  CA        19.3030  -18.0940  -15.8010 C.3    50  THR50       0.1862
     28  C         18.9000  -19.0380  -16.9300 C.2    50  THR50       0.2287
     29  O         18.3600  -18.5990  -17.9470 O.2    50  THR50      -0.2866
     30  CB        18.0460  -17.3950  -15.2450 C.3    50  THR50       0.1770
     31  OG1       17.4520  -16.5800  -16.2640 O.3    50  THR50      -0.2211
     32  CG2       18.4000  -16.5290  -14.0430 C.3    50  THR50       0.0375
     33  N         18.0120   -2.0200  -11.9910 N.3    53  PRO53      -0.2102
     34  CA        18.9100   -1.0170  -12.5670 C.3    53  PRO53       0.1504
     35  C         19.8790   -1.6190  -13.5830 C.2    53  PRO53       0.2576
     36  O         20.0900   -1.0440  -14.6540 O.2    53  PRO53      -0.2718
     37  CB        19.6680   -0.4810  -11.3480 C.3    53  PRO53       0.0282
     38  CG        18.7410   -0.6950  -10.2010 C.3    53  PRO53       0.0208
     39  CD        17.9230   -1.9160  -10.5240 C.3    53  PRO53       0.0893
     40  N         20.4600   -2.7660  -13.2340 N.am   54  THR54      -0.1939
     41  CA        21.3640   -3.4980  -14.1250 C.3    54  THR54       0.2028
     42  C         20.6710   -4.6430  -14.8750 C.2    54  THR54       0.2642
     43  O         21.3110   -5.3320  -15.6720 O.2    54  THR54      -0.2714
     44  CB        22.5690   -4.0690  -13.3470 C.3    54  THR54       0.1808
     45  OG1       22.1410   -4.5140  -12.0530 O.3    54  THR54      -0.2208
     46  CG2       23.6580   -3.0120  -13.1860 C.3    54  THR54       0.0379
     47  N         19.3750   -4.8410  -14.6300 N.am   55  TYR55      -0.1973
     48  CA        18.6160   -5.8990  -15.3080 C.3    55  TYR55       0.1639
     49  C         18.3510   -5.5530  -16.7730 C.2    55  TYR55       0.2290
     50  O         17.6870   -4.5610  -17.0760 O.2    55  TYR55      -0.2864
     51  CB        17.2910   -6.1850  -14.5870 C.3    55  TYR55       0.0560
     52  CG        17.3910   -7.2650  -13.5290 C.ar   55  TYR55      -0.0198
     53  CD1       17.7900   -6.9630  -12.2260 C.ar   55  TYR55      -0.0009
     54  CD2       17.0870   -8.5940  -13.8310 C.ar   55  TYR55      -0.0009
     55  CE1       17.8820   -7.9510  -11.2580 C.ar   55  TYR55       0.0417
     56  CE2       17.1760   -9.5880  -12.8690 C.ar   55  TYR55       0.0417
     57  CZ        17.5730   -9.2610  -11.5850 C.ar   55  TYR55       0.1957
     58  OH        17.6610  -10.2440  -10.6300 O.3    55  TYR55      -0.2866
     59  N         16.2580  -12.4630  -15.4170 N.3    59  GLY59      -0.1225
     60  CA        17.3440  -13.3300  -14.9550 C.3    59  GLY59       0.1811
     61  C         18.7390  -12.8190  -15.2790 C.2    59  GLY59       0.2280
     62  O         19.6350  -12.8910  -14.4370 O.2    59  GLY59      -0.2866
     63  N         21.5100  -10.0550  -15.8260 N.3    61  LYS61      -0.1245
     64  CA        21.8260   -8.7000  -15.3640 C.3    61  LYS61       0.1561
     65  C         23.3340   -8.4610  -15.4010 C.2    61  LYS61       0.2260
     66  O         24.1140   -9.3790  -15.1550 O.2    61  LYS61      -0.2867
     67  CB        21.2760   -8.4650  -13.9550 C.3    61  LYS61       0.0271
     68  CG        22.0590   -9.1420  -12.8420 C.3    61  LYS61       0.0035
     69  CD        21.3020   -9.0990  -11.5230 C.3    61  LYS61       0.0206
     70  CE        22.0970   -9.7550  -10.3980 C.3    61  LYS61       0.1093
     71  NZ        21.2790   -9.9490   -9.1670 N.3    61  LYS61      -0.1314
     72  N         31.0920   -5.2590  -10.5340 N.3    88  MET88      -0.1245
     73  CA        30.3760   -5.0740   -9.2780 C.3    88  MET88       0.1570
     74  C         31.1560   -5.7990   -8.1820 C.2    88  MET88       0.2261
     75  O         31.6830   -6.8890   -8.4100 O.2    88  MET88      -0.2867
     76  CB        28.9330   -5.6040   -9.3760 C.3    88  MET88       0.0387
     77  CG        27.9730   -4.7520  -10.2100 C.3    88  MET88       0.0595
     78  SD        27.6420   -3.0850   -9.5700 S.3    88  MET88      -0.1393
     79  CE        26.4550   -2.4690  -10.7620 C.3    88  MET88       0.0692
     80  N         30.9820   -9.5380   -7.3060 N.3    91  TYR91      -0.1241
     81  CA        31.4560  -10.4670   -8.3430 C.3    91  TYR91       0.1605
     82  C         32.9430  -10.3070   -8.6950 C.2    91  TYR91       0.2264
     83  O         33.4100  -10.8470   -9.6990 O.2    91  TYR91      -0.2867
     84  CB        30.5860  -10.3170   -9.5940 C.3    91  TYR91       0.0534
     85  CG        29.1880  -10.8490   -9.3880 C.ar   91  TYR91      -0.0201
     86  CD1       28.9110  -12.2020   -9.5640 C.ar   91  TYR91      -0.0009
     87  CD2       28.1500  -10.0120   -8.9900 C.ar   91  TYR91      -0.0009
     88  CE1       27.6400  -12.7040   -9.3670 C.ar   91  TYR91       0.0417
     89  CE2       26.8740  -10.5080   -8.7900 C.ar   91  TYR91       0.0417
     90  CZ        26.6300  -11.8550   -8.9800 C.ar   91  TYR91       0.1957
     91  OH        25.3720  -12.3640   -8.7760 O.3    91  TYR91      -0.2866
@<TRIPOS>BOND
     1    29    28    2
     2    50    49    2
     3    22    21    2
     4    28    27    1
     5    49    48    1
     6    26    27    1
     7    31    30    1
     8    21    20    1
     9    63    64    1
    10    27    30    1
    11    43    42    2
    12     1     2    1
    13    19    20    1
    14    59    60    1
    15    65    64    1
    16    65    66    2
    17    64    67    1
    18    48    47    1
    19    48    51    1
    20    61    60    1
    21    61    62    2
    22    30    32    1
    23    20    23    1
    24    42    47   am
    25    42    41    1
    26    36    35    2
    27    51    52    1
    28     2     5    1
    29     2     3    1
    30     5     6    1
    31    41    44    1
    32    41    40    1
    33    67    68    1
    34    24    23    1
    35    54    52   ar
    36    54    56   ar
    37    23    25    1
    38    35    40   am
    39    35    34    1
    40    52    53   ar
    41     3     4    2
    42    44    46    1
    43    44    45    1
    44    56    57   ar
    45    68    69    1
    46     6     8   am
    47     6     7    2
    48    34    33    1
    49    34    37    1
    50    53    55   ar
    51    33    39    1
    52    57    55   ar
    53    57    58    1
    54    69    70    1
    55    37    38    1
    56    79    78    1
    57    72    73    1
    58    39    38    1
    59    70    71    1
    60    77    78    1
    61    77    76    1
    62     9    10    1
    63    83    82    2
    64    84    85    1
    65    84    81    1
    66    86    85   ar
    67    86    88   ar
    68    15    17   ar
    69    15    14   ar
    70    85    87   ar
    71    76    73    1
    72    88    90   ar
    73    73    74    1
    74    87    89   ar
    75    90    89   ar
    76    90    91    1
    77    17    18   ar
    78    13    10    1
    79    13    14    1
    80    10    11    1
    81    82    81    1
    82    14    16   ar
    83    11    12    2
    84    75    74    2
    85    81    80    1
    86    18    16   ar
