@<TRIPOS>MOLECULE
tmp/4xpdB02.pdb
 236 232 0 0 0
SMALL
GASTEIGER

@<TRIPOS>ATOM
      1  N         30.5980    1.8910   -9.5270 N.3    22  ASN22      -0.1225
      2  CA        31.9520    1.3990   -9.2630 C.3    22  ASN22       0.1785
      3  C         33.1080    2.3910   -9.4330 C.2    22  ASN22       0.2597
      4  O         34.2260    2.0860   -9.0330 O.2    22  ASN22      -0.2718
      5  CB        32.2240    0.1670  -10.1290 C.3    22  ASN22       0.1169
      6  CG        31.4460   -1.0500   -9.6680 C.2    22  ASN22       0.2627
      7  OD1       31.9590   -1.8760   -8.9180 O.2    22  ASN22      -0.2716
      8  ND2       30.2040   -1.1630  -10.1080 N.am   22  ASN22      -0.0877
      9  N         32.8640    3.5600  -10.0180 N.am   23  LEU23      -0.1980
     10  CA        33.9540    4.5040  -10.2990 C.3    23  LEU23       0.1596
     11  C         33.5800    5.9540  -10.0310 C.2    23  LEU23       0.2287
     12  O         32.4170    6.3410  -10.1850 O.2    23  LEU23      -0.2864
     13  CB        34.3940    4.3790  -11.7550 C.3    23  LEU23       0.0297
     14  CG        35.2690    3.1820  -12.0960 C.3    23  LEU23       0.0022
     15  CD1       35.3850    3.0540  -13.6050 C.3    23  LEU23       0.0001
     16  CD2       36.6380    3.3020  -11.4460 C.3    23  LEU23       0.0001
     17  N         41.5210    2.1170  -23.2950 N.3    82  ILE82      -0.1231
     18  CA        40.5430    1.5370  -22.3920 C.3    82  ILE82       0.1692
     19  C         39.9280    2.6850  -21.6120 C.2    82  ILE82       0.2593
     20  O         40.5740    3.2810  -20.7470 O.2    82  ILE82      -0.2718
     21  CB        41.1850    0.5270  -21.4260 C.3    82  ILE82       0.0266
     22  CG1       41.8530   -0.6070  -22.2070 C.3    82  ILE82       0.0019
     23  CG2       40.1530   -0.0000  -20.4380 C.3    82  ILE82       0.0020
     24  CD1       40.9160   -1.3940  -23.0970 C.3    82  ILE82       0.0001
     25  N         38.6820    3.0040  -21.9330 N.am   83  THR83      -0.1939
     26  CA        38.0260    4.1520  -21.3360 C.3    83  THR83       0.2028
     27  C         37.6370    3.8540  -19.8860 C.2    83  THR83       0.2643
     28  O         37.9430    4.6380  -18.9980 O.2    83  THR83      -0.2714
     29  CB        36.8120    4.5980  -22.1750 C.3    83  THR83       0.1808
     30  OG1       37.2360    4.8610  -23.5210 O.3    83  THR83      -0.2208
     31  CG2       36.1940    5.8660  -21.5980 C.3    83  THR83       0.0379
     32  N         37.0010    2.7070  -19.6480 N.am   84  SER84      -0.1935
     33  CA        36.5430    2.3360  -18.3040 C.3    84  SER84       0.2055
     34  C         36.4790    0.8200  -18.0910 C.2    84  SER84       0.2643
     35  O         36.3890    0.0520  -19.0420 O.2    84  SER84      -0.2714
     36  CB        35.1760    2.9730  -18.0240 C.3    84  SER84       0.2130
     37  OG        34.7630    2.7650  -16.6830 O.3    84  SER84      -0.2179
     38  N         36.5420    0.4050  -16.8290 N.am   85  LEU85      -0.1963
     39  CA        36.4430   -1.0030  -16.4600 C.3    85  LEU85       0.1728
     40  C         35.9240   -1.1340  -15.0350 C.2    85  LEU85       0.2617
     41  O         36.5270   -0.6120  -14.0960 O.2    85  LEU85      -0.2715
     42  CB        37.8060   -1.6880  -16.5730 C.3    85  LEU85       0.0311
     43  CG        37.8690   -3.2130  -16.3740 C.3    85  LEU85       0.0022
     44  CD1       37.2770   -3.9540  -17.5590 C.3    85  LEU85       0.0001
     45  CD2       39.3020   -3.6820  -16.1640 C.3    85  LEU85       0.0001
     46  N         34.7980   -1.8210  -14.8810 N.am   86  SER86      -0.1936
     47  CA        34.2360   -2.1010  -13.5660 C.3    86  SER86       0.2055
     48  C         33.7550   -3.5370  -13.4890 C.2    86  SER86       0.2642
     49  O         33.4350   -4.1520  -14.5020 O.2    86  SER86      -0.2714
     50  CB        33.0520   -1.1820  -13.2610 C.3    86  SER86       0.2130
     51  OG        33.4100    0.1820  -13.3360 O.3    86  SER86      -0.2179
     52  N         33.7140   -4.0570  -12.2700 N.am   87  VAL87      -0.1977
     53  CA        33.0540   -5.3110  -11.9740 C.3    87  VAL87       0.1596
     54  C         32.4160   -5.1290  -10.6070 C.2    87  VAL87       0.2287
     55  O         33.1180   -4.8550   -9.6340 O.2    87  VAL87      -0.2864
     56  CB        34.0480   -6.4840  -11.9410 C.3    87  VAL87       0.0276
     57  CG1       33.3630   -7.7440  -11.4380 C.3    87  VAL87       0.0022
     58  CG2       34.6560   -6.7060  -13.3200 C.3    87  VAL87       0.0022
     59  N         33.6880   -9.5920   -7.8570 N.3    92  ARG92      -0.1231
     60  CA        35.1180   -9.3930   -8.0840 C.3    92  ARG92       0.1694
     61  C         35.9220  -10.6310   -7.6850 C.2    92  ARG92       0.2592
     62  O         35.3700  -11.5940   -7.1460 O.2    92  ARG92      -0.2718
     63  CB        35.6180   -8.1530   -7.3310 C.3    92  ARG92       0.0321
     64  CG        35.2890   -6.8420   -8.0330 C.3    92  ARG92       0.0489
     65  CD        35.5910   -5.6320   -7.1660 C.3    92  ARG92       0.2205
     66  NE        34.8560   -4.4410   -7.5950 N.pl3  92  ARG92      -0.0865
     67  CZ        34.7130   -3.3350   -6.8640 C.cat  92  ARG92       0.5346
     68  NH1       35.2640   -3.2500   -5.6610 N.pl3  92  ARG92       0.1354
     69  NH2       34.0170   -2.3010   -7.3300 N.pl3  92  ARG92       0.1354
     70  N         37.2210  -10.5980   -7.9830 N.am   93  ARG93      -0.1966
     71  CA        38.1680  -11.6500   -7.6020 C.3    93  ARG93       0.1729
     72  C         37.7450  -13.0290   -8.1040 C.2    93  ARG93       0.2616
     73  O         37.7550  -14.0110   -7.3590 O.2    93  ARG93      -0.2715
     74  CB        38.3750  -11.6720   -6.0830 C.3    93  ARG93       0.0348
     75  CG        38.9330  -10.3790   -5.5090 C.3    93  ARG93       0.0492
     76  CD        39.9290  -10.6500   -4.3920 C.3    93  ARG93       0.2205
     77  NE        41.1380  -11.3070   -4.8910 N.pl3  93  ARG93      -0.0865
     78  CZ        42.1670  -11.6890   -4.1340 C.cat  93  ARG93       0.5346
     79  NH1       42.1600  -11.4850   -2.8200 N.pl3  93  ARG93       0.1354
     80  NH2       43.2170  -12.2790   -4.6990 N.pl3  93  ARG93       0.1354
     81  N         37.3720  -13.0820   -9.3780 N.am   94  MET94      -0.1963
     82  CA        36.9460  -14.3170  -10.0330 C.3    94  MET94       0.1736
     83  C         37.5370  -14.4960  -11.4370 C.2    94  MET94       0.2617
     84  O         37.3920  -15.5640  -12.0350 O.2    94  MET94      -0.2715
     85  CB        35.4230  -14.3080  -10.1110 C.3    94  MET94       0.0427
     86  CG        34.7920  -15.5590  -10.6890 C.3    94  MET94       0.0599
     87  SD        33.0670  -15.6520  -10.1950 S.3    94  MET94      -0.1393
     88  CE        32.4150  -14.1570  -10.9300 C.3    94  MET94       0.0692
     89  N         38.1990  -13.4620  -11.9600 N.am   95  GLY95      -0.1940
     90  CA        38.7680  -13.4870  -13.3130 C.3    95  GLY95       0.2014
     91  C         37.8700  -12.8860  -14.3880 C.2    95  GLY95       0.2639
     92  O         38.0960  -13.1170  -15.5740 O.2    95  GLY95      -0.2714
     93  N         36.8590  -12.1150  -13.9770 N.am   96  ILE96      -0.1963
     94  CA        35.9570  -11.4460  -14.9130 C.3    96  ILE96       0.1727
     95  C         36.6750  -10.3560  -15.6900 C.2    96  ILE96       0.2616
     96  O         36.5290  -10.2570  -16.9110 O.2    96  ILE96      -0.2715
     97  CB        34.7590  -10.7920  -14.2010 C.3    96  ILE96       0.0290
     98  CG1       33.8450  -11.8630  -13.6060 C.3    96  ILE96       0.0022
     99  CG2       33.9680   -9.9190  -15.1730 C.3    96  ILE96       0.0023
    100  CD1       32.5860  -11.3120  -12.9650 C.3    96  ILE96       0.0001
    101  N         37.4290   -9.5210  -14.9810 N.am   97  ALA97      -0.1963
    102  CA        38.1380   -8.4130  -15.6180 C.3    97  ALA97       0.1728
    103  C         39.1610   -8.9190  -16.6260 C.2    97  ALA97       0.2616
    104  O         39.3080   -8.3400  -17.6990 O.2    97  ALA97      -0.2715
    105  CB        38.8030   -7.5280  -14.5770 C.3    97  ALA97       0.0334
    106  N         39.8510  -10.0050  -16.2850 N.am   98  GLU98      -0.1977
    107  CA        40.8230  -10.6120  -17.1920 C.3    98  GLU98       0.1602
    108  C         40.1650  -11.0270  -18.5100 C.2    98  GLU98       0.2287
    109  O         40.6910  -10.7510  -19.5860 O.2    98  GLU98      -0.2864
    110  CB        41.5010  -11.8240  -16.5370 C.3    98  GLU98       0.0415
    111  CG        42.6740  -12.3930  -17.3360 C.3    98  GLU98       0.1163
    112  CD        43.2720  -13.6510  -16.7220 C.2    98  GLU98       0.3649
    113  OE1       42.9460  -13.9580  -15.5580 O.co2  98  GLU98      -0.2457
    114  OE2       44.0740  -14.3310  -17.4090 O.co2  98  GLU98      -0.2457
    115  N         45.9290    3.3440  -21.1690 N.3   119  LEU119     -0.1231
    116  CA        44.8810    3.6430  -20.1860 C.3   119  LEU119      0.1693
    117  C         45.4130    4.4760  -19.0230 C.2   119  LEU119      0.2592
    118  O         46.6110    4.7230  -18.9260 O.2   119  LEU119     -0.2718
    119  CB        44.2170    2.3540  -19.6800 C.3   119  LEU119      0.0284
    120  CG        45.0500    1.3170  -18.9260 C.3   119  LEU119      0.0019
    121  CD1       44.9500    1.4980  -17.4210 C.3   119  LEU119      0.0001
    122  CD2       44.5950   -0.0850  -19.2870 C.3   119  LEU119      0.0001
    123  N         44.5110    4.9230  -18.1590 N.am  120  HIS120     -0.1962
    124  CA        44.8790    5.6370  -16.9420 C.3   120  HIS120      0.1787
    125  C         44.4070    4.8500  -15.7280 C.2   120  HIS120      0.2620
    126  O         43.3350    4.2620  -15.7490 O.2   120  HIS120     -0.2715
    127  CB        44.2540    7.0340  -16.9280 C.3   120  HIS120      0.0785
    128  CG        44.5580    7.8380  -18.1510 C.ar  120  HIS120      0.0821
    129  ND1       45.7650    8.4740  -18.3440 N.ar  120  HIS120     -0.2267
    130  CD2       43.8150    8.1000  -19.2500 C.ar  120  HIS120      0.1154
    131  CE1       45.7500    9.0950  -19.5100 C.ar  120  HIS120      0.1986
    132  NE2       44.5790    8.8840  -20.0790 N.ar  120  HIS120     -0.2212
    133  N         45.2000    4.8530  -14.6620 N.am  121  VAL121     -0.1963
    134  CA        44.8410    4.1090  -13.4630 C.3   121  VAL121      0.1727
    135  C         45.4370    4.7440  -12.2130 C.2   121  VAL121      0.2616
    136  O         46.6160    5.0760  -12.1790 O.2   121  VAL121     -0.2715
    137  CB        45.2420    2.6190  -13.5980 C.3   121  VAL121      0.0290
    138  CG1       46.6370    2.4880  -14.1790 C.3   121  VAL121      0.0023
    139  CG2       45.1380    1.8860  -12.2680 C.3   121  VAL121      0.0023
    140  N         44.5960    4.9180  -11.1960 N.am  122  ARG122     -0.1977
    141  CA        44.9990    5.4980   -9.9130 C.3   122  ARG122      0.1597
    142  C         46.1840    4.7660   -9.2860 C.2   122  ARG122      0.2287
    143  O         46.3170    3.5500   -9.4190 O.2   122  ARG122     -0.2864
    144  CB        43.8190    5.4680   -8.9320 C.3   122  ARG122      0.0334
    145  CG        42.7560    6.5120   -9.2120 C.3   122  ARG122      0.0492
    146  CD        41.5790    6.3980   -8.2620 C.3   122  ARG122      0.2205
    147  NE        40.4900    7.2810   -8.6840 N.pl3 122  ARG122     -0.0865
    148  CZ        40.3980    8.5780   -8.3990 C.cat 122  ARG122      0.5346
    149  NH1       41.3240    9.1750   -7.6650 N.pl3 122  ARG122      0.1354
    150  NH2       39.3660    9.2810   -8.8470 N.pl3 122  ARG122      0.1354
    151  N         45.1310    2.2840   -6.3470 N.3   125  ASN125     -0.1225
    152  CA        44.2510    1.1960   -6.7440 C.3   125  ASN125      0.1785
    153  C         45.0270   -0.1040   -6.9440 C.2   125  ASN125      0.2597
    154  O         45.4660   -0.3960   -8.0510 O.2   125  ASN125     -0.2718
    155  CB        43.5120    1.6000   -8.0230 C.3   125  ASN125      0.1169
    156  CG        42.3620    0.6840   -8.3470 C.2   125  ASN125      0.2627
    157  OD1       42.2840   -0.4340   -7.8490 O.2   125  ASN125     -0.2716
    158  ND2       41.4630    1.1500   -9.2020 N.am  125  ASN125     -0.0877
    159  N         45.1830   -0.8820   -5.8720 N.am  126  ARG126     -0.1966
    160  CA        46.0140   -2.1040   -5.8940 C.3   126  ARG126      0.1729
    161  C         45.4880   -3.1710   -6.8560 C.2   126  ARG126      0.2616
    162  O         46.2540   -3.7690   -7.6230 O.2   126  ARG126     -0.2715
    163  CB        46.1190   -2.7380   -4.5010 C.3   126  ARG126      0.0348
    164  CG        46.5960   -1.8070   -3.3990 C.3   126  ARG126      0.0492
    165  CD        47.4740   -2.5150   -2.3700 C.3   126  ARG126      0.2205
    166  NE        46.9820   -3.8500   -2.0210 N.pl3 126  ARG126     -0.0865
    167  CZ        47.6580   -4.9920   -2.1670 C.cat 126  ARG126      0.5346
    168  NH1       48.8980   -5.0150   -2.6450 N.pl3 126  ARG126      0.1354
    169  NH2       47.0850   -6.1360   -1.8140 N.pl3 126  ARG126      0.1354
    170  N         44.1810   -3.4120   -6.7790 N.am  127  ALA127     -0.1963
    171  CA        43.5040   -4.4080   -7.6020 C.3   127  ALA127      0.1728
    172  C         43.6770   -4.1220   -9.0840 C.2   127  ALA127      0.2616
    173  O         43.9450   -5.0290   -9.8790 O.2   127  ALA127     -0.2715
    174  CB        42.0250   -4.4420   -7.2570 C.3   127  ALA127      0.0334
    175  N         43.5150   -2.8580   -9.4520 N.am  128  ALA128     -0.1977
    176  CA        43.6470   -2.4540  -10.8410 C.3   128  ALA128      0.1597
    177  C         45.0880   -2.5700  -11.3210 C.2   128  ALA128      0.2287
    178  O         45.3240   -2.9470  -12.4640 O.2   128  ALA128     -0.2864
    179  CB        43.1430   -1.0390  -11.0290 C.3   128  ALA128      0.0319
    180  N         47.5360   -4.6590  -10.1380 N.3   130  HIS130     -0.1226
    181  CA        47.8460   -6.0750  -10.2730 C.3   130  HIS130      0.1752
    182  C         47.3640   -6.5830  -11.6310 C.2   130  HIS130      0.2596
    183  O         48.1200   -7.2030  -12.3730 O.2   130  HIS130     -0.2718
    184  CB        47.1820   -6.8710   -9.1460 C.3   130  HIS130      0.0759
    185  CG        47.6720   -8.2790   -9.0330 C.ar  130  HIS130      0.0818
    186  ND1       48.4140   -8.7240   -7.9600 N.ar  130  HIS130     -0.2268
    187  CD2       47.5350   -9.3410   -9.8620 C.ar  130  HIS130      0.1154
    188  CE1       48.7100  -10.0000   -8.1310 C.ar  130  HIS130      0.1986
    189  NE2       48.1900  -10.3980   -9.2780 N.ar  130  HIS130     -0.2212
    190  N         46.1070   -6.2930  -11.9540 N.am  131  LEU131     -0.1966
    191  CA        45.5110   -6.7100  -13.2210 C.3   131  LEU131      0.1728
    192  C         46.3190   -6.2690  -14.4340 C.2   131  LEU131      0.2616
    193  O         46.5780   -7.0690  -15.3300 O.2   131  LEU131     -0.2715
    194  CB        44.0860   -6.1650  -13.3430 C.3   131  LEU131      0.0311
    195  CG        43.3810   -6.3720  -14.6870 C.3   131  LEU131      0.0022
    196  CD1       43.0780   -7.8410  -14.9350 C.3   131  LEU131      0.0001
    197  CD2       42.1030   -5.5550  -14.7320 C.3   131  LEU131      0.0001
    198  N         46.7000   -4.9960  -14.4700 N.am  132  TYR132     -0.1974
    199  CA        47.3680   -4.4460  -15.6480 C.3   132  TYR132      0.1639
    200  C         48.8510   -4.7740  -15.6560 C.2   132  TYR132      0.2290
    201  O         49.3700   -5.2720  -16.6540 O.2   132  TYR132     -0.2864
    202  CB        47.1420   -2.9330  -15.7520 C.3   132  TYR132      0.0560
    203  CG        45.6890   -2.5720  -15.9460 C.ar  132  TYR132     -0.0198
    204  CD1       44.9480   -3.1290  -16.9840 C.ar  132  TYR132     -0.0009
    205  CD2       45.0500   -1.6820  -15.0920 C.ar  132  TYR132     -0.0009
    206  CE1       43.6150   -2.8160  -17.1590 C.ar  132  TYR132      0.0417
    207  CE2       43.7150   -1.3640  -15.2620 C.ar  132  TYR132      0.0417
    208  CZ        43.0050   -1.9340  -16.2970 C.ar  132  TYR132      0.1957
    209  OH        41.6800   -1.6250  -16.4820 O.3   132  TYR132     -0.2866
    210  N         50.6600   -6.9590  -13.4040 N.3   134  ASP134     -0.1225
    211  CA        50.9460   -8.3840  -13.2190 C.3   134  ASP134      0.1805
    212  C         50.2370   -9.2390  -14.2710 C.2   134  ASP134      0.2598
    213  O         50.8770   -9.7280  -15.1980 O.2   134  ASP134     -0.2718
    214  CB        50.5760   -8.8690  -11.8070 C.3   134  ASP134      0.1424
    215  CG        51.2190   -8.0390  -10.7030 C.2   134  ASP134      0.3668
    216  OD1       52.0300   -7.1390  -11.0130 O.co2 134  ASP134     -0.2456
    217  OD2       50.9100   -8.2980   -9.5160 O.co2 134  ASP134     -0.2456
    218  N         48.9220   -9.3990  -14.1380 N.am  135  THR135     -0.1953
    219  CA        48.1610  -10.3530  -14.9520 C.3   135  THR135      0.1897
    220  C         48.2970  -10.1240  -16.4600 C.2   135  THR135      0.2313
    221  O         48.4880  -11.0750  -17.2220 O.2   135  THR135     -0.2863
    222  CB        46.6580  -10.3230  -14.5930 C.3   135  THR135      0.1794
    223  OG1       46.4810  -10.6530  -13.2080 O.3   135  THR135     -0.2208
    224  CG2       45.8630  -11.3100  -15.4540 C.3   135  THR135      0.0378
    225  N         43.0290   12.8640  -11.7610 N.3   148  TYR148     -0.1241
    226  CA        41.6230   12.7440  -11.3840 C.3   148  TYR148      0.1605
    227  C         41.1170   13.9910  -10.6630 C.2   148  TYR148      0.2264
    228  O         41.9020   14.8060  -10.1820 O.2   148  TYR148     -0.2867
    229  CB        41.4150   11.4780  -10.5470 C.3   148  TYR148      0.0534
    230  CG        41.7210   10.2230  -11.3380 C.ar  148  TYR148     -0.0201
    231  CD1       40.7900    9.7020  -12.2300 C.ar  148  TYR148     -0.0009
    232  CD2       42.9570    9.5850  -11.2330 C.ar  148  TYR148     -0.0009
    233  CE1       41.0670    8.5740  -12.9780 C.ar  148  TYR148      0.0417
    234  CE2       43.2440    8.4520  -11.9770 C.ar  148  TYR148      0.0417
    235  CZ        42.2930    7.9510  -12.8480 C.ar  148  TYR148      0.1957
    236  OH        42.5590    6.8250  -13.5950 O.3   148  TYR148     -0.2866
@<TRIPOS>BOND
     1    30    29    1
     2    17    18    1
     3    24    22    1
     4    18    19    1
     5    18    21    1
     6    22    21    1
     7    29    31    1
     8    29    26    1
     9    25    19   am
    10    25    26    1
    11    19    20    2
    12    21    23    1
    13    26    27    1
    14   115   116    1
    15   116   119    1
    16   116   117    1
    17   132   131   ar
    18   132   130   ar
    19    27    32   am
    20    27    28    2
    21   119   120    1
    22    32    33    1
    23   109   108    2
    24   131   129   ar
    25   122   120    1
    26   130   128   ar
    27    35    34    2
    28   117   118    2
    29   117   123   am
    30   120   121    1
    31   108   107    1
    32   129   128   ar
    33    33    34    1
    34    33    36    1
    35   123   124    1
    36   128   127    1
    37    34    38   am
    38    36    37    1
    39   104   103    2
    40    44    43    1
    41   114   112   ar
    42   111   112    1
    43   111   110    1
    44   221   220    2
    45   107   110    1
    46   107   106    1
    47   206   204   ar
    48   206   208   ar
    49   204   203   ar
    50   124   127    1
    51   124   125    1
    52    96    95    2
    53    38    39    1
    54   112   113   ar
    55   201   200    2
    56   103   106   am
    57   103   102    1
    58    42    39    1
    59    42    43    1
    60   209   208    1
    61    39    40    1
    62   220   219    1
    63    43    45    1
    64   208   207   ar
    65   203   202    1
    66   203   205   ar
    67   202   199    1
    68   126   125    2
    69   125   133   am
    70    95   101   am
    71    95    94    1
    72   200   199    1
    73   199   198    1
    74   102   101    1
    75   102   105    1
    76    92    91    2
    77   224   222    1
    78   193   192    2
    79   207   205   ar
    80   213   212    2
    81    99    97    1
    82    40    46   am
    83    40    41    2
    84   219   222    1
    85   219   218    1
    86   196   195    1
    87    94    97    1
    88    94    93    1
    89    46    47    1
    90   197   195    1
    91   195   194    1
    92   133   134    1
    93   222   223    1
    94    49    48    2
    95   198   192   am
    96   192   191    1
    97    91    93   am
    98    91    90    1
    99   212   218   am
   100   212   211    1
   101    97    98    1
   102   138   137    1
   103    98   100    1
   104    15    14    1
   105   137   134    1
   106   137   139    1
   107   236   235    1
   108    47    48    1
   109    47    50    1
   110    48    52   am
   111   134   135    1
   112   210   211    1
   113   194   191    1
   114    51    50    1
   115    58    56    1
   116    90    89    1
   117   191   190    1
   118   211   214    1
   119   233   235   ar
   120   233   231   ar
   121   235   234   ar
   122   178   177    2
   123   183   182    2
   124    52    53    1
   125   231   230   ar
   126   135   136    2
   127   135   140   am
   128    14    13    1
   129    14    16    1
   130    84    83    2
   131   234   232   ar
   132    53    56    1
   133    53    54    1
   134    89    83   am
   135   190   182   am
   136    56    57    1
   137   214   215    1
   138   225   226    1
   139    13    10    1
   140   182   181    1
   141    83    82    1
   142   226   227    1
   143   226   229    1
   144   230   232   ar
   145   230   229    1
   146   177   176    1
   147   140   141    1
   148   179   176    1
   149   216   215   ar
   150    88    87    1
   151   176   175    1
   152   215   217   ar
   153    86    87    1
   154    86    85    1
   155   227   228    2
   156    54    55    2
   157    10    11    1
   158    10     9    1
   159   181   180    1
   160   181   184    1
   161    12    11    2
   162     5     6    1
   163     5     2    1
   164    85    82    1
   165     8     6   am
   166    82    81    1
   167     9     3   am
   168   141   142    1
   169   141   144    1
   170   173   172    2
   171   187   189   ar
   172   187   185   ar
   173     6     7    2
   174     1     2    1
   175   175   172   am
   176     3     2    1
   177     3     4    2
   178   143   142    2
   179    81    72   am
   180   189   188   ar
   181   145   144    1
   182   145   146    1
   183   158   156   am
   184   184   185    1
   185   172   171    1
   186   185   186   ar
   187   150   148    1
   188   147   148    2
   189   147   146    1
   190   148   149    1
   191   156   155    1
   192   156   157    2
   193   188   186   ar
   194    72    71    1
   195    72    73    2
   196    60    59    1
   197    60    61    1
   198    60    63    1
   199   154   153    2
   200    64    63    1
   201    64    65    1
   202   155   152    1
   203    70    61   am
   204    70    71    1
   205    61    62    2
   206   162   161    2
   207   171   174    1
   208   171   170    1
   209    71    74    1
   210    66    65    1
   211    66    67    2
   212    69    67    1
   213   153   152    1
   214   153   159   am
   215    67    68    1
   216   161   170   am
   217   161   160    1
   218   152   151    1
   219    74    75    1
   220   160   159    1
   221   160   163    1
   222    75    76    1
   223    77    76    1
   224    77    78    2
   225    80    78    1
   226   163   164    1
   227    78    79    1
   228   164   165    1
   229   168   167    1
   230   165   166    1
   231   167   166    2
   232   167   169    1
