@<TRIPOS>MOLECULE
tmp/4xpfA00.pdb
 112 107 0 0 0
SMALL
GASTEIGER

@<TRIPOS>ATOM
      1  N         -0.6500   -3.4000    8.9890 N.3   109  ARG109     -0.1245
      2  CA        -0.4940   -2.6960    7.7260 C.3   109  ARG109      0.1563
      3  C          0.9160   -2.1490    7.6330 C.2   109  ARG109      0.2260
      4  O          1.5420   -2.1780    6.5730 O.2   109  ARG109     -0.2867
      5  CB        -1.5120   -1.5690    7.5900 C.3   109  ARG109      0.0307
      6  CG        -1.3450   -0.7420    6.3310 C.3   109  ARG109      0.0489
      7  CD        -1.6050   -1.5700    5.0930 C.3   109  ARG109      0.2205
      8  NE        -1.3080   -0.8250    3.8760 N.pl3 109  ARG109     -0.0865
      9  CZ        -0.1130   -0.8050    3.2950 C.cat 109  ARG109      0.5346
     10  NH1        0.8900   -1.4870    3.8270 N.pl3 109  ARG109      0.1354
     11  NH2        0.0830   -0.1060    2.1860 N.pl3 109  ARG109      0.1354
     12  N          3.0890   -5.3510    7.2380 N.3   112  PHE112     -0.1227
     13  CA         3.0350   -5.7320    5.8260 C.3   112  PHE112      0.1736
     14  C          3.7920   -4.7400    4.9610 C.2   112  PHE112      0.2595
     15  O          4.2620   -5.0790    3.8660 O.2   112  PHE112     -0.2718
     16  CB         1.5890   -5.8280    5.3400 C.3   112  PHE112      0.0547
     17  CG         0.8330   -6.9920    5.9080 C.ar  112  PHE112     -0.0202
     18  CD1        1.5030   -8.0170    6.5550 C.ar  112  PHE112     -0.0042
     19  CD2       -0.5490   -7.0660    5.7870 C.ar  112  PHE112     -0.0042
     20  CE1        0.8170   -9.0930    7.0730 C.ar  112  PHE112     -0.0003
     21  CE2       -1.2460   -8.1410    6.3030 C.ar  112  PHE112     -0.0003
     22  CZ        -0.5610   -9.1570    6.9480 C.ar  112  PHE112     -0.0000
     23  N          3.9080   -3.5120    5.4510 N.am  113  ALA113     -0.1980
     24  CA         4.5600   -2.4540    4.6940 C.3   113  ALA113      0.1597
     25  C          6.0470   -2.4020    5.0180 C.2   113  ALA113      0.2287
     26  O          6.7900   -1.5950    4.4600 O.2   113  ALA113     -0.2864
     27  CB         3.9090   -1.1130    5.0080 C.3   113  ALA113      0.0319
     28  N          8.2310   -4.9030    4.6690 N.3   115  PHE115     -0.1227
     29  CA         9.0600   -5.8430    3.9400 C.3   115  PHE115      0.1736
     30  C          9.7320   -5.1150    2.7860 C.2   115  PHE115      0.2596
     31  O          9.1180   -4.8730    1.7510 O.2   115  PHE115     -0.2718
     32  CB         8.2220   -7.0080    3.3970 C.3   115  PHE115      0.0547
     33  CG         7.5690   -7.8470    4.4580 C.ar  115  PHE115     -0.0202
     34  CD1        6.3350   -7.4980    4.9740 C.ar  115  PHE115     -0.0042
     35  CD2        8.1810   -8.9990    4.9200 C.ar  115  PHE115     -0.0042
     36  CE1        5.7240   -8.2760    5.9370 C.ar  115  PHE115     -0.0003
     37  CE2        7.5800   -9.7800    5.8860 C.ar  115  PHE115     -0.0003
     38  CZ         6.3460   -9.4190    6.3970 C.ar  115  PHE115     -0.0000
     39  N         11.0160   -4.8270    2.9560 N.am  116  THR116     -0.1953
     40  CA        11.8200   -4.1870    1.9180 C.3   116  THR116      0.1897
     41  C         13.1980   -3.8000    2.4240 C.2   116  THR116      0.2313
     42  O         13.4360   -3.7360    3.6300 O.2   116  THR116     -0.2863
     43  CB        11.1770   -2.9130    1.3750 C.3   116  THR116      0.1794
     44  OG1       11.7680   -2.5810    0.1120 O.3   116  THR116     -0.2208
     45  CG2       11.4160   -1.7700    2.3440 C.3   116  THR116      0.0378
     46  N         14.5210   -0.7790    1.5490 N.3   118  SER118     -0.1217
     47  CA        14.4430    0.6560    1.7910 C.3   118  SER118      0.1889
     48  C         13.0660    1.0590    2.3000 C.2   118  SER118      0.2288
     49  O         12.0690    0.9510    1.5830 O.2   118  SER118     -0.2866
     50  CB        14.7690    1.4410    0.5200 C.3   118  SER118      0.2089
     51  OG        13.6350    1.5310   -0.3310 O.3   118  SER118     -0.2183
     52  N          9.8680    3.1540    3.2900 N.3   120  PRO120     -0.2116
     53  CA         9.1250    4.2190    2.6050 C.3   120  PRO120      0.1372
     54  C          9.0730    5.5530    3.3640 C.2   120  PRO120      0.2244
     55  O          9.1490    6.6110    2.7280 O.2   120  PRO120     -0.2868
     56  CB         7.7190    3.6230    2.4670 C.3   120  PRO120      0.0268
     57  CG         7.6340    2.6180    3.5560 C.3   120  PRO120      0.0207
     58  CD         8.9990    2.0280    3.6710 C.3   120  PRO120      0.0892
     59  N          3.7790   10.2060    6.2220 N.3   148  TYR148     -0.1241
     60  CA         3.5340    8.8640    5.7280 C.3   148  TYR148      0.1605
     61  C          2.2650    8.3310    6.3490 C.2   148  TYR148      0.2264
     62  O          1.3700    7.8330    5.6670 O.2   148  TYR148     -0.2867
     63  CB         4.6980    7.9460    6.0580 C.3   148  TYR148      0.0534
     64  CG         4.4720    6.5090    5.6580 C.ar  148  TYR148     -0.0201
     65  CD1        4.6790    6.0930    4.3470 C.ar  148  TYR148     -0.0009
     66  CD2        4.0620    5.5620    6.5910 C.ar  148  TYR148     -0.0009
     67  CE1        4.4840    4.7760    3.9720 C.ar  148  TYR148      0.0417
     68  CE2        3.8600    4.2370    6.2230 C.ar  148  TYR148      0.0417
     69  CZ         4.0720    3.8520    4.9120 C.ar  148  TYR148      0.1957
     70  OH         3.8730    2.5400    4.5390 O.3   148  TYR148     -0.2866
     71  N         -0.7610    8.9340    3.4430 N.3   152  TYR152     -0.1241
     72  CA        -0.7210    7.6490    2.7360 C.3   152  TYR152      0.1605
     73  C         -1.4810    6.5250    3.4330 C.2   152  TYR152      0.2264
     74  O         -2.4370    5.9860    2.8780 O.2   152  TYR152     -0.2867
     75  CB         0.7210    7.2090    2.5160 C.3   152  TYR152      0.0534
     76  CG         0.8610    5.8830    1.8010 C.ar  152  TYR152     -0.0201
     77  CD1        0.1460    5.6130    0.6440 C.ar  152  TYR152     -0.0009
     78  CD2        1.7280    4.9110    2.2740 C.ar  152  TYR152     -0.0009
     79  CE1        0.2850    4.4030   -0.0130 C.ar  152  TYR152      0.0417
     80  CE2        1.8740    3.7030    1.6240 C.ar  152  TYR152      0.0417
     81  CZ         1.1520    3.4540    0.4840 C.ar  152  TYR152      0.1957
     82  OH         1.3030    2.2480   -0.1560 O.3   152  TYR152     -0.2866
     83  N         -7.2280   -1.9690    1.9160 N.3   171  ASP171     -0.1239
     84  CA        -5.9660   -2.5310    2.3840 C.3   171  ASP171      0.1674
     85  C         -6.0320   -2.6330    3.8990 C.2   171  ASP171      0.2266
     86  O         -5.4440   -3.5260    4.5060 O.2   171  ASP171     -0.2867
     87  CB        -4.7570   -1.6970    1.9330 C.3   171  ASP171      0.1410
     88  CG        -4.9060   -0.2110    2.2310 C.2   171  ASP171      0.3668
     89  OD1       -5.6630    0.1570    3.1500 O.co2 171  ASP171     -0.2456
     90  OD2       -4.2440    0.5950    1.5420 O.co2 171  ASP171     -0.2456
     91  N         -9.0240   -5.8140    4.8380 N.3   174  LEU174     -0.1231
     92  CA        -8.5490   -7.1840    5.0170 C.3   174  LEU174      0.1693
     93  C         -7.5610   -7.2570    6.1720 C.2   174  LEU174      0.2592
     94  O         -7.3310   -8.3280    6.7280 O.2   174  LEU174     -0.2718
     95  CB        -7.9120   -7.7240    3.7340 C.3   174  LEU174      0.0284
     96  CG        -6.5570   -7.1680    3.3040 C.3   174  LEU174      0.0019
     97  CD1       -5.4270   -7.8890    4.0220 C.3   174  LEU174      0.0001
     98  CD2       -6.4030   -7.2990    1.8030 C.3   174  LEU174      0.0001
     99  N         -6.9750   -6.1210    6.5340 N.am  175  CYS175     -0.1970
    100  CA        -6.0870   -6.0860    7.6880 C.3   175  CYS175      0.1712
    101  C         -6.9070   -6.2340    8.9580 C.2   175  CYS175      0.2296
    102  O         -6.5400   -6.9920    9.8570 O.2   175  CYS175     -0.2864
    103  CB        -5.2630   -4.7990    7.7290 C.3   175  CYS175      0.0983
    104  SG        -3.6300   -4.9380    6.9540 S.3   175  CYS175     -0.0798
    105  N         -8.2820   -9.7670    9.1220 N.3   178  ILE178     -0.1245
    106  CA        -7.2250  -10.6520    9.6090 C.3   178  ILE178      0.1561
    107  C         -7.1570  -10.6490   11.1270 C.2   178  ILE178      0.2260
    108  O         -6.9240  -11.6780   11.7540 O.2   178  ILE178     -0.2867
    109  CB        -5.8470  -10.2460    9.0740 C.3   178  ILE178      0.0252
    110  CG1       -5.7020  -10.6320    7.6030 C.3   178  ILE178      0.0019
    111  CG2       -4.7600  -10.9100    9.8860 C.3   178  ILE178      0.0019
    112  CD1       -4.4510  -10.0440    6.9470 C.3   178  ILE178      0.0001
@<TRIPOS>BOND
     1    51    50    1
     2    82    81    1
     3    79    81   ar
     4    79    77   ar
     5    44    43    1
     6    81    80   ar
     7    50    47    1
     8    77    76   ar
     9    43    40    1
    10    43    45    1
    11    90    88   ar
    12    46    47    1
    13    49    48    2
    14    80    78   ar
    15    31    30    2
    16    47    48    1
    17    76    78   ar
    18    76    75    1
    19    98    96    1
    20    83    84    1
    21    40    41    1
    22    40    39    1
    23    87    88    1
    24    87    84    1
    25    11     9    1
    26    88    89   ar
    27    84    85    1
    28    41    42    2
    29    56    53    1
    30    56    57    1
    31    75    72    1
    32    53    52    1
    33    53    54    1
    34    55    54    2
    35    72    73    1
    36    72    71    1
    37    30    39   am
    38    30    29    1
    39    74    73    2
    40    52    58    1
    41     9    10    1
    42     9     8    2
    43    96    95    1
    44    96    97    1
    45    32    29    1
    46    32    33    1
    47    57    58    1
    48    95    92    1
    49    15    14    2
    50     8     7    1
    51    85    86    2
    52    29    28    1
    53    67    65   ar
    54    67    69   ar
    55    65    64   ar
    56    33    35   ar
    57    33    34   ar
    58    26    25    2
    59    70    69    1
    60    24    27    1
    61    24    25    1
    62    24    23    1
    63    91    92    1
    64    69    68   ar
    65    35    37   ar
    66    14    23   am
    67    14    13    1
    68    34    36   ar
    69    92    93    1
    70     7     6    1
    71    16    13    1
    72    16    17    1
    73    64    63    1
    74    64    66   ar
    75    62    61    2
    76    60    63    1
    77    60    59    1
    78    60    61    1
    79    19    17   ar
    80    19    21   ar
    81    13    12    1
    82    37    38   ar
    83    17    18   ar
    84    36    38   ar
    85    93    99   am
    86    93    94    2
    87    68    66   ar
    88    21    22   ar
    89     6     5    1
    90    99   100    1
    91    18    20   ar
    92     4     3    2
    93   112   110    1
    94    22    20   ar
    95   104   103    1
    96     5     2    1
    97   110   109    1
    98     3     2    1
    99   100   103    1
   100   100   101    1
   101     2     1    1
   102   101   102    2
   103   109   106    1
   104   109   111    1
   105   105   106    1
   106   106   107    1
   107   107   108    2
