@<TRIPOS>MOLECULE
tmp/4xpgA00.pdb
 154 145 0 0 0
SMALL
GASTEIGER

@<TRIPOS>ATOM
      1  N         44.4670    8.8540  -29.3920 N.3    19  PHE19      -0.1227
      2  CA        43.4210    7.8410  -29.3240 C.3    19  PHE19       0.1736
      3  C         43.8920    6.5080  -29.8960 C.2    19  PHE19       0.2595
      4  O         43.7350    5.4620  -29.2660 O.2    19  PHE19      -0.2718
      5  CB        42.1650    8.3000  -30.0670 C.3    19  PHE19       0.0547
      6  CG        41.2620    7.1690  -30.4640 C.ar   19  PHE19      -0.0202
      7  CD1       40.4350    6.5700  -29.5300 C.ar   19  PHE19      -0.0042
      8  CD2       41.2530    6.6930  -31.7660 C.ar   19  PHE19      -0.0042
      9  CE1       39.6120    5.5230  -29.8870 C.ar   19  PHE19      -0.0003
     10  CE2       40.4320    5.6440  -32.1290 C.ar   19  PHE19      -0.0003
     11  CZ        39.6150    5.0540  -31.1870 C.ar   19  PHE19      -0.0000
     12  N         44.4620    6.5550  -31.0960 N.am   20  ALA20      -0.1980
     13  CA        44.8740    5.3480  -31.8060 C.3    20  ALA20       0.1597
     14  C         45.9950    4.6120  -31.0790 C.2    20  ALA20       0.2287
     15  O         46.0330    3.3820  -31.0700 O.2    20  ALA20      -0.2864
     16  CB        45.3030    5.6940  -33.2230 C.3    20  ALA20       0.0319
     17  N         47.8400    3.0220  -28.0520 N.3    22  ASP22      -0.1239
     18  CA        47.2480    2.3590  -26.9010 C.3    22  ASP22       0.1674
     19  C         48.2830    1.3940  -26.3280 C.2    22  ASP22       0.2266
     20  O         49.3710    1.2260  -26.8800 O.2    22  ASP22      -0.2867
     21  CB        45.9570    1.6370  -27.3280 C.3    22  ASP22       0.1410
     22  CG        45.2710    0.8800  -26.1910 C.2    22  ASP22       0.3668
     23  OD1       45.8360    0.7510  -25.0860 O.co2  22  ASP22      -0.2456
     24  OD2       44.1360    0.4150  -26.4050 O.co2  22  ASP22      -0.2456
     25  N         47.7990   -1.5680  -26.3470 N.3    24  ALA24      -0.1231
     26  CA        47.7220   -2.6310  -27.3450 C.3    24  ALA24       0.1694
     27  C         48.9200   -2.5780  -28.2900 C.2    24  ALA24       0.2592
     28  O         49.3370   -3.5990  -28.8360 O.2    24  ALA24      -0.2718
     29  CB        46.4230   -2.5270  -28.1310 C.3    24  ALA24       0.0304
     30  N         49.4640   -1.3790  -28.4800 N.am   25  ASN25      -0.1974
     31  CA        50.6890   -1.1950  -29.2500 C.3    25  ASN25       0.1688
     32  C         51.8980   -1.7170  -28.4830 C.2    25  ASN25       0.2292
     33  O         52.9840   -1.8880  -29.0420 O.2    25  ASN25      -0.2864
     34  CB        50.8860    0.2820  -29.5950 C.3    25  ASN25       0.1181
     35  CG        49.7740    0.8310  -30.4650 C.2    25  ASN25       0.2629
     36  OD1       48.7520    0.1770  -30.6730 O.2    25  ASN25      -0.2716
     37  ND2       49.9670    2.0400  -30.9800 N.am   25  ASN25      -0.0877
     38  N         31.1420    2.6040  -27.5360 N.3    93  ALA93      -0.1245
     39  CA        32.1220    3.4330  -26.8460 C.3    93  ALA93       0.1562
     40  C         31.6620    3.7520  -25.4250 C.2    93  ALA93       0.2260
     41  O         32.4580    4.1680  -24.5830 O.2    93  ALA93      -0.2867
     42  CB        32.3730    4.7160  -27.6250 C.3    93  ALA93       0.0290
     43  N         32.5910    0.3880  -23.4050 N.3    96  VAL96      -0.1231
     44  CA        34.0360    0.2880  -23.2270 C.3    96  VAL96       0.1692
     45  C         34.5030    1.0800  -22.0070 C.2    96  VAL96       0.2592
     46  O         35.3720    0.6300  -21.2590 O.2    96  VAL96      -0.2718
     47  CB        34.7870    0.7780  -24.4860 C.3    96  VAL96       0.0266
     48  CG1       36.2830    0.8420  -24.2370 C.3    96  VAL96       0.0020
     49  CG2       34.4890   -0.1330  -25.6660 C.3    96  VAL96       0.0020
     50  N         33.8990    2.2450  -21.7940 N.am   97  GLY97      -0.1957
     51  CA        34.2520    3.1000  -20.6740 C.3    97  GLY97       0.1869
     52  C         33.9970    2.4780  -19.3120 C.2    97  GLY97       0.2309
     53  O         34.4860    2.9720  -18.2960 O.2    97  GLY97      -0.2863
     54  N         34.9500   -0.5680  -18.4850 N.3    99  TYR99      -0.1227
     55  CA        36.0320   -1.4830  -18.1350 C.3    99  TYR99       0.1736
     56  C         37.4080   -0.9870  -18.5740 C.2    99  TYR99       0.2595
     57  O         38.4250   -1.4180  -18.0340 O.2    99  TYR99      -0.2718
     58  CB        35.7700   -2.8720  -18.7330 C.3    99  TYR99       0.0548
     59  CG        36.1250   -3.0130  -20.1990 C.ar   99  TYR99      -0.0200
     60  CD1       35.1970   -2.7220  -21.1900 C.ar   99  TYR99      -0.0009
     61  CD2       37.3830   -3.4600  -20.5910 C.ar   99  TYR99      -0.0009
     62  CE1       35.5160   -2.8580  -22.5290 C.ar   99  TYR99       0.0417
     63  CE2       37.7110   -3.5930  -21.9260 C.ar   99  TYR99       0.0417
     64  CZ        36.7740   -3.2940  -22.8900 C.ar   99  TYR99       0.1957
     65  OH        37.0960   -3.4310  -24.2200 O.3    99  TYR99      -0.2866
     66  N         37.4470   -0.0930  -19.5560 N.am  100  TYR100     -0.1976
     67  CA        38.7250    0.3630  -20.0950 C.3   100  TYR100      0.1639
     68  C         39.4480    1.3010  -19.1340 C.2   100  TYR100      0.2290
     69  O         40.6770    1.2980  -19.0610 O.2   100  TYR100     -0.2864
     70  CB        38.5250    1.0590  -21.4430 C.3   100  TYR100      0.0560
     71  CG        39.8160    1.3320  -22.1820 C.ar  100  TYR100     -0.0198
     72  CD1       40.3720    0.3770  -23.0230 C.ar  100  TYR100     -0.0009
     73  CD2       40.4780    2.5440  -22.0400 C.ar  100  TYR100     -0.0009
     74  CE1       41.5520    0.6210  -23.7000 C.ar  100  TYR100      0.0417
     75  CE2       41.6580    2.7970  -22.7130 C.ar  100  TYR100      0.0417
     76  CZ        42.1890    1.8320  -23.5410 C.ar  100  TYR100      0.1957
     77  OH        43.3630    2.0830  -24.2120 O.3   100  TYR100     -0.2866
     78  N         42.2320   -3.5590  -35.2450 N.3   252  PHE252     -0.1227
     79  CA        41.9250   -3.1830  -33.8680 C.3   252  PHE252      0.1736
     80  C         42.9000   -2.1600  -33.2870 C.2   252  PHE252      0.2596
     81  O         42.6800   -1.6470  -32.1910 O.2   252  PHE252     -0.2718
     82  CB        41.8960   -4.4270  -32.9770 C.3   252  PHE252      0.0547
     83  CG        40.6100   -5.2010  -33.0550 C.ar  252  PHE252     -0.0202
     84  CD1       39.5580   -4.9050  -32.2040 C.ar  252  PHE252     -0.0042
     85  CD2       40.4520   -6.2240  -33.9750 C.ar  252  PHE252     -0.0042
     86  CE1       38.3730   -5.6130  -32.2690 C.ar  252  PHE252     -0.0003
     87  CE2       39.2690   -6.9370  -34.0450 C.ar  252  PHE252     -0.0003
     88  CZ        38.2280   -6.6310  -33.1910 C.ar  252  PHE252     -0.0000
     89  N         43.9730   -1.8610  -34.0130 N.am  253  SER253     -0.1952
     90  CA        44.9590   -0.8970  -33.5330 C.3   253  SER253      0.1924
     91  C         44.6890    0.5010  -34.0790 C.2   253  SER253      0.2314
     92  O         45.1630    1.4930  -33.5270 O.2   253  SER253     -0.2863
     93  CB        46.3750   -1.3380  -33.9070 C.3   253  SER253      0.2116
     94  OG        47.3410   -0.4330  -33.4030 O.3   253  SER253     -0.2180
     95  N         41.3680    1.3770  -34.9280 N.3   255  GLY255     -0.1225
     96  CA        40.0870    1.6450  -34.2990 C.3   255  GLY255      0.1811
     97  C         39.0520    2.4850  -35.0220 C.2   255  GLY255      0.2280
     98  O         38.6060    3.5030  -34.4930 O.2   255  GLY255     -0.2866
     99  N         34.2500    3.3880  -33.7720 N.3   258  PHE258     -0.1241
    100  CA        33.9320    3.9010  -32.4450 C.3   258  PHE258      0.1605
    101  C         33.2860    5.2750  -32.5440 C.2   258  PHE258      0.2264
    102  O         32.8230    5.8280  -31.5480 O.2   258  PHE258     -0.2867
    103  CB        35.1830    3.9800  -31.5730 C.3   258  PHE258      0.0534
    104  CG        35.5110    2.7040  -30.8620 C.ar  258  PHE258     -0.0203
    105  CD1       34.7640    2.2960  -29.7710 C.ar  258  PHE258     -0.0042
    106  CD2       36.5760    1.9230  -31.2710 C.ar  258  PHE258     -0.0042
    107  CE1       35.0670    1.1260  -29.1060 C.ar  258  PHE258     -0.0003
    108  CE2       36.8840    0.7540  -30.6100 C.ar  258  PHE258     -0.0003
    109  CZ        36.1290    0.3560  -29.5230 C.ar  258  PHE258     -0.0000
    110  N         43.2920    7.7950  -25.2520 N.3   354  SER354     -0.1202
    111  CA        42.4040    6.8290  -25.8870 C.3   354  SER354      0.2020
    112  C         41.0200    6.9000  -25.2550 C.2   354  SER354      0.2619
    113  O         40.0040    6.8190  -25.9460 O.2   354  SER354     -0.2717
    114  CB        42.9660    5.4110  -25.7740 C.3   354  SER354      0.2103
    115  OG        44.0460    5.2150  -26.6680 O.3   354  SER354     -0.2182
    116  N         40.9920    7.0550  -23.9360 N.am  355  SER355     -0.1951
    117  CA        39.7380    7.1760  -23.2040 C.3   355  SER355      0.1924
    118  C         39.0480    8.4940  -23.5320 C.2   355  SER355      0.2314
    119  O         37.8210    8.5640  -23.5740 O.2   355  SER355     -0.2863
    120  CB        39.9790    7.0660  -21.6980 C.3   355  SER355      0.2116
    121  OG        38.7530    7.0050  -20.9900 O.3   355  SER355     -0.2180
    122  N         37.2150    8.0630  -26.7480 N.3   358  GLY358     -0.1210
    123  CA        36.1210    7.1390  -26.5170 C.3   358  GLY358      0.1956
    124  C         34.9420    7.8310  -25.8640 C.2   358  GLY358      0.2611
    125  O         33.7870    7.5680  -26.2000 O.2   358  GLY358     -0.2717
    126  N         35.2380    8.7240  -24.9250 N.am  359  MET359     -0.1979
    127  CA        34.2020    9.4970  -24.2550 C.3   359  MET359      0.1605
    128  C         33.7270   10.6380  -25.1470 C.2   359  MET359      0.2287
    129  O         32.5340   10.9260  -25.2150 O.2   359  MET359     -0.2864
    130  CB        34.7120   10.0450  -22.9200 C.3   359  MET359      0.0413
    131  CG        35.1580    8.9730  -21.9390 C.3   359  MET359      0.0598
    132  SD        36.1380    9.6310  -20.5760 S.3   359  MET359     -0.1393
    133  CE        35.2660    8.9480  -19.1680 C.3   359  MET359      0.0692
    134  N         35.6600   -7.0130  -21.6100 N.3   408  ASP408     -0.1239
    135  CA        36.7530   -6.9210  -22.5710 C.3   408  ASP408      0.1674
    136  C         36.5680   -7.8710  -23.7500 C.2   408  ASP408      0.2266
    137  O         36.9700   -7.5660  -24.8730 O.2   408  ASP408     -0.2867
    138  CB        38.0880   -7.2060  -21.8800 C.3   408  ASP408      0.1410
    139  CG        39.2570   -7.2080  -22.8460 C.2   408  ASP408      0.3668
    140  OD1       39.7590   -6.1130  -23.1770 O.co2 408  ASP408     -0.2456
    141  OD2       39.6730   -8.3050  -23.2740 O.co2 408  ASP408     -0.2456
    142  N         33.2680   -4.9190  -26.9730 N.3   412  ALA412     -0.1245
    143  CA        33.8230   -4.2870  -28.1650 C.3   412  ALA412      0.1562
    144  C         34.3030   -5.2970  -29.2050 C.2   412  ALA412      0.2260
    145  O         34.4340   -4.9630  -30.3800 O.2   412  ALA412     -0.2867
    146  CB        34.9620   -3.3560  -27.7780 C.3   412  ALA412      0.0290
    147  N         31.9900   -4.3240  -32.7520 N.3   416  ILE416     -0.1245
    148  CA        32.6670   -3.4330  -33.6880 C.3   416  ILE416      0.1561
    149  C         32.6200   -3.9540  -35.1200 C.2   416  ILE416      0.2260
    150  O         32.2120   -3.2410  -36.0360 O.2   416  ILE416     -0.2867
    151  CB        34.1400   -3.2310  -33.2990 C.3   416  ILE416      0.0252
    152  CG1       34.2590   -2.3450  -32.0650 C.3   416  ILE416      0.0019
    153  CG2       34.9160   -2.5970  -34.4360 C.3   416  ILE416      0.0019
    154  CD1       35.6610   -2.3100  -31.5250 C.3   416  ILE416      0.0001
@<TRIPOS>BOND
     1   150   149    2
     2    78    79    1
     3   149   148    1
     4    97    98    2
     5    97    96    1
     6    95    96    1
     7   153   151    1
     8    91    90    1
     9    91    92    2
    10    87    85   ar
    11    87    88   ar
    12    89    90    1
    13    89    80   am
    14    85    83   ar
    15    93    90    1
    16    93    94    1
    17    79    80    1
    18    79    82    1
    19    99   100    1
    20   148   151    1
    21   148   147    1
    22   151   152    1
    23    80    81    2
    24    16    13    1
    25    88    86   ar
    26    83    82    1
    27    83    84   ar
    28   101   100    1
    29   101   102    2
    30   100   103    1
    31    86    84   ar
    32    10     8   ar
    33    10    11   ar
    34   152   154    1
    35    13    12    1
    36    13    14    1
    37     8     6   ar
    38   103   104    1
    39   106   104   ar
    40   106   108   ar
    41    11     9   ar
    42    12     3   am
    43    14    15    2
    44    37    35   am
    45   104   105   ar
    46    36    35    2
    47   108   109   ar
    48    35    34    1
    49     6     5    1
    50     6     7   ar
    51   145   144    2
    52     5     2    1
    53     3     2    1
    54     3     4    2
    55     9     7   ar
    56   105   107   ar
    57    34    31    1
    58   109   107   ar
    59     1     2    1
    60    31    32    1
    61    31    30    1
    62   144   143    1
    63    33    32    2
    64    28    27    2
    65    30    27   am
    66    27    26    1
    67   143   146    1
    68   143   142    1
    69    29    26    1
    70    17    18    1
    71    42    39    1
    72    38    39    1
    73    26    25    1
    74    21    18    1
    75    21    22    1
    76    18    19    1
    77    20    19    2
    78    39    40    1
    79   122   123    1
    80   115   114    1
    81   123   124    1
    82    24    22   ar
    83   125   124    2
    84    22    23   ar
    85   113   112    2
    86   111   114    1
    87   111   112    1
    88   111   110    1
    89   124   126   am
    90    49    47    1
    91    40    41    2
    92   112   116   am
    93   129   128    2
    94   128   127    1
    95   126   127    1
    96   137   136    2
    97    47    48    1
    98    47    44    1
    99   127   130    1
   100    65    64    1
   101    77    76    1
   102   116   117    1
   103   136   135    1
   104    74    76   ar
   105    74    72   ar
   106   119   118    2
   107    76    75   ar
   108   118   117    1
   109    43    44    1
   110   141   139   ar
   111    44    45    1
   112   117   120    1
   113   140   139   ar
   114    72    71   ar
   115   130   131    1
   116    64    62   ar
   117    64    63   ar
   118   139   138    1
   119    75    73   ar
   120   135   138    1
   121   135   134    1
   122    62    60   ar
   123    71    73   ar
   124    71    70    1
   125    45    50   am
   126    45    46    2
   127   131   132    1
   128    63    61   ar
   129    50    51    1
   130   120   121    1
   131    70    67    1
   132    60    59   ar
   133    51    52    1
   134    61    59   ar
   135   132   133    1
   136    59    58    1
   137    67    66    1
   138    67    68    1
   139    66    56   am
   140    52    53    2
   141    68    69    2
   142    58    55    1
   143    56    55    1
   144    56    57    2
   145    54    55    1
