@<TRIPOS>MOLECULE
tmp/4xpiA00.pdb
 127 119 0 0 0
SMALL
GASTEIGER

@<TRIPOS>ATOM
      1  N        -29.4850    3.8420   55.7290 N.3    57  ILE57      -0.1245
      2  CA       -28.2070    3.8140   55.0820 C.3    57  ILE57       0.1561
      3  C        -27.1970    3.0550   55.9720 C.2    57  ILE57       0.2260
      4  O        -26.0430    2.7300   55.5220 O.2    57  ILE57      -0.2867
      5  CB       -27.7710    5.2710   54.9400 C.3    57  ILE57       0.0252
      6  CG1      -28.6720    5.9880   53.9090 C.3    57  ILE57       0.0019
      7  CG2      -26.2780    5.4580   54.7160 C.3    57  ILE57       0.0019
      8  CD1      -28.3790    7.4850   53.8280 C.3    57  ILE57       0.0001
      9  N        -24.8360    0.4580   58.1810 N.3    59  GLY59      -0.1225
     10  CA       -24.2740   -0.8770   58.0480 C.3    59  GLY59       0.1811
     11  C        -24.4510   -1.7350   59.3080 C.2    59  GLY59       0.2280
     12  O        -25.3560   -1.5470   60.0850 O.2    59  GLY59      -0.2866
     13  N        -19.1740   -4.7300   59.7330 N.3    63  ALA63      -0.1245
     14  CA       -18.5590   -3.6400   59.0270 C.3    63  ALA63       0.1562
     15  C        -17.7850   -2.7750   59.9890 C.2    63  ALA63       0.2260
     16  O        -16.6870   -2.3600   59.6560 O.2    63  ALA63      -0.2867
     17  CB       -19.5650   -2.8360   58.1980 C.3    63  ALA63       0.0290
     18  N        -14.4450   -4.1640   58.7440 N.3    67  GLY67      -0.1210
     19  CA       -14.2950   -3.1270   57.7250 C.3    67  GLY67       0.1956
     20  C        -13.5900   -1.8730   58.2040 C.2    67  GLY67       0.2611
     21  O        -12.8700   -1.2400   57.4420 O.2    67  GLY67      -0.2717
     22  N        -13.7010   -1.5590   59.4730 N.am   68  VAL68      -0.1979
     23  CA       -13.2820   -0.2730   59.9260 C.3    68  VAL68       0.1595
     24  C        -12.1080   -0.3110   60.8170 C.2    68  VAL68       0.2287
     25  O        -11.1150    0.2790   60.5000 O.2    68  VAL68      -0.2864
     26  CB       -14.4880    0.4020   60.6200 C.3    68  VAL68       0.0276
     27  CG1      -14.0570    1.6590   61.4240 C.3    68  VAL68       0.0022
     28  CG2      -15.5640    0.5940   59.5610 C.3    68  VAL68       0.0022
     29  N        -13.1440   -2.1870   49.5660 N.3    93  GLY93      -0.1210
     30  CA       -14.1520   -1.1110   49.5030 C.3    93  GLY93       0.1956
     31  C        -13.7150    0.1880   50.1680 C.2    93  GLY93       0.2611
     32  O        -14.1930    1.2530   49.8320 O.2    93  GLY93      -0.2717
     33  N        -12.7400    0.1050   51.0570 N.am   94  ARG94      -0.1979
     34  CA       -12.3720    1.2120   51.9330 C.3    94  ARG94       0.1597
     35  C        -10.9300    1.4670   51.7300 C.2    94  ARG94       0.2287
     36  O        -10.1100    0.5510   51.7600 O.2    94  ARG94      -0.2864
     37  CB       -12.5950    0.8340   53.4130 C.3    94  ARG94       0.0334
     38  CG       -12.6200    2.0110   54.3600 C.3    94  ARG94       0.0492
     39  CD       -12.8620    1.5680   55.7220 C.3    94  ARG94       0.2205
     40  NE       -12.7800    2.5810   56.7680 N.pl3  94  ARG94      -0.0865
     41  CZ       -11.9970    2.5040   57.8360 C.cat  94  ARG94       0.5346
     42  NH1      -11.1350    1.5320   57.9390 N.pl3  94  ARG94       0.1354
     43  NH2      -12.0870    3.4010   58.8390 N.pl3  94  ARG94       0.1354
     44  N        -22.9010   -0.0520   62.6110 N.3   189  GLN189     -0.1245
     45  CA       -21.4200   -0.2260   62.6930 C.3   189  GLN189      0.1566
     46  C        -20.9280    0.1260   64.0960 C.2   189  GLN189      0.2260
     47  O        -19.8850   -0.2760   64.5350 O.2   189  GLN189     -0.2867
     48  CB       -20.7160    0.7420   61.6800 C.3   189  GLN189      0.0367
     49  CG       -20.9470    0.5540   60.1480 C.3   189  GLN189      0.0905
     50  CD       -22.1260    1.3650   59.5850 C.2   189  GLN189      0.2608
     51  OE1      -23.2440    1.3460   60.1580 O.2   189  GLN189     -0.2717
     52  NE2      -21.9330    2.0060   58.4100 N.am  189  GLN189     -0.0878
     53  N        -25.2470    8.5080   60.5140 N.3   378  GLU378     -0.1231
     54  CA       -25.8970    7.2010   60.5370 C.3   378  GLU378      0.1699
     55  C        -25.9610    6.5780   61.9230 C.2   378  GLU378      0.2592
     56  O        -26.9420    5.9820   62.2200 O.2   378  GLU378     -0.2718
     57  CB       -25.1760    6.1980   59.6680 C.3   378  GLU378      0.0402
     58  CG       -24.9780    6.6630   58.2480 C.3   378  GLU378      0.1161
     59  CD       -24.1370    5.6850   57.4740 C.2   378  GLU378      0.3649
     60  OE1      -24.0900    4.4900   57.9050 O.co2 378  GLU378     -0.2457
     61  OE2      -23.6130    6.0990   56.4230 O.co2 378  GLU378     -0.2457
     62  N        -24.8900    6.6610   62.7270 N.am  379  PHE379     -0.1976
     63  CA       -24.7480    5.8400   63.9490 C.3   379  PHE379      0.1639
     64  C        -24.1420    6.5350   65.1970 C.2   379  PHE379      0.2290
     65  O        -23.5420    5.8700   66.0700 O.2   379  PHE379     -0.2864
     66  CB       -23.9370    4.5690   63.6200 C.3   379  PHE379      0.0560
     67  CG       -22.5930    4.8220   63.0430 C.ar  379  PHE379     -0.0200
     68  CD1      -21.5480    5.2170   63.8750 C.ar  379  PHE379     -0.0042
     69  CD2      -22.3290    4.6150   61.6580 C.ar  379  PHE379     -0.0042
     70  CE1      -20.2930    5.4400   63.3960 C.ar  379  PHE379     -0.0003
     71  CE2      -21.0420    4.8610   61.1590 C.ar  379  PHE379     -0.0003
     72  CZ       -20.0290    5.2420   62.0350 C.ar  379  PHE379     -0.0000
     73  N        -22.4870    9.2300   51.1480 N.3   422  GLY422     -0.1210
     74  CA       -21.9220    7.9810   50.6960 C.3   422  GLY422      0.1956
     75  C        -22.3820    7.4370   49.3410 C.2   422  GLY422      0.2612
     76  O        -23.1290    8.0990   48.5900 O.2   422  GLY422     -0.2717
     77  N        -21.8440    6.2610   49.0010 N.am  423  ILE423     -0.1965
     78  CA       -22.0110    5.7000   47.6900 C.3   423  ILE423      0.1727
     79  C        -23.4470    5.3620   47.4200 C.2   423  ILE423      0.2616
     80  O        -23.8480    5.4070   46.3070 O.2   423  ILE423     -0.2715
     81  CB       -21.1400    4.4710   47.4570 C.3   423  ILE423      0.0290
     82  CG1      -21.0860    4.1060   45.9580 C.3   423  ILE423      0.0022
     83  CG2      -21.6060    3.2510   48.2780 C.3   423  ILE423      0.0023
     84  CD1      -20.3700    5.1040   45.0930 C.3   423  ILE423      0.0001
     85  N        -24.2750    5.1570   48.4230 N.am  424  LYS424     -0.1963
     86  CA       -25.6510    4.6320   48.1110 C.3   424  LYS424      0.1728
     87  C        -26.5980    5.8300   47.9230 C.2   424  LYS424      0.2616
     88  O        -27.7460    5.6600   47.4370 O.2   424  LYS424     -0.2715
     89  CB       -26.1350    3.6730   49.1970 C.3   424  LYS424      0.0311
     90  CG       -25.0590    2.6430   49.5880 C.3   424  LYS424      0.0038
     91  CD       -25.5870    1.7560   50.7110 C.3   424  LYS424      0.0206
     92  CE       -25.8840    2.5250   51.9840 C.3   424  LYS424      0.1093
     93  NZ       -25.5480    1.8180   53.2110 N.3   424  LYS424     -0.1314
     94  N        -26.0820    7.0220   48.2680 N.am  425  GLU425     -0.1977
     95  CA       -26.7310    8.3510   48.0180 C.3   425  GLU425      0.1602
     96  C        -26.2630    9.0660   46.7250 C.2   425  GLU425      0.2287
     97  O        -27.0390    9.7480   46.0460 O.2   425  GLU425     -0.2864
     98  CB       -26.5020    9.3070   49.1920 C.3   425  GLU425      0.0415
     99  CG       -27.0450    8.8370   50.5290 C.3   425  GLU425      0.1163
    100  CD       -26.3520    7.6410   51.1200 C.2   425  GLU425      0.3649
    101  OE1      -25.1090    7.7310   51.4410 O.co2 425  GLU425     -0.2457
    102  OE2      -27.0550    6.5990   51.2820 O.co2 425  GLU425     -0.2457
    103  N        -18.4970   12.3770   47.6000 N.3   438  GLU438     -0.1245
    104  CA       -18.5060   11.2080   48.4870 C.3   438  GLU438      0.1567
    105  C        -17.5810   11.6090   49.6110 C.2   438  GLU438      0.2260
    106  O        -16.3410   11.8360   49.4160 O.2   438  GLU438     -0.2867
    107  CB       -17.8920   10.0340   47.7620 C.3   438  GLU438      0.0388
    108  CG       -18.8830    9.0940   47.1870 C.3   438  GLU438      0.1160
    109  CD       -18.2380    7.8550   46.6300 C.2   438  GLU438      0.3649
    110  OE1      -17.8290    6.8890   47.2760 O.co2 438  GLU438     -0.2457
    111  OE2      -18.0830    7.8800   45.5190 O.co2 438  GLU438     -0.2457
    112  N        -17.0620    9.6940   52.4580 N.3   440  HIS440     -0.1226
    113  CA       -16.3420    8.5750   53.0400 C.3   440  HIS440      0.1752
    114  C        -15.0340    8.2350   52.2850 C.2   440  HIS440      0.2593
    115  O        -13.9200    8.2820   52.8400 O.2   440  HIS440     -0.2718
    116  CB       -17.2350    7.3170   53.0940 C.3   440  HIS440      0.0759
    117  CG       -18.6010    7.4240   53.7970 C.ar  440  HIS440      0.0818
    118  ND1      -18.8980    6.6830   54.9640 N.ar  440  HIS440     -0.2268
    119  CD2      -19.8300    7.9140   53.3530 C.ar  440  HIS440      0.1154
    120  CE1      -20.2240    6.8120   55.2620 C.ar  440  HIS440      0.1986
    121  NE2      -20.8100    7.5380   54.2750 N.ar  440  HIS440     -0.2212
    122  N        -15.2080    7.8590   51.0120 N.am  441  SER441     -0.2005
    123  CA       -14.1590    7.4220   50.0730 C.3   441  SER441      0.1610
    124  C        -13.4110    8.5850   49.4450 C.3   441  SER441      0.2063
    125  O        -12.3570    8.3790   48.7370 O.3   441  SER441     -0.2184
    126  CB       -14.8060    6.6300   48.9430 C.3   441  SER441      0.2063
    127  OG       -15.4680    7.4430   47.9650 O.3   441  SER441     -0.2184
@<TRIPOS>BOND
     1    84    82    1
     2   111   109   ar
     3    82    81    1
     4    97    96    2
     5    80    79    2
     6   109   108    1
     7   109   110   ar
     8    96    95    1
     9   108   107    1
    10    79    78    1
    11    79    85   am
    12    88    87    2
    13    81    78    1
    14    81    83    1
    15   103   104    1
    16    78    77    1
    17   107   104    1
    18    87    86    1
    19    87    94   am
    20   127   126    1
    21    95    94    1
    22    95    98    1
    23    86    85    1
    24    86    89    1
    25   104   105    1
    26    76    75    2
    27   125   124    1
    28   126   123    1
    29    77    75   am
    30    98    99    1
    31    89    90    1
    32    75    74    1
    33   106   105    2
    34   124   123    1
    35    30    29    1
    36    30    31    1
    37    90    91    1
    38    32    31    2
    39   123   122    1
    40    31    33   am
    41    99   100    1
    42    74    73    1
    43    91    92    1
    44   122   114   am
    45    33    34    1
    46   100   102   ar
    47   100   101   ar
    48    35    36    2
    49    35    34    1
    50    34    37    1
    51    92    93    1
    52   114   115    2
    53   114   113    1
    54   112   113    1
    55   113   116    1
    56   116   117    1
    57   119   117   ar
    58   119   121   ar
    59    37    38    1
    60   117   118   ar
    61     8     6    1
    62     6     5    1
    63   121   120   ar
    64    38    39    1
    65     7     5    1
    66     5     2    1
    67   118   120   ar
    68     2     1    1
    69     2     3    1
    70     4     3    2
    71    39    40    1
    72    61    59   ar
    73    40    41    2
    74    21    20    2
    75    59    60   ar
    76    59    58    1
    77    19    20    1
    78    19    18    1
    79    41    42    1
    80    41    43    1
    81    10     9    1
    82    10    11    1
    83    17    14    1
    84    20    22   am
    85    58    57    1
    86    52    50   am
    87    14    13    1
    88    14    15    1
    89    11    12    2
    90    22    23    1
    91    28    26    1
    92    50    49    1
    93    50    51    2
    94    16    15    2
    95    57    54    1
    96    23    26    1
    97    23    24    1
    98    49    48    1
    99    25    24    2
   100    53    54    1
   101    54    55    1
   102    26    27    1
   103    71    69   ar
   104    71    72   ar
   105    69    67   ar
   106    48    45    1
   107    55    56    2
   108    55    62   am
   109    72    70   ar
   110    44    45    1
   111    45    46    1
   112    62    63    1
   113    67    66    1
   114    67    68   ar
   115    70    68   ar
   116    66    63    1
   117    63    64    1
   118    46    47    2
   119    64    65    2
