@<TRIPOS>MOLECULE
tmp/4xplA00.pdb
 186 183 0 0 0
SMALL
GASTEIGER

@<TRIPOS>ATOM
      1  N         17.4400   17.0690   21.8530 N.3    61  ASP61      -0.1239
      2  CA        18.5530   16.3840   22.4110 C.3    61  ASP61       0.1674
      3  C         19.1010   15.3380   21.4800 C.2    61  ASP61       0.2266
      4  O         18.3790   14.7590   20.6100 O.2    61  ASP61      -0.2867
      5  CB        18.2510   15.7760   23.7980 C.3    61  ASP61       0.1410
      6  CG        17.3350   14.5960   23.7420 C.2    61  ASP61       0.3668
      7  OD1       17.8350   13.4630   23.5910 O.co2  61  ASP61      -0.2456
      8  OD2       16.1170   14.8170   23.8590 O.co2  61  ASP61      -0.2456
      9  N         18.1380   10.8120   19.0360 N.3    72  PHE72      -0.1227
     10  CA        17.6220   12.1210   19.3340 C.3    72  PHE72       0.1736
     11  C         16.2650   12.0540   19.9880 C.2    72  PHE72       0.2596
     12  O         15.5420   11.0440   19.9100 O.2    72  PHE72      -0.2718
     13  CB        17.5270   12.9910   18.0650 C.3    72  PHE72       0.0547
     14  CG        16.4060   12.6120   17.1560 C.ar   72  PHE72      -0.0202
     15  CD1       16.5980   11.6860   16.1570 C.ar   72  PHE72      -0.0042
     16  CD2       15.1510   13.1650   17.3210 C.ar   72  PHE72      -0.0042
     17  CE1       15.5840   11.3190   15.3300 C.ar   72  PHE72      -0.0003
     18  CE2       14.1100   12.7960   16.4960 C.ar   72  PHE72      -0.0003
     19  CZ        14.3200   11.8820   15.4970 C.ar   72  PHE72      -0.0000
     20  N         15.9220   13.1820   20.5910 N.am   73  GLY73      -0.1942
     21  CA        14.6350   13.4020   21.2150 C.3    73  GLY73       0.2014
     22  C         14.2450   14.8650   21.0660 C.2    73  GLY73       0.2639
     23  O         15.0780   15.7260   20.7330 O.2    73  GLY73      -0.2714
     24  N         12.9580   15.1350   21.2600 N.am   74  LEU74      -0.1963
     25  CA        12.4300   16.5120   21.1540 C.3    74  LEU74       0.1728
     26  C         11.2140   16.6420   22.0490 C.2    74  LEU74       0.2616
     27  O         10.5520   15.6330   22.3800 O.2    74  LEU74      -0.2715
     28  CB        12.0790   16.8490   19.7110 C.3    74  LEU74       0.0311
     29  CG        10.8390   16.2590   19.0500 C.3    74  LEU74       0.0022
     30  CD1       10.3990   16.9920   17.7790 C.3    74  LEU74       0.0001
     31  CD2       11.0800   14.7970   18.7700 C.3    74  LEU74       0.0001
     32  N         10.9670   17.8620   22.4860 N.am   75  TYR75      -0.1960
     33  CA         9.8720   18.1490   23.3700 C.3    75  TYR75       0.1771
     34  C          9.3960   19.5770   23.1080 C.2    75  TYR75       0.2619
     35  O         10.1680   20.5290   23.2920 O.2    75  TYR75      -0.2715
     36  CB        10.3250   17.9310   24.8270 C.3    75  TYR75       0.0574
     37  CG         9.1940   17.7610   25.7990 C.ar   75  TYR75      -0.0198
     38  CD1        8.5160   18.8560   26.2930 C.ar   75  TYR75      -0.0009
     39  CD2        8.8040   16.4970   26.2430 C.ar   75  TYR75      -0.0009
     40  CE1        7.4670   18.7200   27.1860 C.ar   75  TYR75       0.0417
     41  CE2        7.7450   16.3530   27.1500 C.ar   75  TYR75       0.0417
     42  CZ         7.0830   17.4830   27.6080 C.ar   75  TYR75       0.1957
     43  OH         6.0410   17.3860   28.5040 O.3    75  TYR75      -0.2866
     44  N          8.1450   19.7400   22.6730 N.am   76  ALA76      -0.1977
     45  CA         7.6070   21.0910   22.4510 C.3    76  ALA76       0.1597
     46  C          7.2720   21.7350   23.8010 C.2    76  ALA76       0.2287
     47  O          6.8630   21.0540   24.7460 O.2    76  ALA76      -0.2864
     48  CB         6.3590   21.0710   21.5370 C.3    76  ALA76       0.0319
     49  N          2.4300   25.3380   23.2700 N.3    80  LEU80      -0.1231
     50  CA         2.5860   25.6250   21.8330 C.3    80  LEU80       0.1693
     51  C          2.2610   24.4270   20.9600 C.2    80  LEU80       0.2592
     52  O          2.4790   23.2850   21.3390 O.2    80  LEU80      -0.2718
     53  CB         4.0160   26.0590   21.5410 C.3    80  LEU80       0.0284
     54  CG         4.5420   27.2260   22.3650 C.3    80  LEU80       0.0019
     55  CD1        6.0100   27.5480   21.8810 C.3    80  LEU80       0.0001
     56  CD2        3.6840   28.4640   22.2940 C.3    80  LEU80       0.0001
     57  N          1.7750   24.6940   19.7670 N.am   81  LYS81      -0.1966
     58  CA         1.3620   23.6540   18.8320 C.3    81  LYS81       0.1728
     59  C          2.0120   24.0000   17.5060 C.2    81  LYS81       0.2617
     60  O          2.1550   25.1760   17.1560 O.2    81  LYS81      -0.2715
     61  CB        -0.1600   23.7020   18.6810 C.3    81  LYS81       0.0311
     62  CG        -0.7920   22.5220   17.9620 C.3    81  LYS81       0.0038
     63  CD        -2.2950   22.5540   18.1140 C.3    81  LYS81       0.0206
     64  CE        -2.9750   21.6720   17.0930 C.3    81  LYS81       0.1093
     65  NZ        -2.5690   20.2340   17.2390 N.3    81  LYS81      -0.1314
     66  N          2.3550   22.9870   16.7440 N.am   82  GLY82      -0.1940
     67  CA         2.8650   23.1750   15.4040 C.3    82  GLY82       0.2014
     68  C          4.3490   23.5290   15.3980 C.2    82  GLY82       0.2639
     69  O          4.8300   24.0780   14.4120 O.2    82  GLY82      -0.2714
     70  N          5.0730   23.2700   16.4770 N.am   83  VAL83      -0.1963
     71  CA         6.5030   23.5960   16.5280 C.3    83  VAL83       0.1727
     72  C          7.3830   22.3590   16.3160 C.2    83  VAL83       0.2617
     73  O          8.5840   22.4820   16.1990 O.2    83  VAL83      -0.2715
     74  CB         6.9240   24.3040   17.8400 C.3    83  VAL83       0.0290
     75  CG1        6.1950   25.6780   17.9960 C.3    83  VAL83       0.0023
     76  CG2        6.6870   23.4210   19.0420 C.3    83  VAL83       0.0023
     77  N          6.7750   21.1790   16.2800 N.am   84  GLY84      -0.1940
     78  CA         7.5270   19.9420   16.0250 C.3    84  GLY84       0.2014
     79  C          8.3860   19.9490   14.7780 C.2    84  GLY84       0.2638
     80  O          9.5390   19.5210   14.8250 O.2    84  GLY84      -0.2714
     81  N          7.8550   20.4720   13.6810 N.am   85  GLN85      -0.1977
     82  CA         8.6110   20.5540   12.4280 C.3    85  GLN85       0.1601
     83  C          9.8390   21.4490   12.5460 C.2    85  GLN85       0.2287
     84  O         10.8980   21.1180   12.0310 O.2    85  GLN85      -0.2864
     85  CB         7.7370   20.9850   11.2540 C.3    85  GLN85       0.0394
     86  CG         8.4690   20.9270    9.8950 C.3    85  GLN85       0.0908
     87  CD         9.0130   19.5520    9.5690 C.2    85  GLN85       0.2608
     88  OE1        8.2820   18.5600    9.6650 O.2    85  GLN85      -0.2717
     89  NE2       10.2910   19.4730    9.1620 N.am   85  GLN85      -0.0878
     90  N         11.5060   22.0400   15.3700 N.3    87  LEU87      -0.1245
     91  CA        12.4400   21.2550   16.1600 C.3    87  LEU87       0.1561
     92  C         13.1140   20.1610   15.3430 C.2    87  LEU87       0.2260
     93  O         14.3240   19.9390   15.4840 O.2    87  LEU87      -0.2867
     94  CB        11.7730   20.6570   17.3930 C.3    87  LEU87       0.0270
     95  CG        11.0250   21.5900   18.3460 C.3    87  LEU87       0.0019
     96  CD1       10.3890   20.8270   19.5320 C.3    87  LEU87       0.0001
     97  CD2       11.9530   22.7290   18.8250 C.3    87  LEU87       0.0001
     98  N         13.7780    6.1250   18.9250 N.3   107  TYR107     -0.1227
     99  CA        12.7520    5.1410   19.2350 C.3   107  TYR107      0.1736
    100  C         11.6370    5.8370   20.0080 C.2   107  TYR107      0.2595
    101  O         11.8820    6.8010   20.7410 O.2   107  TYR107     -0.2718
    102  CB        13.3090    3.9570   20.0130 C.3   107  TYR107      0.0548
    103  CG        13.9590    4.3130   21.3170 C.ar  107  TYR107     -0.0200
    104  CD1       15.2480    4.8410   21.3410 C.ar  107  TYR107     -0.0009
    105  CD2       13.2990    4.1180   22.5330 C.ar  107  TYR107     -0.0009
    106  CE1       15.8650    5.1810   22.5300 C.ar  107  TYR107      0.0417
    107  CE2       13.9070    4.4630   23.7440 C.ar  107  TYR107      0.0417
    108  CZ        15.1970    4.9940   23.7290 C.ar  107  TYR107      0.1957
    109  OH        15.8330    5.3350   24.9050 O.3   107  TYR107     -0.2866
    110  N         10.4090    5.3930   19.7640 N.am  108  VAL108     -0.1980
    111  CA         9.2400    5.9720   20.3940 C.3   108  VAL108      0.1595
    112  C          8.2590    4.8670   20.7340 C.2   108  VAL108      0.2287
    113  O          8.2360    3.8240   20.0830 O.2   108  VAL108     -0.2864
    114  CB         8.5380    7.0070   19.4940 C.3   108  VAL108      0.0276
    115  CG1        9.2980    8.3050   19.5090 C.3   108  VAL108      0.0022
    116  CG2        8.3530    6.4460   18.0710 C.3   108  VAL108      0.0022
    117  N          2.6780    6.7560   20.3140 N.3   112  ASN112     -0.1225
    118  CA         3.0710    8.1580   20.1180 C.3   112  ASN112      0.1785
    119  C          2.9050    8.5210   18.6330 C.2   112  ASN112      0.2597
    120  O          3.8780    8.6020   17.8640 O.2   112  ASN112     -0.2718
    121  CB         4.5210    8.3700   20.6200 C.3   112  ASN112      0.1169
    122  CG         4.8930    9.8570   20.7860 C.2   112  ASN112      0.2627
    123  OD1        4.1440   10.7420   20.3940 O.2   112  ASN112     -0.2716
    124  ND2        6.0600   10.1160   21.3840 N.am  112  ASN112     -0.0877
    125  N          1.6570    8.7400   18.2380 N.am  113  HIS113     -0.1961
    126  CA         1.3240    8.8980   16.8260 C.3   113  HIS113      0.1787
    127  C          1.7730   10.2400   16.3110 C.2   113  HIS113      0.2620
    128  O          2.1710   10.3660   15.1520 O.2   113  HIS113     -0.2715
    129  CB        -0.1800    8.7660   16.5960 C.3   113  HIS113      0.0785
    130  CG        -0.7600    7.4910   17.1170 C.ar  113  HIS113      0.0821
    131  ND1       -0.2340    6.2540   16.8080 N.ar  113  HIS113     -0.2267
    132  CD2       -1.8310    7.2600   17.9150 C.ar  113  HIS113      0.1154
    133  CE1       -0.9520    5.3150   17.4030 C.ar  113  HIS113      0.1986
    134  NE2       -1.9270    5.8990   18.0800 N.ar  113  HIS113     -0.2212
    135  N          1.6940   11.2450   17.1690 N.am  114  LYS114     -0.1963
    136  CA         2.1700   12.5620   16.8110 C.3   114  LYS114      0.1728
    137  C          3.6180   12.4760   16.4070 C.2   114  LYS114      0.2616
    138  O          3.9920   12.9870   15.3630 O.2   114  LYS114     -0.2715
    139  CB         1.9830   13.5900   17.9460 C.3   114  LYS114      0.0311
    140  CG         0.6200   14.2440   17.9240 C.3   114  LYS114      0.0038
    141  CD         0.5550   15.5420   18.7100 C.3   114  LYS114      0.0206
    142  CE         0.3520   15.3150   20.1990 C.3   114  LYS114      0.1093
    143  NZ        -0.6910   16.2750   20.7090 N.3   114  LYS114     -0.1314
    144  N          4.4360   11.8380   17.2360 N.am  115  ALA115     -0.1977
    145  CA         5.8640   11.7580   16.9610 C.3   115  ALA115      0.1597
    146  C          6.1350   10.9200   15.7090 C.2   115  ALA115      0.2287
    147  O          6.9670   11.2880   14.8570 O.2   115  ALA115     -0.2864
    148  CB         6.6240   11.2060   18.1670 C.3   115  ALA115      0.0319
    149  N          4.1870   10.3110   13.0520 N.3   117  LYS117     -0.1231
    150  CA         3.7910   11.0640   11.8690 C.3   117  LYS117      0.1693
    151  C          4.8610   12.1170   11.5050 C.2   117  LYS117      0.2592
    152  O          5.2250   12.3000   10.3380 O.2   117  LYS117     -0.2718
    153  CB         2.4650   11.7510   12.1560 C.3   117  LYS117      0.0285
    154  CG         1.8520   12.5460   10.9760 C.3   117  LYS117      0.0035
    155  CD         1.7490   11.6470    9.7520 C.3   117  LYS117      0.0206
    156  CE         0.7040   12.0860    8.7680 C.3   117  LYS117      0.1093
    157  NZ         0.3010   10.8680    7.9730 N.3   117  LYS117     -0.1314
    158  N          5.3770   12.7860   12.5270 N.am  118  LEU118     -0.1966
    159  CA         6.3600   13.8390   12.3280 C.3   118  LEU118      0.1728
    160  C          7.6320   13.2560   11.7400 C.2   118  LEU118      0.2616
    161  O          8.2050   13.8200   10.8180 O.2   118  LEU118     -0.2715
    162  CB         6.6570   14.4970   13.6720 C.3   118  LEU118      0.0311
    163  CG         7.3310   15.8310   13.6360 C.3   118  LEU118      0.0022
    164  CD1        6.5030   16.8130   12.7970 C.3   118  LEU118      0.0001
    165  CD2        7.5320   16.2960   15.0840 C.3   118  LEU118      0.0001
    166  N          8.0620   12.1140   12.2760 N.am  119  TYR119     -0.1974
    167  CA         9.2660   11.4240   11.7930 C.3   119  TYR119      0.1639
    168  C          9.0770   10.9340   10.3580 C.2   119  TYR119      0.2290
    169  O          9.9670   11.0930    9.5140 O.2   119  TYR119     -0.2864
    170  CB         9.6270   10.2450   12.7200 C.3   119  TYR119      0.0560
    171  CG        10.0050   10.6530   14.1440 C.ar  119  TYR119     -0.0198
    172  CD1       10.1370   11.9970   14.5080 C.ar  119  TYR119     -0.0009
    173  CD2       10.2180    9.6930   15.1320 C.ar  119  TYR119     -0.0009
    174  CE1       10.4520   12.3650   15.7990 C.ar  119  TYR119      0.0417
    175  CE2       10.5720   10.0790   16.4560 C.ar  119  TYR119      0.0417
    176  CZ        10.6880   11.4040   16.7630 C.ar  119  TYR119      0.1957
    177  OH        11.0110   11.8000   18.0520 O.3   119  TYR119     -0.2866
    178  N          7.0520   12.1780    8.1840 N.3   121  GLN121     -0.1245
    179  CA         7.0170   13.3620    7.3160 C.3   121  GLN121      0.1566
    180  C          8.4170   13.8870    6.9910 C.2   121  GLN121      0.2260
    181  O          8.6060   14.5630    5.9940 O.2   121  GLN121     -0.2867
    182  CB         6.1780   14.4790    7.9430 C.3   121  GLN121      0.0367
    183  CG         4.6840   14.2000    7.8880 C.3   121  GLN121      0.0905
    184  CD         3.8440   15.2270    8.6120 C.2   121  GLN121      0.2608
    185  OE1        2.6440   15.3330    8.3560 O.2   121  GLN121     -0.2717
    186  NE2        4.4490   15.9770    9.5170 N.am  121  GLN121     -0.0878
@<TRIPOS>BOND
     1   181   180    2
     2   180   179    1
     3   179   182    1
     4   179   178    1
     5   183   182    1
     6   183   184    1
     7   157   156    1
     8   185   184    2
     9   184   186   am
    10   156   155    1
    11    89    87   am
    12   169   168    2
    13    87    88    2
    14    87    86    1
    15   155   154    1
    16    86    85    1
    17   152   151    2
    18   168   167    1
    19   161   160    2
    20   154   153    1
    21    85    82    1
    22   151   150    1
    23   151   158   am
    24   160   166   am
    25   160   159    1
    26   167   166    1
    27   167   170    1
    28   150   153    1
    29   150   149    1
    30    84    83    2
    31   159   158    1
    32   159   162    1
    33    82    83    1
    34    82    81    1
    35   170   171    1
    36   164   163    1
    37   163   162    1
    38   163   165    1
    39    81    79   am
    40   171   172   ar
    41   171   173   ar
    42    69    68    2
    43   172   174   ar
    44    79    80    2
    45    79    78    1
    46   147   146    2
    47   173   175   ar
    48   128   127    2
    49    17    19   ar
    50    17    15   ar
    51    92    93    2
    52    92    91    1
    53   138   137    2
    54    90    91    1
    55    68    67    1
    56    68    70   am
    57    67    66    1
    58    19    18   ar
    59   146   145    1
    60   174   176   ar
    61    78    77    1
    62    15    14   ar
    63    91    94    1
    64    73    72    2
    65    77    72   am
    66   127   126    1
    67   127   135   am
    68    72    71    1
    69   137   136    1
    70   137   144   am
    71   175   176   ar
    72    70    71    1
    73    18    16   ar
    74    71    74    1
    75   129   126    1
    76   129   130    1
    77    66    59   am
    78   176   177    1
    79   131   130   ar
    80   131   133   ar
    81   136   135    1
    82   136   139    1
    83   126   125    1
    84   145   144    1
    85   145   148    1
    86    64    65    1
    87    64    63    1
    88   130   132   ar
    89    60    59    2
    90    14    16   ar
    91    14    13    1
    92    94    95    1
    93   133   134   ar
    94    59    58    1
    95    30    29    1
    96    74    75    1
    97    74    76    1
    98   120   119    2
    99   132   134   ar
   100   140   139    1
   101   140   141    1
   102    62    63    1
   103    62    61    1
   104    13    10    1
   105   116   114    1
   106   125   119   am
   107    95    97    1
   108    95    96    1
   109   119   118    1
   110    61    58    1
   111   141   142    1
   112    31    29    1
   113    58    57    1
   114    98    99    1
   115     9    10    1
   116    29    28    1
   117    99   100    1
   118    99   102    1
   119    10    11    1
   120   114   115    1
   121   114   111    1
   122    28    25    1
   123   110   100   am
   124   110   111    1
   125    57    51   am
   126    12    11    2
   127    11    20   am
   128   100   101    2
   129   102   103    1
   130   113   112    2
   131   118   117    1
   132   118   121    1
   133   142   143    1
   134   123   122    2
   135   111   112    1
   136    20    21    1
   137     4     3    2
   138   121   122    1
   139    23    22    2
   140   122   124   am
   141    51    52    2
   142    51    50    1
   143    22    21    1
   144    22    24   am
   145    25    24    1
   146    25    26    1
   147   103   104   ar
   148   103   105   ar
   149   104   106   ar
   150     3     2    1
   151    48    45    1
   152    53    50    1
   153    53    54    1
   154    50    49    1
   155     1     2    1
   156    55    54    1
   157    26    27    2
   158    26    32   am
   159    56    54    1
   160     2     5    1
   161    45    44    1
   162    45    46    1
   163    32    33    1
   164   106   108   ar
   165   105   107   ar
   166    44    34   am
   167    34    35    2
   168    34    33    1
   169    33    36    1
   170     7     6   ar
   171   108   107   ar
   172   108   109    1
   173     6     5    1
   174     6     8   ar
   175    46    47    2
   176    36    37    1
   177    37    39   ar
   178    37    38   ar
   179    39    41   ar
   180    38    40   ar
   181    41    42   ar
   182    40    42   ar
   183    42    43    1
