@<TRIPOS>MOLECULE
tmp/4xpqA00.pdb
 128 124 0 0 0
SMALL
GASTEIGER

@<TRIPOS>ATOM
      1  N         14.3120  -36.6140   -2.0190 N.3   217  THR217     -0.1218
      2  CA        12.8780  -36.4520   -2.1190 C.3   217  THR217      0.1862
      3  C         12.1430  -37.4430   -1.2290 C.2   217  THR217      0.2287
      4  O         11.2020  -37.0650   -0.5770 O.2   217  THR217     -0.2866
      5  CB        12.4090  -36.7030   -3.5590 C.3   217  THR217      0.1770
      6  OG1       13.1950  -35.9040   -4.4350 O.3   217  THR217     -0.2211
      7  CG2       10.9210  -36.3560   -3.7290 C.3   217  THR217      0.0375
      8  N         12.7640  -31.6480    0.1850 N.3   244  GLU244     -0.1231
      9  CA        12.4490  -31.6070   -1.2460 C.3   244  GLU244      0.1684
     10  C         10.9650  -32.0040   -1.3940 C.2   244  GLU244      0.2434
     11  O         10.2580  -32.0280   -0.3900 O.2   244  GLU244     -0.2733
     12  CB        13.4930  -32.4500   -1.9690 C.3   244  GLU244      0.0402
     13  CG        14.8050  -31.6790   -2.0380 C.3   244  GLU244      0.1161
     14  CD        14.7750  -30.5600   -3.0580 C.2   244  GLU244      0.3649
     15  OE1       14.1980  -30.7830   -4.1360 O.co2 244  GLU244     -0.2457
     16  OE2       15.3280  -29.4530   -2.7900 O.co2 244  GLU244     -0.2457
     17  N         10.4600  -32.2530   -2.6130 N.am  245  PRO245     -0.2729
     18  CA         8.9920  -32.2620   -2.7410 C.3   245  PRO245      0.1401
     19  C          8.1900  -33.2920   -1.9160 C.2   245  PRO245      0.2269
     20  O          6.9920  -33.1020   -1.7440 O.2   245  PRO245     -0.2865
     21  CB         8.7840  -32.5000   -4.2310 C.3   245  PRO245      0.0296
     22  CG         9.9690  -31.8630   -4.8630 C.3   245  PRO245      0.0237
     23  CD        11.1110  -32.1380   -3.9320 C.3   245  PRO245      0.0939
     24  N          3.9050  -31.2360   -7.8400 N.3   252  TYR252     -0.1241
     25  CA         3.8380  -31.1030   -9.2860 C.3   252  TYR252      0.1605
     26  C          2.5150  -31.5890   -9.8760 C.2   252  TYR252      0.2264
     27  O          2.5310  -32.4120  -10.7630 O.2   252  TYR252     -0.2867
     28  CB         4.9540  -31.8730   -9.9690 C.3   252  TYR252      0.0534
     29  CG         6.3640  -31.3790   -9.7240 C.ar  252  TYR252     -0.0201
     30  CD1        7.1110  -31.8390   -8.6520 C.ar  252  TYR252     -0.0009
     31  CD2        6.9550  -30.4930  -10.6110 C.ar  252  TYR252     -0.0009
     32  CE1        8.4240  -31.4120   -8.4560 C.ar  252  TYR252      0.0417
     33  CE2        8.2630  -30.0650  -10.4340 C.ar  252  TYR252      0.0417
     34  CZ         8.9900  -30.5180   -9.3500 C.ar  252  TYR252      0.1957
     35  OH        10.2970  -30.1140   -9.1940 O.3   252  TYR252     -0.2866
     36  N         11.0230  -26.9460    0.0420 N.3   283  TRP283     -0.1241
     37  CA        10.8010  -26.8420   -1.3890 C.3   283  TRP283      0.1605
     38  C          9.3420  -26.5400   -1.6940 C.2   283  TRP283      0.2264
     39  O          8.4510  -27.1880   -1.1370 O.2   283  TRP283     -0.2867
     40  CB        11.1850  -28.1630   -2.0590 C.3   283  TRP283      0.0550
     41  CG        10.9210  -28.1490   -3.5340 C.ar  283  TRP283      0.0003
     42  CD1       11.8200  -27.8240   -4.5190 C.ar  283  TRP283      0.0946
     43  CD2        9.6810  -28.4400   -4.2060 C.ar  283  TRP283      0.0152
     44  NE1       11.2150  -27.9000   -5.7560 N.ar  283  TRP283     -0.2442
     45  CE2        9.9060  -28.2690   -5.5910 C.ar  283  TRP283      0.0810
     46  CE3        8.4090  -28.8510   -3.7740 C.ar  283  TRP283      0.0012
     47  CZ2        8.9190  -28.4840   -6.5350 C.ar  283  TRP283      0.0191
     48  CZ3        7.4340  -29.0450   -4.7110 C.ar  283  TRP283      0.0001
     49  CH2        7.6940  -28.8670   -6.0820 C.ar  283  TRP283      0.0015
     50  N         12.4310  -22.8540   -0.5540 N.3   341  LYS341     -0.1245
     51  CA        13.1670  -22.9230   -1.7950 C.3   341  LYS341      0.1561
     52  C         12.0840  -22.8240   -2.8630 C.2   341  LYS341      0.2260
     53  O         11.2370  -23.7150   -3.0070 O.2   341  LYS341     -0.2867
     54  CB        13.9280  -24.2390   -1.8720 C.3   341  LYS341      0.0271
     55  CG        14.5190  -24.5600   -3.2340 C.3   341  LYS341      0.0035
     56  CD        15.3290  -25.8520   -3.1800 C.3   341  LYS341      0.0206
     57  CE        15.7060  -26.3230   -4.5850 C.3   341  LYS341      0.1093
     58  NZ        16.5510  -27.5500   -4.5800 N.3   341  LYS341     -0.1314
     59  N         11.0680  -22.9530   -6.3320 N.3   343  ASP343     -0.1225
     60  CA        11.5870  -23.5860   -7.5340 C.3   343  ASP343      0.1805
     61  C         10.7290  -23.2690   -8.7510 C.2   343  ASP343      0.2597
     62  O          9.5500  -22.9570   -8.6330 O.2   343  ASP343     -0.2718
     63  CB        11.6010  -25.0890   -7.2990 C.3   343  ASP343      0.1424
     64  CG        12.6350  -25.8360   -8.1240 C.2   343  ASP343      0.3668
     65  OD1       13.5250  -25.2410   -8.7680 O.co2 343  ASP343     -0.2456
     66  OD2       12.5660  -27.0710   -8.0680 O.co2 343  ASP343     -0.2456
     67  N         11.3380  -23.3290   -9.9250 N.am  344  GLU344     -0.1979
     68  CA        10.5950  -23.4370  -11.1790 C.3   344  GLU344      0.1602
     69  C          9.6830  -22.2280  -11.4650 C.2   344  GLU344      0.2287
     70  O          8.5830  -22.3630  -12.0180 O.2   344  GLU344     -0.2864
     71  CB         9.8400  -24.7630  -11.2030 C.3   344  GLU344      0.0415
     72  CG        10.8220  -25.9370  -11.2580 C.3   344  GLU344      0.1163
     73  CD        10.3380  -27.1830  -10.5600 C.2   344  GLU344      0.3649
     74  OE1        9.3980  -27.0850   -9.7180 O.co2 344  GLU344     -0.2457
     75  OE2       10.8960  -28.2680  -10.8810 O.co2 344  GLU344     -0.2457
     76  N         14.6050  -19.7160   -7.8880 N.3   396  ARG396     -0.1245
     77  CA        15.1770  -19.9760   -9.2020 C.3   396  ARG396      0.1563
     78  C         14.9620  -18.8570  -10.2200 C.2   396  ARG396      0.2260
     79  O         15.4210  -18.9750  -11.3540 O.2   396  ARG396     -0.2867
     80  CB        14.7500  -21.3530   -9.7340 C.3   396  ARG396      0.0307
     81  CG        15.9690  -22.1310  -10.2380 C.3   396  ARG396      0.0489
     82  CD        15.6600  -23.5600  -10.6510 C.3   396  ARG396      0.2205
     83  NE        14.7060  -23.5950  -11.7430 N.pl3 396  ARG396     -0.0865
     84  CZ        14.2140  -24.7070  -12.2880 C.cat 396  ARG396      0.5346
     85  NH1       14.5630  -25.8950  -11.8150 N.pl3 396  ARG396      0.1354
     86  NH2       13.3490  -24.6240  -13.2870 N.pl3 396  ARG396      0.1354
     87  N         19.9110  -20.3520   -7.5500 N.3   410  TYR410     -0.1241
     88  CA        20.5990  -21.6030   -7.8110 C.3   410  TYR410      0.1605
     89  C         20.0160  -22.0970   -9.1240 C.2   410  TYR410      0.2264
     90  O         19.0350  -21.5340   -9.5930 O.2   410  TYR410     -0.2867
     91  CB        20.2940  -22.6440   -6.7250 C.3   410  TYR410      0.0534
     92  CG        18.8300  -22.9980   -6.7430 C.ar  410  TYR410     -0.0201
     93  CD1       17.8880  -22.1310   -6.1950 C.ar  410  TYR410     -0.0009
     94  CD2       18.3760  -24.1410   -7.3770 C.ar  410  TYR410     -0.0009
     95  CE1       16.5270  -22.4200   -6.2370 C.ar  410  TYR410      0.0417
     96  CE2       17.0220  -24.4280   -7.4410 C.ar  410  TYR410      0.0417
     97  CZ        16.1090  -23.5650   -6.8680 C.ar  410  TYR410      0.1957
     98  OH        14.7560  -23.8200   -6.9130 O.3   410  TYR410     -0.2866
     99  N         19.6850  -25.7960  -12.1230 N.3   412  ASP412     -0.1239
    100  CA        19.8290  -27.2110  -12.4880 C.3   412  ASP412      0.1674
    101  C         20.9720  -27.4220  -13.4750 C.2   412  ASP412      0.2266
    102  O         21.1930  -28.5310  -13.9150 O.2   412  ASP412     -0.2867
    103  CB        18.5300  -27.7640  -13.1270 C.3   412  ASP412      0.1410
    104  CG        17.3410  -27.8000  -12.1620 C.2   412  ASP412      0.3668
    105  OD1       17.4300  -27.2400  -11.0460 O.co2 412  ASP412     -0.2456
    106  OD2       16.2900  -28.3520  -12.5590 O.co2 412  ASP412     -0.2456
    107  N         22.9630  -29.9300   -2.3440 N.3   462  ASN462     -0.1240
    108  CA        21.6110  -30.2590   -2.7470 C.3   462  ASN462      0.1653
    109  C         21.5740  -31.7240   -3.1970 C.2   462  ASN462      0.2266
    110  O         21.8870  -32.0420   -4.3460 O.2   462  ASN462     -0.2867
    111  CB        21.1610  -29.3210   -3.8700 C.3   462  ASN462      0.1155
    112  CG        19.8180  -29.7070   -4.4460 C.2   462  ASN462      0.2627
    113  OD1       19.0580  -30.4660   -3.8430 O.2   462  ASN462     -0.2716
    114  ND2       19.5100  -29.1730   -5.6040 N.am  462  ASN462     -0.0877
    115  N         18.9600  -33.8070   -3.4180 N.3   464  TRP464     -0.1241
    116  CA        17.5910  -34.2570   -3.7410 C.3   464  TRP464      0.1605
    117  C         17.5650  -35.5880   -4.4930 C.2   464  TRP464      0.2264
    118  O         16.6700  -36.3920   -4.2650 O.2   464  TRP464     -0.2867
    119  CB        16.8360  -33.2020   -4.5470 C.3   464  TRP464      0.0550
    120  CG        17.2090  -33.1120   -5.9860 C.ar  464  TRP464      0.0003
    121  CD1       18.1590  -32.3040   -6.5460 C.ar  464  TRP464      0.0946
    122  CD2       16.6300  -33.8570   -7.0670 C.ar  464  TRP464      0.0152
    123  NE1       18.2010  -32.5000   -7.9100 N.ar  464  TRP464     -0.2442
    124  CE2       17.2690  -33.4490   -8.2490 C.ar  464  TRP464      0.0810
    125  CE3       15.6320  -34.8340   -7.1420 C.ar  464  TRP464      0.0012
    126  CZ2       16.9510  -33.9890   -9.5020 C.ar  464  TRP464      0.0191
    127  CZ3       15.2960  -35.3520   -8.4030 C.ar  464  TRP464      0.0001
    128  CH2       15.9660  -34.9380   -9.5500 C.ar  464  TRP464      0.0015
@<TRIPOS>BOND
     1   102   101    2
     2   101   100    1
     3    86    84    1
     4   103   100    1
     5   103   104    1
     6   106   104   ar
     7   100    99    1
     8    84    85    1
     9    84    83    2
    10   104   105   ar
    11    70    69    2
    12    83    82    1
    13    69    68    1
    14    79    78    2
    15    72    71    1
    16    72    73    1
    17    71    68    1
    18    68    67    1
    19    75    73   ar
    20    27    26    2
    21    82    81    1
    22    31    33   ar
    23    31    29   ar
    24    73    74   ar
    25    33    34   ar
    26    81    80    1
    27    78    77    1
    28    28    29    1
    29    28    25    1
    30    67    61   am
    31    26    25    1
    32    80    77    1
    33    29    30   ar
    34    90    89    2
    35   128   126   ar
    36   128   127   ar
    37   126   124   ar
    38    34    35    1
    39    34    32   ar
    40    25    24    1
    41    77    76    1
    42    89    88    1
    43    65    64   ar
    44    61    62    2
    45    61    60    1
    46    30    32   ar
    47   127   125   ar
    48   124   123   ar
    49   124   122   ar
    50    64    66   ar
    51    64    63    1
    52   123   121   ar
    53    88    87    1
    54    88    91    1
    55    60    63    1
    56    60    59    1
    57    96    94   ar
    58    96    97   ar
    59    94    92   ar
    60   125   122   ar
    61   122   120   ar
    62    98    97    1
    63    97    95   ar
    64    92    91    1
    65    92    93   ar
    66   121   120   ar
    67    47    49   ar
    68    47    45   ar
    69    95    93   ar
    70    49    48   ar
    71   120   119    1
    72    44    45   ar
    73    44    42   ar
    74   114   112   am
    75    45    43   ar
    76    22    21    1
    77    22    23    1
    78    48    46   ar
    79    57    58    1
    80    57    56    1
    81   119   116    1
    82    42    41   ar
    83   117   118    2
    84   117   116    1
    85   112   111    1
    86   112   113    2
    87     6     5    1
    88   110   109    2
    89    21    18    1
    90    43    46   ar
    91    43    41   ar
    92    15    14   ar
    93    23    17    1
    94   111   108    1
    95   116   115    1
    96     7     5    1
    97     5     2    1
    98    41    40    1
    99    55    56    1
   100    55    54    1
   101   109   108    1
   102    14    16   ar
   103    14    13    1
   104    53    52    2
   105    52    51    1
   106   108   107    1
   107    18    17    1
   108    18    19    1
   109    17    10   am
   110     2     1    1
   111     2     3    1
   112    40    37    1
   113    13    12    1
   114    12     9    1
   115    19    20    2
   116    54    51    1
   117    51    50    1
   118    38    37    1
   119    38    39    2
   120    10     9    1
   121    10    11    2
   122    37    36    1
   123     9     8    1
   124     3     4    2
