@<TRIPOS>MOLECULE
tmp/4xpsA00.pdb
 134 129 0 0 0
SMALL
GASTEIGER

@<TRIPOS>ATOM
      1  N         14.2650  -36.7070   -1.9140 N.3   211  THR211     -0.1218
      2  CA        12.8310  -36.4670   -2.0800 C.3   211  THR211      0.1862
      3  C         11.9080  -37.3040   -1.1780 C.2   211  THR211      0.2287
      4  O         10.8970  -36.8030   -0.6760 O.2   211  THR211     -0.2866
      5  CB        12.4290  -36.7420   -3.5670 C.3   211  THR211      0.1770
      6  OG1       13.0220  -35.7610   -4.4280 O.3   211  THR211     -0.2211
      7  CG2       10.9170  -36.7310   -3.7630 C.3   211  THR211      0.0375
      8  N         12.5980  -32.0210    0.5380 N.3   238  GLU238     -0.1231
      9  CA        12.3300  -31.9870   -0.8840 C.3   238  GLU238      0.1684
     10  C         10.8760  -32.4120   -1.1350 C.2   238  GLU238      0.2434
     11  O         10.1150  -32.4620   -0.1900 O.2   238  GLU238     -0.2733
     12  CB        13.4400  -32.7560   -1.6060 C.3   238  GLU238      0.0402
     13  CG        14.7530  -31.9280   -1.6340 C.3   238  GLU238      0.1161
     14  CD        14.7220  -30.7930   -2.6550 C.2   238  GLU238      0.3649
     15  OE1       14.2300  -31.0300   -3.7860 O.co2 238  GLU238     -0.2457
     16  OE2       15.1860  -29.6620   -2.3520 O.co2 238  GLU238     -0.2457
     17  N         10.4620  -32.6580   -2.3940 N.am  239  PRO239     -0.2729
     18  CA         9.0060  -32.7040   -2.6290 C.3   239  PRO239      0.1401
     19  C          8.1380  -33.7070   -1.8330 C.2   239  PRO239      0.2269
     20  O          6.9570  -33.4430   -1.6310 O.2   239  PRO239     -0.2865
     21  CB         8.9130  -32.9860   -4.1340 C.3   239  PRO239      0.0296
     22  CG        10.1370  -32.3520   -4.6870 C.3   239  PRO239      0.0237
     23  CD        11.2100  -32.5560   -3.6640 C.3   239  PRO239      0.0939
     24  N          4.0170  -31.6050   -7.7510 N.3   246  TYR246     -0.1241
     25  CA         3.9140  -31.4520   -9.2130 C.3   246  TYR246      0.1605
     26  C          2.5710  -31.9040   -9.8070 C.2   246  TYR246      0.2264
     27  O          2.5390  -32.7730  -10.6800 O.2   246  TYR246     -0.2867
     28  CB         5.0500  -32.1980   -9.9340 C.3   246  TYR246      0.0534
     29  CG         6.4790  -31.7460   -9.6390 C.ar  246  TYR246     -0.0201
     30  CD1        7.1900  -32.2510   -8.5660 C.ar  246  TYR246     -0.0009
     31  CD2        7.1180  -30.8480  -10.4770 C.ar  246  TYR246     -0.0009
     32  CE1        8.5150  -31.8810   -8.3530 C.ar  246  TYR246      0.0417
     33  CE2        8.4320  -30.4610  -10.2670 C.ar  246  TYR246      0.0417
     34  CZ         9.1320  -30.9730   -9.2220 C.ar  246  TYR246      0.1957
     35  OH        10.4390  -30.5670   -9.0270 O.3   246  TYR246     -0.2866
     36  N         10.8790  -27.2710    0.2400 N.3   277  TRP277     -0.1241
     37  CA        10.6670  -27.1570   -1.1950 C.3   277  TRP277      0.1605
     38  C          9.2190  -26.8330   -1.4810 C.2   277  TRP277      0.2264
     39  O          8.3210  -27.4180   -0.8730 O.2   277  TRP277     -0.2867
     40  CB        10.9970  -28.5080   -1.8650 C.3   277  TRP277      0.0550
     41  CG        10.9280  -28.5050   -3.3130 C.ar  277  TRP277      0.0003
     42  CD1       11.9720  -28.3360   -4.1780 C.ar  277  TRP277      0.0946
     43  CD2        9.7620  -28.6960   -4.1210 C.ar  277  TRP277      0.0152
     44  NE1       11.5260  -28.3890   -5.4790 N.ar  277  TRP277     -0.2442
     45  CE2       10.1760  -28.6220   -5.4750 C.ar  277  TRP277      0.0810
     46  CE3        8.4140  -28.9450   -3.8380 C.ar  277  TRP277      0.0012
     47  CZ2        9.2900  -28.7730   -6.5400 C.ar  277  TRP277      0.0191
     48  CZ3        7.5270  -29.1020   -4.9000 C.ar  277  TRP277      0.0001
     49  CH2        7.9770  -29.0040   -6.2450 C.ar  277  TRP277      0.0015
     50  N         12.2260  -23.2170   -0.1360 N.3   335  LYS335     -0.1245
     51  CA        13.0120  -23.2990   -1.3460 C.3   335  LYS335      0.1561
     52  C         12.0130  -23.2710   -2.4790 C.2   335  LYS335      0.2260
     53  O         11.2020  -24.1520   -2.6130 O.2   335  LYS335     -0.2867
     54  CB        13.8480  -24.5840   -1.3910 C.3   335  LYS335      0.0271
     55  CG        14.3790  -24.9330   -2.7930 C.3   335  LYS335      0.0035
     56  CD        15.1850  -26.2300   -2.7850 C.3   335  LYS335      0.0206
     57  CE        15.7600  -26.5420   -4.1680 C.3   335  LYS335      0.1093
     58  NZ        16.5250  -27.7990   -4.1180 N.3   335  LYS335     -0.1314
     59  N         11.1270  -23.4540   -6.2150 N.3   337  ALA337     -0.1231
     60  CA        11.6040  -24.0110   -7.4730 C.3   337  ALA337      0.1694
     61  C         10.6850  -23.7010   -8.6330 C.2   337  ALA337      0.2591
     62  O          9.4990  -23.4240   -8.4530 O.2   337  ALA337     -0.2718
     63  CB        11.7410  -25.5070   -7.3450 C.3   337  ALA337      0.0304
     64  N         11.2610  -23.7060   -9.8270 N.am  338  GLU338     -0.1979
     65  CA        10.5000  -23.8290  -11.0700 C.3   338  GLU338      0.1602
     66  C          9.6060  -22.6390  -11.3780 C.2   338  GLU338      0.2287
     67  O          8.5470  -22.7680  -12.0300 O.2   338  GLU338     -0.2864
     68  CB         9.7440  -25.1780  -11.0920 C.3   338  GLU338      0.0415
     69  CG        10.7190  -26.3580  -11.1570 C.3   338  GLU338      0.1163
     70  CD        10.4010  -27.5160  -10.2290 C.2   338  GLU338      0.3649
     71  OE1        9.4070  -27.4750   -9.4750 O.co2 338  GLU338     -0.2457
     72  OE2       11.1980  -28.4740  -10.2250 O.co2 338  GLU338     -0.2457
     73  N         14.6250  -19.9720   -7.5820 N.3   390  ARG390     -0.1245
     74  CA        15.2240  -20.2590   -8.8680 C.3   390  ARG390      0.1563
     75  C         14.9890  -19.1260   -9.8500 C.2   390  ARG390      0.2260
     76  O         15.3990  -19.2260  -10.9670 O.2   390  ARG390     -0.2867
     77  CB        14.7620  -21.6170   -9.4110 C.3   390  ARG390      0.0307
     78  CG        15.9270  -22.5440   -9.7600 C.3   390  ARG390      0.0489
     79  CD        15.4860  -23.9780  -10.0680 C.3   390  ARG390      0.2205
     80  NE        14.6980  -24.0360  -11.2870 N.pl3 390  ARG390     -0.0865
     81  CZ        14.1870  -25.1330  -11.8180 C.cat 390  ARG390      0.5346
     82  NH1       14.3410  -26.3060  -11.2330 N.pl3 390  ARG390      0.1354
     83  NH2       13.4870  -25.0370  -12.9370 N.pl3 390  ARG390      0.1354
     84  N         19.8430  -20.6470   -7.0370 N.3   404  TYR404     -0.1241
     85  CA        20.5260  -21.9290   -7.2950 C.3   404  TYR404      0.1605
     86  C         19.9830  -22.4310   -8.6290 C.2   404  TYR404      0.2264
     87  O         18.9880  -21.8980   -9.1240 O.2   404  TYR404     -0.2867
     88  CB        20.1880  -22.9620   -6.1960 C.3   404  TYR404      0.0534
     89  CG        18.7540  -23.3710   -6.2760 C.ar  404  TYR404     -0.0201
     90  CD1       17.7790  -22.5660   -5.7330 C.ar  404  TYR404     -0.0009
     91  CD2       18.3610  -24.5400   -6.9320 C.ar  404  TYR404     -0.0009
     92  CE1       16.4470  -22.8890   -5.8310 C.ar  404  TYR404      0.0417
     93  CE2       17.0270  -24.8700   -7.0530 C.ar  404  TYR404      0.0417
     94  CZ        16.0690  -24.0420   -6.4900 C.ar  404  TYR404      0.1957
     95  OH        14.7140  -24.3360   -6.5650 O.3   404  TYR404     -0.2866
     96  N         19.7910  -26.1210  -11.6630 N.3   406  ASP406     -0.1239
     97  CA        20.0630  -27.5250  -12.0600 C.3   406  ASP406      0.1674
     98  C         21.1920  -27.7040  -13.0740 C.2   406  ASP406      0.2266
     99  O         21.4490  -28.8000  -13.4820 O.2   406  ASP406     -0.2867
    100  CB        18.7830  -28.1790  -12.6060 C.3   406  ASP406      0.1410
    101  CG        17.6930  -28.2220  -11.5750 C.2   406  ASP406      0.3668
    102  OD1       18.0130  -28.2230  -10.3510 O.co2 406  ASP406     -0.2456
    103  OD2       16.5060  -28.2160  -11.9810 O.co2 406  ASP406     -0.2456
    104  N         26.0420  -24.5780   -5.6540 N.3   430  GLU430     -0.1245
    105  CA        25.6530  -25.6800   -4.7870 C.3   430  GLU430      0.1567
    106  C         26.3840  -26.9810   -5.1230 C.2   430  GLU430      0.2260
    107  O         26.9290  -27.1630   -6.2280 O.2   430  GLU430     -0.2867
    108  CB        24.1080  -25.8640   -4.7460 C.3   430  GLU430      0.0388
    109  CG        23.4420  -26.5670   -5.9200 C.3   430  GLU430      0.1160
    110  CD        21.9680  -26.8900   -5.6870 C.2   430  GLU430      0.3649
    111  OE1       21.3310  -26.3050   -4.7560 O.co2 430  GLU430     -0.2457
    112  OE2       21.4340  -27.7450   -6.4250 O.co2 430  GLU430     -0.2457
    113  N         22.9310  -30.2760   -1.8710 N.3   456  ASN456     -0.1240
    114  CA        21.5580  -30.5370   -2.2660 C.3   456  ASN456      0.1653
    115  C         21.4210  -31.9660   -2.7260 C.2   456  ASN456      0.2266
    116  O         21.6040  -32.2660   -3.9300 O.2   456  ASN456     -0.2867
    117  CB        21.1130  -29.6070   -3.3670 C.3   456  ASN456      0.1155
    118  CG        19.6840  -29.9240   -3.8650 C.2   456  ASN456      0.2627
    119  OD1       18.9310  -30.6690   -3.2240 O.2   456  ASN456     -0.2716
    120  ND2       19.3150  -29.3440   -4.9800 N.am  456  ASN456     -0.0877
    121  N         18.8300  -33.9710   -3.0530 N.3   458  TRP458     -0.1241
    122  CA        17.4790  -34.3910   -3.4090 C.3   458  TRP458      0.1605
    123  C         17.4320  -35.6820   -4.2340 C.2   458  TRP458      0.2264
    124  O         16.5050  -36.4660   -4.0740 O.2   458  TRP458     -0.2867
    125  CB        16.7540  -33.3000   -4.1700 C.3   458  TRP458      0.0550
    126  CG        17.1530  -33.1340   -5.5750 C.ar  458  TRP458      0.0003
    127  CD1       18.2040  -32.3860   -6.0510 C.ar  458  TRP458      0.0946
    128  CD2       16.4890  -33.6670   -6.7220 C.ar  458  TRP458      0.0152
    129  NE1       18.2230  -32.4240   -7.4260 N.ar  458  TRP458     -0.2442
    130  CE2       17.1950  -33.2200   -7.8620 C.ar  458  TRP458      0.0810
    131  CE3       15.3760  -34.4840   -6.8980 C.ar  458  TRP458      0.0012
    132  CZ2       16.8200  -33.5660   -9.1530 C.ar  458  TRP458      0.0191
    133  CZ3       15.0010  -34.8210   -8.1560 C.ar  458  TRP458      0.0001
    134  CH2       15.7120  -34.3510   -9.2880 C.ar  458  TRP458      0.0015
@<TRIPOS>BOND
     1    99    98    2
     2    98    97    1
     3    83    81    1
     4   100    97    1
     5   100   101    1
     6    97    96    1
     7    67    66    2
     8   103   101   ar
     9    81    80    2
    10    81    82    1
    11   101   102   ar
    12    66    65    1
    13    80    79    1
    14    69    68    1
    15    69    70    1
    16    68    65    1
    17    65    64    1
    18    76    75    2
    19    27    26    2
    20    31    33   ar
    21    31    29   ar
    22    33    34   ar
    23    70    72   ar
    24    70    71   ar
    25    79    78    1
    26    28    29    1
    27    28    25    1
    28    75    74    1
    29    64    61   am
    30    26    25    1
    31    78    77    1
    32    29    30   ar
    33    77    74    1
    34   134   132   ar
    35   134   133   ar
    36    34    35    1
    37    34    32   ar
    38    25    24    1
    39   132   130   ar
    40    87    86    2
    41    74    73    1
    42    61    62    2
    43    61    60    1
    44    86    85    1
    45    30    32   ar
    46   133   131   ar
    47   130   129   ar
    48   130   128   ar
    49    60    63    1
    50    60    59    1
    51   129   127   ar
    52    85    84    1
    53    85    88    1
    54    93    91   ar
    55    93    94   ar
    56    91    89   ar
    57   131   128   ar
    58   128   126   ar
    59    95    94    1
    60    47    49   ar
    61    47    45   ar
    62    94    92   ar
    63   112   110   ar
    64    89    88    1
    65    89    90   ar
    66    49    48   ar
    67   107   106    2
    68   127   126   ar
    69   109   110    1
    70   109   108    1
    71    92    90   ar
    72   110   111   ar
    73   104   105    1
    74   126   125    1
    75    44    45   ar
    76    44    42   ar
    77    45    43   ar
    78   106   105    1
    79   120   118   am
    80    48    46   ar
    81   105   108    1
    82    22    21    1
    83    22    23    1
    84     6     5    1
    85   123   124    2
    86   123   122    1
    87    42    41   ar
    88   125   122    1
    89    57    58    1
    90    57    56    1
    91    21    18    1
    92    43    46   ar
    93    43    41   ar
    94   116   115    2
    95   118   117    1
    96   118   119    2
    97    15    14   ar
    98     7     5    1
    99    23    17    1
   100     5     2    1
   101   122   121    1
   102   117   114    1
   103    41    40    1
   104    55    56    1
   105    55    54    1
   106   115   114    1
   107    14    16   ar
   108    14    13    1
   109    18    17    1
   110    18    19    1
   111    53    52    2
   112    52    51    1
   113    17    10   am
   114   114   113    1
   115     2     1    1
   116     2     3    1
   117    40    37    1
   118    19    20    2
   119    13    12    1
   120    12     9    1
   121    38    37    1
   122    38    39    2
   123    54    51    1
   124    51    50    1
   125    37    36    1
   126     3     4    2
   127    10     9    1
   128    10    11    2
   129     9     8    1
