@<TRIPOS>MOLECULE
tmp/4xptA01.pdb
 108 102 0 0 0
SMALL
GASTEIGER

@<TRIPOS>ATOM
      1  N        100.6850  287.6870   29.2930 N.3    19  PHE19      -0.1227
      2  CA       101.7680  286.7150   29.2010 C.3    19  PHE19       0.1736
      3  C        101.3910  285.4020   29.8750 C.2    19  PHE19       0.2595
      4  O        101.7230  284.3230   29.3850 O.2    19  PHE19      -0.2718
      5  CB       103.0480  287.2730   29.8260 C.3    19  PHE19       0.0547
      6  CG       104.0770  286.2250   30.1320 C.ar   19  PHE19      -0.0202
      7  CD1      104.8420  285.6690   29.1190 C.ar   19  PHE19      -0.0042
      8  CD2      104.2800  285.7930   31.4330 C.ar   19  PHE19      -0.0042
      9  CE1      105.7900  284.7020   29.3960 C.ar   19  PHE19      -0.0003
     10  CE2      105.2260  284.8270   31.7170 C.ar   19  PHE19      -0.0003
     11  CZ       105.9830  284.2800   30.6970 C.ar   19  PHE19      -0.0000
     12  N        100.6900  285.5010   30.9990 N.am   20  ALA20      -0.1980
     13  CA       100.3260  284.3250   31.7800 C.3    20  ALA20       0.1597
     14  C         99.2670  283.4810   31.0800 C.2    20  ALA20       0.2287
     15  O         99.3240  282.2520   31.1100 O.2    20  ALA20      -0.2864
     16  CB        99.8390  284.7420   33.1590 C.3    20  ALA20       0.0319
     17  N         97.7020  281.8700   28.0170 N.3    22  ASP22      -0.1239
     18  CA        98.1500  281.4580   26.6940 C.3    22  ASP22       0.1674
     19  C         97.3460  280.2730   26.1800 C.2    22  ASP22       0.2266
     20  O         96.3660  279.8570   26.7980 O.2    22  ASP22      -0.2867
     21  CB        99.6390  281.1040   26.7190 C.3    22  ASP22       0.1410
     22  CG        99.9380  279.9100   27.6030 C.2    22  ASP22       0.3668
     23  OD1       99.3720  279.8340   28.7130 O.co2  22  ASP22      -0.2456
     24  OD2      100.7360  279.0460   27.1850 O.co2  22  ASP22      -0.2456
     25  N        114.0500  281.3440   27.2760 N.3    93  ALA93      -0.1245
     26  CA       113.0610  282.1620   26.5860 C.3    93  ALA93       0.1562
     27  C        113.5030  282.4230   25.1510 C.2    93  ALA93       0.2260
     28  O        112.6810  282.6810   24.2700 O.2    93  ALA93      -0.2867
     29  CB       112.8440  283.4730   27.3260 C.3    93  ALA93       0.0290
     30  N        112.4280  279.1570   23.2400 N.3    96  VAL96      -0.1231
     31  CA       110.9790  279.0750   23.0920 C.3    96  VAL96       0.1692
     32  C        110.4670  279.9190   21.9290 C.2    96  VAL96       0.2592
     33  O        109.5710  279.5000   21.1970 O.2    96  VAL96      -0.2718
     34  CB       110.2590  279.5190   24.3780 C.3    96  VAL96       0.0266
     35  CG1      108.7530  279.5260   24.1650 C.3    96  VAL96       0.0020
     36  CG2      110.6390  278.6130   25.5400 C.3    96  VAL96       0.0020
     37  N        111.0410  281.1080   21.7690 N.am   97  GLY97      -0.1957
     38  CA       110.6350  282.0220   20.7160 C.3    97  GLY97       0.1869
     39  C        110.7570  281.4150   19.3330 C.2    97  GLY97       0.2309
     40  O        110.0620  281.8230   18.4010 O.2    97  GLY97      -0.2863
     41  N        107.6150  278.7360   19.2810 N.3   100  TYR100     -0.1241
     42  CA       106.3200  279.1870   19.7880 C.3   100  TYR100      0.1605
     43  C        105.5360  280.0370   18.7910 C.2   100  TYR100      0.2264
     44  O        104.3240  279.8730   18.6430 O.2   100  TYR100     -0.2867
     45  CB       106.4890  279.9650   21.0940 C.3   100  TYR100      0.0534
     46  CG       105.1940  280.0910   21.8650 C.ar  100  TYR100     -0.0201
     47  CD1      104.7670  279.0780   22.7130 C.ar  100  TYR100     -0.0009
     48  CD2      104.3870  281.2130   21.7310 C.ar  100  TYR100     -0.0009
     49  CE1      103.5810  279.1820   23.4150 C.ar  100  TYR100      0.0417
     50  CE2      103.1990  281.3270   22.4290 C.ar  100  TYR100      0.0417
     51  CZ       102.8010  280.3080   23.2690 C.ar  100  TYR100      0.1957
     52  OH       101.6190  280.4150   23.9650 O.3   100  TYR100     -0.2866
     53  N        104.0840  276.0010   34.0020 N.3   255  PHE255     -0.1227
     54  CA       104.1140  276.4880   32.6290 C.3   255  PHE255      0.1736
     55  C        102.9970  277.4980   32.3860 C.2   255  PHE255      0.2596
     56  O        103.1140  278.3750   31.5300 O.2   255  PHE255     -0.2718
     57  CB       104.0020  275.3250   31.6410 C.3   255  PHE255      0.0547
     58  CG       104.3500  275.6960   30.2280 C.ar  255  PHE255     -0.0202
     59  CD1      105.6730  275.8360   29.8420 C.ar  255  PHE255     -0.0042
     60  CD2      103.3560  275.9060   29.2860 C.ar  255  PHE255     -0.0042
     61  CE1      105.9980  276.1790   28.5430 C.ar  255  PHE255     -0.0003
     62  CE2      103.6750  276.2490   27.9840 C.ar  255  PHE255     -0.0003
     63  CZ       104.9970  276.3850   27.6120 C.ar  255  PHE255     -0.0000
     64  N        101.9170  277.3740   33.1490 N.am  256  SER256     -0.1952
     65  CA       100.7750  278.2670   33.0040 C.3   256  SER256      0.1924
     66  C        101.0620  279.6460   33.5950 C.2   256  SER256      0.2314
     67  O        100.7260  280.6680   32.9980 O.2   256  SER256     -0.2863
     68  CB        99.5360  277.6560   33.6630 C.3   256  SER256      0.2116
     69  OG        98.3780  278.4240   33.3830 O.3   256  SER256     -0.2180
     70  N        104.0900  280.6880   34.1740 N.3   258  GLY258     -0.1225
     71  CA       105.3000  281.1270   33.5020 C.3   258  GLY258      0.1811
     72  C        106.4390  281.6930   34.3400 C.2   258  GLY258      0.2280
     73  O        107.1320  282.6060   33.8900 O.2   258  GLY258     -0.2866
     74  N        111.0260  281.9950   33.3420 N.3   261  PHE261     -0.1241
     75  CA       111.3420  282.5020   32.0100 C.3   261  PHE261      0.1605
     76  C        111.9920  283.8790   32.0860 C.2   261  PHE261      0.2264
     77  O        112.3860  284.4470   31.0670 O.2   261  PHE261     -0.2867
     78  CB       110.0840  282.5680   31.1430 C.3   261  PHE261      0.0534
     79  CG       109.5620  281.2250   30.7290 C.ar  261  PHE261     -0.0203
     80  CD1      110.1130  280.5560   29.6490 C.ar  261  PHE261     -0.0042
     81  CD2      108.5140  280.6340   31.4140 C.ar  261  PHE261     -0.0042
     82  CE1      109.6330  279.3190   29.2620 C.ar  261  PHE261     -0.0003
     83  CE2      108.0280  279.3980   31.0340 C.ar  261  PHE261     -0.0003
     84  CZ       108.5880  278.7390   29.9560 C.ar  261  PHE261     -0.0000
     85  N        101.6880  286.5330   25.1050 N.3   357  SER357     -0.1202
     86  CA       102.5230  285.5710   25.8110 C.3   357  SER357      0.2020
     87  C        103.9350  285.5870   25.2390 C.2   357  SER357      0.2619
     88  O        104.9170  285.4940   25.9760 O.2   357  SER357     -0.2717
     89  CB       101.9300  284.1650   25.7170 C.3   357  SER357      0.2103
     90  OG       100.6270  284.1210   26.2690 O.3   357  SER357     -0.2182
     91  N        104.0290  285.7090   23.9190 N.am  358  SER358     -0.1951
     92  CA       105.3200  285.7750   23.2460 C.3   358  SER358      0.1924
     93  C        106.0200  287.0950   23.5550 C.2   358  SER358      0.2314
     94  O        107.2480  287.1560   23.6170 O.2   358  SER358     -0.2863
     95  CB       105.1460  285.6100   21.7340 C.3   358  SER358      0.2116
     96  OG       106.3980  285.4730   21.0840 O.3   358  SER358     -0.2180
     97  N        108.1020  286.7980   26.5890 N.3   361  GLY361     -0.1210
     98  CA       109.2810  286.0170   26.2660 C.3   361  GLY361      0.1956
     99  C        110.3580  286.8560   25.6080 C.2   361  GLY361      0.2611
    100  O        111.5290  286.7820   25.9810 O.2   361  GLY361     -0.2717
    101  N        109.9560  287.6640   24.6320 N.am  362  MET362     -0.1979
    102  CA       110.8840  288.5450   23.9330 C.3   362  MET362      0.1605
    103  C        111.4330  289.6060   24.8770 C.2   362  MET362      0.2287
    104  O        112.6410  289.8370   24.9320 O.2   362  MET362     -0.2864
    105  CB       110.2010  289.2130   22.7380 C.3   362  MET362      0.0413
    106  CG       109.5480  288.2540   21.7520 C.3   362  MET362      0.0598
    107  SD       110.6970  287.0900   20.9930 S.3   362  MET362     -0.1393
    108  CE       110.7590  285.8040   22.2410 C.3   362  MET362      0.0692
@<TRIPOS>BOND
     1    40    39    2
     2    44    43    2
     3    43    42    1
     4    41    42    1
     5    39    38    1
     6    42    45    1
     7    38    37    1
     8   107   106    1
     9   107   108    1
    10    96    95    1
    11    45    46    1
    12    33    32    2
    13    48    46   ar
    14    48    50   ar
    15    95    92    1
    16   106   105    1
    17    37    32   am
    18    46    47   ar
    19    32    31    1
    20    50    51   ar
    21    47    49   ar
    22   105   102    1
    23    31    30    1
    24    31    34    1
    25    92    93    1
    26    92    91    1
    27    51    49   ar
    28    51    52    1
    29    93    94    2
    30    91    87   am
    31   102   101    1
    32   102   103    1
    33    35    34    1
    34    28    27    2
    35    34    36    1
    36   101    99   am
    37   103   104    2
    38    85    86    1
    39    27    26    1
    40    87    86    1
    41    87    88    2
    42    99   100    2
    43    99    98    1
    44    89    86    1
    45    89    90    1
    46    19    18    1
    47    19    20    2
    48    98    97    1
    49    26    25    1
    50    26    29    1
    51    18    21    1
    52    18    17    1
    53    21    22    1
    54    24    22   ar
    55    22    23   ar
    56    63    62   ar
    57    63    61   ar
    58    62    60   ar
    59    61    59   ar
    60     7     9   ar
    61     7     6   ar
    62     2     1    1
    63     2     5    1
    64     2     3    1
    65    82    80   ar
    66    82    84   ar
    67    60    58   ar
    68     4     3    2
    69     9    11   ar
    70    80    79   ar
    71     5     6    1
    72    59    58   ar
    73     3    12   am
    74    84    83   ar
    75     6     8   ar
    76    58    57    1
    77    11    10   ar
    78    79    78    1
    79    79    81   ar
    80    12    13    1
    81    83    81   ar
    82    77    76    2
    83    14    15    2
    84    14    13    1
    85    78    75    1
    86     8    10   ar
    87    56    55    2
    88    57    54    1
    89    13    16    1
    90    75    76    1
    91    75    74    1
    92    55    54    1
    93    55    64   am
    94    54    53    1
    95    67    66    2
    96    65    64    1
    97    65    66    1
    98    65    68    1
    99    69    68    1
   100    71    70    1
   101    71    72    1
   102    73    72    2
