@<TRIPOS>MOLECULE
tmp/4xptA06.pdb
 159 153 0 0 0
SMALL
GASTEIGER

@<TRIPOS>ATOM
      1  N         95.6860  272.3620   27.2380 N.3    28  ARG28      -0.1245
      2  CA        95.9100  271.2820   28.1970 C.3    28  ARG28       0.1563
      3  C         94.8870  271.2160   29.3260 C.2    28  ARG28       0.2260
      4  O         94.1790  270.2180   29.4570 O.2    28  ARG28      -0.2867
      5  CB        97.3170  271.3900   28.7910 C.3    28  ARG28       0.0307
      6  CG        98.4140  270.9120   27.8530 C.3    28  ARG28       0.0489
      7  CD        99.7560  270.8350   28.5580 C.3    28  ARG28       0.2205
      8  NE        99.6720  270.0910   29.8110 N.pl3  28  ARG28      -0.0865
      9  CZ       100.7220  269.7530   30.5520 C.cat  28  ARG28       0.5346
     10  NH1      101.9460  270.0870   30.1660 N.pl3  28  ARG28       0.1354
     11  NH2      100.5480  269.0770   31.6790 N.pl3  28  ARG28       0.1354
     12  N        101.7580  260.4660   38.1360 N.3   244  GLU244     -0.1245
     13  CA       101.8820  261.3500   36.9810 C.3   244  GLU244      0.1567
     14  C        100.9200  262.5350   37.0380 C.2   244  GLU244      0.2260
     15  O        101.2100  263.6020   36.4990 O.2   244  GLU244     -0.2867
     16  CB       101.6550  260.5630   35.6880 C.3   244  GLU244      0.0388
     17  CG       102.8050  259.6510   35.2500 C.3   244  GLU244      0.1160
     18  CD       102.7550  258.2930   35.8480 C.2   244  GLU244      0.3649
     19  OE1      101.8990  258.0400   36.7000 O.co2 244  GLU244     -0.2457
     20  OE2      103.5470  257.4710   35.4650 O.co2 244  GLU244     -0.2457
     21  N        102.6100  265.3620   38.7710 N.3   247  VAL247     -0.1231
     22  CA       103.6850  265.9810   38.0030 C.3   247  VAL247      0.1692
     23  C        103.1130  266.8010   36.8500 C.2   247  VAL247      0.2592
     24  O        103.7170  267.7830   36.4160 O.2   247  VAL247     -0.2718
     25  CB       104.6730  264.9340   37.4490 C.3   247  VAL247      0.0266
     26  CG1      104.0770  264.2200   36.2480 C.3   247  VAL247      0.0020
     27  CG2      105.9890  265.5960   37.0740 C.3   247  VAL247      0.0020
     28  N        101.9470  266.3930   36.3590 N.am  248  ASP248     -0.1974
     29  CA       101.2550  267.1400   35.3160 C.3   248  ASP248      0.1709
     30  C        100.6830  268.4310   35.8840 C.2   248  ASP248      0.2293
     31  O        100.8570  269.5030   35.3070 O.2   248  ASP248     -0.2864
     32  CB       100.1420  266.2980   34.6880 C.3   248  ASP248      0.1436
     33  CG       100.6770  265.2120   33.7760 C.2   248  ASP248      0.3671
     34  OD1      101.8350  265.3330   33.3230 O.co2 248  ASP248     -0.2456
     35  OD2       99.9390  264.2400   33.5080 O.co2 248  ASP248     -0.2456
     36  N        103.7230  270.5970   36.4750 N.3   251  THR251     -0.1218
     37  CA       104.2850  271.1260   35.2370 C.3   251  THR251      0.1862
     38  C        103.3030  272.0600   34.5320 C.2   251  THR251      0.2287
     39  O        103.7100  273.0030   33.8530 O.2   251  THR251     -0.2866
     40  CB       104.6920  269.9960   34.2720 C.3   251  THR251      0.1770
     41  OG1      105.4640  270.5400   33.1940 O.3   251  THR251     -0.2211
     42  CG2      103.4620  269.2970   33.7130 C.3   251  THR251      0.0375
     43  N         94.7800  267.2950   23.5170 N.3   320  GLU320     -0.1245
     44  CA        95.5390  268.4860   23.8740 C.3   320  GLU320      0.1567
     45  C         96.3220  268.9980   22.6700 C.2   320  GLU320      0.2260
     46  O         96.2300  268.4420   21.5760 O.2   320  GLU320     -0.2867
     47  CB        96.4920  268.1940   25.0340 C.3   320  GLU320      0.0388
     48  CG        97.5320  267.1320   24.7190 C.3   320  GLU320      0.1160
     49  CD        98.5210  266.9340   25.8490 C.2   320  GLU320      0.3649
     50  OE1       98.5800  267.8010   26.7470 O.co2 320  GLU320     -0.2457
     51  OE2       99.2400  265.9120   25.8380 O.co2 320  GLU320     -0.2457
     52  N        109.0590  271.9870   21.2500 N.3   411  ASP411     -0.1225
     53  CA       107.8980  271.9020   22.1290 C.3   411  ASP411      0.1805
     54  C        108.1640  270.9080   23.2540 C.2   411  ASP411      0.2598
     55  O        107.6380  271.0390   24.3600 O.2   411  ASP411     -0.2718
     56  CB       106.6540  271.4950   21.3370 C.3   411  ASP411      0.1424
     57  CG       105.4650  271.1930   22.2280 C.2   411  ASP411      0.3668
     58  OD1      105.2260  271.9560   23.1880 O.co2 411  ASP411     -0.2456
     59  OD2      104.7710  270.1870   21.9690 O.co2 411  ASP411     -0.2456
     60  N        108.9970  269.9170   22.9560 N.am  412  ARG412     -0.1966
     61  CA       109.3830  268.9030   23.9250 C.3   412  ARG412      0.1729
     62  C        110.5960  269.3390   24.7410 C.2   412  ARG412      0.2616
     63  O        110.4880  269.6300   25.9320 O.2   412  ARG412     -0.2715
     64  CB       109.6840  267.5840   23.2100 C.3   412  ARG412      0.0348
     65  CG       110.1710  266.4660   24.1160 C.3   412  ARG412      0.0492
     66  CD       109.0260  265.5780   24.5700 C.3   412  ARG412      0.2205
     67  NE       109.5040  264.2980   25.0840 N.pl3 412  ARG412     -0.0865
     68  CZ       108.7430  263.2180   25.2240 C.cat 412  ARG412      0.5346
     69  NH1      107.4620  263.2580   24.8820 N.pl3 412  ARG412      0.1354
     70  NH2      109.2630  262.0950   25.6990 N.pl3 412  ARG412      0.1354
     71  N        111.7490  269.3850   24.0820 N.am  413  TYR413     -0.1974
     72  CA       113.0280  269.5960   24.7540 C.3   413  TYR413      0.1639
     73  C        113.3450  271.0450   25.1200 C.2   413  TYR413      0.2290
     74  O        113.9200  271.2920   26.1790 O.2   413  TYR413     -0.2864
     75  CB       114.1630  269.0450   23.8870 C.3   413  TYR413      0.0560
     76  CG       114.2090  267.5360   23.8340 C.ar  413  TYR413     -0.0198
     77  CD1      114.7690  266.8040   24.8710 C.ar  413  TYR413     -0.0009
     78  CD2      113.6900  266.8430   22.7490 C.ar  413  TYR413     -0.0009
     79  CE1      114.8130  265.4240   24.8290 C.ar  413  TYR413      0.0417
     80  CE2      113.7290  265.4630   22.6980 C.ar  413  TYR413      0.0417
     81  CZ       114.2920  264.7580   23.7400 C.ar  413  TYR413      0.1957
     82  OH       114.3360  263.3830   23.6950 O.3   413  TYR413     -0.2866
     83  N        112.0400  274.1620   26.1910 N.3   415  ALA415     -0.1231
     84  CA       111.8040  274.4520   27.5960 C.3   415  ALA415      0.1694
     85  C        110.8300  273.4650   28.2300 C.2   415  ALA415      0.2593
     86  O        109.6310  273.4880   27.9510 O.2   415  ALA415     -0.2718
     87  CB       111.2910  275.8750   27.7600 C.3   415  ALA415      0.0304
     88  N        111.3610  272.6050   29.0910 N.am  416  GLY416     -0.1942
     89  CA       110.5720  271.9270   30.1010 C.3   416  GLY416      0.2014
     90  C        111.5060  271.1820   31.0310 C.2   416  GLY416      0.2638
     91  O        112.5930  270.7660   30.6290 O.2   416  GLY416     -0.2714
     92  N        111.0770  271.0120   32.2770 N.am  417  TYR417     -0.1973
     93  CA       111.8280  270.2840   33.3010 C.3   417  TYR417      0.1639
     94  C        113.1360  270.9980   33.6440 C.2   417  TYR417      0.2290
     95  O        113.7600  270.7190   34.6680 O.2   417  TYR417     -0.2864
     96  CB       112.1260  268.8520   32.8500 C.3   417  TYR417      0.0560
     97  CG       111.0050  267.8700   33.1020 C.ar  417  TYR417     -0.0198
     98  CD1      109.6780  268.2760   33.0860 C.ar  417  TYR417     -0.0009
     99  CD2      111.2780  266.5370   33.3740 C.ar  417  TYR417     -0.0009
    100  CE1      108.6520  267.3760   33.3210 C.ar  417  TYR417      0.0417
    101  CE2      110.2630  265.6340   33.6140 C.ar  417  TYR417      0.0417
    102  CZ       108.9510  266.0560   33.5850 C.ar  417  TYR417      0.1957
    103  OH       107.9390  265.1530   33.8220 O.3   417  TYR417     -0.2866
    104  N        109.8930  262.7820   36.7110 N.3   474  GLY474     -0.1210
    105  CA       109.6440  263.0150   35.3030 C.3   474  GLY474      0.1956
    106  C        110.7200  262.3640   34.4570 C.2   474  GLY474      0.2611
    107  O        110.4960  262.0260   33.2950 O.2   474  GLY474     -0.2717
    108  N        111.8960  262.1900   35.0510 N.am  475  LEU475     -0.1979
    109  CA       113.0230  261.5690   34.3660 C.3   475  LEU475      0.1596
    110  C        112.9090  260.0470   34.3630 C.2   475  LEU475      0.2287
    111  O        113.5270  259.3720   33.5400 O.2   475  LEU475     -0.2864
    112  CB       114.3400  261.9940   35.0170 C.3   475  LEU475      0.0297
    113  CG       114.5580  263.4990   35.1870 C.3   475  LEU475      0.0022
    114  CD1      115.9480  263.7790   35.7360 C.3   475  LEU475      0.0001
    115  CD2      114.3410  264.2250   33.8710 C.3   475  LEU475      0.0001
    116  N        109.9440  258.4140   34.0210 N.3   477  GLY477     -0.1210
    117  CA       108.9410  258.0890   33.0250 C.3   477  GLY477      0.1956
    118  C        109.3100  258.5750   31.6370 C.2   477  GLY477      0.2612
    119  O        108.4400  258.7550   30.7840 O.2   477  GLY477     -0.2717
    120  N        110.6020  258.7880   31.4050 N.am  478  TYR478     -0.1962
    121  CA       111.0510  259.4080   30.1630 C.3   478  TYR478      0.1771
    122  C        110.9820  258.4660   28.9650 C.2   478  TYR478      0.2619
    123  O        111.5930  257.3970   28.9530 O.2   478  TYR478     -0.2715
    124  CB       112.4830  259.9270   30.3190 C.3   478  TYR478      0.0574
    125  CG       113.1770  260.2030   29.0040 C.ar  478  TYR478     -0.0198
    126  CD1      112.9070  261.3570   28.2830 C.ar  478  TYR478     -0.0009
    127  CD2      114.1040  259.3080   28.4850 C.ar  478  TYR478     -0.0009
    128  CE1      113.5400  261.6130   27.0800 C.ar  478  TYR478      0.0417
    129  CE2      114.7410  259.5550   27.2830 C.ar  478  TYR478      0.0417
    130  CZ       114.4560  260.7080   26.5850 C.ar  478  TYR478      0.1957
    131  OH       115.0900  260.9560   25.3890 O.3   478  TYR478     -0.2866
    132  N        110.2220  258.8890   27.9600 N.am  479  GLU479     -0.1977
    133  CA       110.1200  258.1960   26.6820 C.3   479  GLU479      0.1602
    134  C        110.9550  258.8970   25.6180 C.2   479  GLU479      0.2287
    135  O        110.8670  260.1170   25.4720 O.2   479  GLU479     -0.2864
    136  CB       108.6630  258.1170   26.2270 C.3   479  GLU479      0.0415
    137  CG       107.7120  257.5330   27.2550 C.3   479  GLU479      0.1163
    138  CD       106.2630  257.8540   26.9450 C.2   479  GLU479      0.3649
    139  OE1      105.4000  256.9730   27.1400 O.co2 479  GLU479     -0.2457
    140  OE2      105.9870  258.9910   26.5080 O.co2 479  GLU479     -0.2457
    141  N        118.3710  267.3680   24.0830 N.3   497  TRP497     -0.1241
    142  CA       118.9700  267.3720   25.4140 C.3   497  TRP497      0.1605
    143  C        120.0000  268.4860   25.5500 C.2   497  TRP497      0.2264
    144  O        120.1230  269.1010   26.6090 O.2   497  TRP497     -0.2867
    145  CB       119.6130  266.0180   25.7200 C.3   497  TRP497      0.0550
    146  CG       118.6450  265.0020   26.2400 C.ar  497  TRP497      0.0003
    147  CD1      118.1210  263.9430   25.5580 C.ar  497  TRP497      0.0946
    148  CD2      118.0790  264.9510   27.5540 C.ar  497  TRP497      0.0152
    149  NE1      117.2660  263.2340   26.3670 N.ar  497  TRP497     -0.2442
    150  CE2      117.2230  263.8330   27.5980 C.ar  497  TRP497      0.0810
    151  CE3      118.2150  265.7420   28.6990 C.ar  497  TRP497      0.0012
    152  CZ2      116.5060  263.4860   28.7410 C.ar  497  TRP497      0.0191
    153  CZ3      117.5020  265.3960   29.8320 C.ar  497  TRP497      0.0001
    154  CH2      116.6590  264.2780   29.8450 C.ar  497  TRP497      0.0015
    155  N        117.9410  271.5970   26.0880 N.3   500  ALA500     -0.1245
    156  CA       117.3800  271.6410   27.4320 C.3   500  ALA500      0.1562
    157  C        118.4690  271.8550   28.4760 C.2   500  ALA500      0.2260
    158  O        118.2430  272.5000   29.5000 O.2   500  ALA500     -0.2867
    159  CB       116.6080  270.3650   27.7270 C.3   500  ALA500      0.0290
@<TRIPOS>BOND
     1    52    53    1
     2    56    53    1
     3    56    57    1
     4    46    45    2
     5    59    57   ar
     6    53    54    1
     7    57    58   ar
     8    45    44    1
     9    80    78   ar
    10    80    81   ar
    11    78    76   ar
    12    60    54   am
    13    60    61    1
    14    64    61    1
    15    64    65    1
    16    54    55    2
    17    43    44    1
    18    82    81    1
    19    81    79   ar
    20    76    75    1
    21    76    77   ar
    22    44    47    1
    23    75    72    1
    24    61    62    1
    25    71    62   am
    26    71    72    1
    27   141   142    1
    28    65    66    1
    29    66    67    1
    30    48    47    1
    31    48    49    1
    32    62    63    2
    33    72    73    1
    34    79    77   ar
    35    69    68    1
    36    67    68    2
    37    73    74    2
    38    68    70    1
    39   131   130    1
    40   142   143    1
    41   142   145    1
    42   135   134    2
    43   143   144    2
    44   147   146   ar
    45   147   149   ar
    46   134   133    1
    47   145   146    1
    48    51    49   ar
    49    49    50   ar
    50   155   156    1
    51    83    84    1
    52   136   133    1
    53   136   137    1
    54   146   148   ar
    55   149   150   ar
    56   140   138   ar
    57   130   128   ar
    58   130   129   ar
    59   133   132    1
    60   138   139   ar
    61   138   137    1
    62   128   126   ar
    63     1     2    1
    64   129   127   ar
    65   156   159    1
    66   156   157    1
    67   148   150   ar
    68   148   151   ar
    69    84    87    1
    70    84    85    1
    71   150   152   ar
    72     6     7    1
    73     6     5    1
    74    86    85    2
    75   132   122   am
    76     2     5    1
    77     2     3    1
    78    85    88   am
    79   126   125   ar
    80   157   158    2
    81   127   125   ar
    82     7     8    1
    83   151   153   ar
    84   152   154   ar
    85   123   122    2
    86   122   121    1
    87   125   124    1
    88    88    89    1
    89     3     4    2
    90     8     9    2
    91   153   154   ar
    92    89    90    1
    93   121   124    1
    94   121   120    1
    95    10     9    1
    96     9    11    1
    97    91    90    2
    98   119   118    2
    99    90    92   am
   100   120   118   am
   101   118   117    1
   102    92    93    1
   103    96    97    1
   104    96    93    1
   105   117   116    1
   106    98    97   ar
   107    98   100   ar
   108    97    99   ar
   109    41    40    1
   110   107   106    2
   111    93    94    1
   112   100   102   ar
   113    34    33   ar
   114    99   101   ar
   115    35    33   ar
   116   111   110    2
   117   102   101   ar
   118   102   103    1
   119    94    95    2
   120    42    40    1
   121    33    32    1
   122    39    38    2
   123   115   113    1
   124    40    37    1
   125   110   109    1
   126   109   112    1
   127   109   108    1
   128   106   108   am
   129   106   105    1
   130    38    37    1
   131    32    29    1
   132   112   113    1
   133   113   114    1
   134    37    36    1
   135    17    16    1
   136    17    18    1
   137   105   104    1
   138    31    30    2
   139    29    30    1
   140    29    28    1
   141    20    18   ar
   142    16    13    1
   143    18    19   ar
   144    26    25    1
   145    28    23   am
   146    24    23    2
   147    15    14    2
   148    23    22    1
   149    13    14    1
   150    13    12    1
   151    27    25    1
   152    25    22    1
   153    22    21    1
