@<TRIPOS>MOLECULE
tmp/4xq0A02.pdb
 112 109 0 0 0
SMALL
GASTEIGER

@<TRIPOS>ATOM
      1  N         29.5840    4.8680   36.3580 N.3   160  ILE160     -0.1231
      2  CA        30.3780    4.7180   37.5770 C.3   160  ILE160      0.1692
      3  C         29.5540    3.8940   38.5630 C.2   160  ILE160      0.2592
      4  O         28.6060    4.4000   39.1840 O.2   160  ILE160     -0.2718
      5  CB        30.7420    6.0650   38.2450 C.3   160  ILE160      0.0266
      6  CG1       31.4330    7.0170   37.2490 C.3   160  ILE160      0.0019
      7  CG2       31.5800    5.8110   39.5140 C.3   160  ILE160      0.0020
      8  CD1       32.7550    6.5320   36.7280 C.3   160  ILE160      0.0001
      9  N         29.9200    2.6320   38.7080 N.am  161  LYS161     -0.1966
     10  CA        29.1950    1.7380   39.5840 C.3   161  LYS161      0.1728
     11  C         29.5740    2.1050   41.0090 C.2   161  LYS161      0.2616
     12  O         30.7580    2.2680   41.3080 O.2   161  LYS161     -0.2715
     13  CB        29.5300    0.2810   39.2850 C.3   161  LYS161      0.0311
     14  CG        28.6750   -0.7260   40.0750 C.3   161  LYS161      0.0038
     15  CD        29.4130   -2.0220   40.2610 C.3   161  LYS161      0.0206
     16  CE        28.5970   -3.0290   41.0600 C.3   161  LYS161      0.1093
     17  NZ        28.4030   -2.5660   42.4460 N.3   161  LYS161     -0.1314
     18  N         28.5830    2.2730   41.8710 N.am  162  VAL162     -0.1963
     19  CA        28.8520    2.6060   43.2650 C.3   162  VAL162      0.1727
     20  C         28.6210    1.3660   44.1450 C.2   162  VAL162      0.2616
     21  O         27.9300    0.4240   43.7550 O.2   162  VAL162     -0.2715
     22  CB        27.9810    3.8030   43.7360 C.3   162  VAL162      0.0290
     23  CG1       28.1370    5.0080   42.7830 C.3   162  VAL162      0.0023
     24  CG2       26.5400    3.4230   43.8360 C.3   162  VAL162      0.0023
     25  N         29.2310    1.3680   45.3190 N.am  163  VAL163     -0.1977
     26  CA        28.9350    0.3680   46.3470 C.3   163  VAL163      0.1596
     27  C         27.4600    0.4570   46.7700 C.2   163  VAL163      0.2287
     28  O         26.9950    1.5320   47.1670 O.2   163  VAL163     -0.2864
     29  CB        29.8180    0.5700   47.5740 C.3   163  VAL163      0.0276
     30  CG1       29.4210   -0.3980   48.6930 C.3   163  VAL163      0.0022
     31  CG2       31.2760    0.4110   47.2070 C.3   163  VAL163      0.0022
     32  N         30.9300    6.5640   51.0600 N.3   228  GLU228     -0.1245
     33  CA        31.0270    6.3500   49.6130 C.3   228  GLU228      0.1567
     34  C         30.8780    7.6590   48.8310 C.2   228  GLU228      0.2260
     35  O         31.5150    7.8410   47.7930 O.2   228  GLU228     -0.2867
     36  CB        29.9790    5.3360   49.1540 C.3   228  GLU228      0.0388
     37  CG        29.9430    5.0570   47.6460 C.3   228  GLU228      0.1160
     38  CD        31.0650    4.1210   47.1560 C.2   228  GLU228      0.3649
     39  OE1       31.9550    3.7130   47.9580 O.co2 228  GLU228     -0.2457
     40  OE2       31.0290    3.7800   45.9530 O.co2 228  GLU228     -0.2457
     41  N         34.0790    9.6330   48.4300 N.3   231  ARG231     -0.1231
     42  CA        34.9350    9.0430   47.3970 C.3   231  ARG231      0.1694
     43  C         34.4080    9.4000   46.0150 C.2   231  ARG231      0.2591
     44  O         35.1480    9.7790   45.1000 O.2   231  ARG231     -0.2718
     45  CB        34.9880    7.5200   47.5220 C.3   231  ARG231      0.0321
     46  CG        35.5580    6.9670   48.8120 C.3   231  ARG231      0.0489
     47  CD        35.4610    5.4550   48.7700 C.3   231  ARG231      0.2205
     48  NE        36.0310    4.8080   49.9420 N.pl3 231  ARG231     -0.0865
     49  CZ        35.9270    3.5070   50.1890 C.cat 231  ARG231      0.5346
     50  NH1       35.2700    2.7210   49.3430 N.pl3 231  ARG231      0.1354
     51  NH2       36.4730    2.9900   51.2810 N.pl3 231  ARG231      0.1354
     52  N         33.1060    9.2360   45.8650 N.am  232  LEU232     -0.1980
     53  CA        32.4770    9.4240   44.5870 C.3   232  LEU232      0.1596
     54  C         32.6300   10.8870   44.1390 C.2   232  LEU232      0.2287
     55  O         32.8040   11.1530   42.9540 O.2   232  LEU232     -0.2864
     56  CB        31.0140    9.0190   44.6610 C.3   232  LEU232      0.0297
     57  CG        30.1720    9.1060   43.3960 C.3   232  LEU232      0.0022
     58  CD1       30.7910    8.2320   42.3330 C.3   232  LEU232      0.0001
     59  CD2       28.7680    8.6420   43.7260 C.3   232  LEU232      0.0001
     60  N         35.1300   12.8670   44.5480 N.3   234  LYS234     -0.1231
     61  CA        36.4390   13.0570   43.9540 C.3   234  LYS234      0.1693
     62  C         36.4950   12.4960   42.5230 C.2   234  LYS234      0.2591
     63  O         37.0830   13.1190   41.6360 O.2   234  LYS234     -0.2718
     64  CB        37.5110   12.4140   44.8280 C.3   234  LYS234      0.0285
     65  CG        37.5370   13.0110   46.2280 C.3   234  LYS234      0.0035
     66  CD        38.5240   12.3230   47.1490 C.3   234  LYS234      0.0206
     67  CE        38.5140   12.9890   48.5170 C.3   234  LYS234      0.1093
     68  NZ        39.5380   12.4190   49.4280 N.3   234  LYS234     -0.1314
     69  N         35.8930   11.3340   42.3020 N.am  235  VAL235     -0.1980
     70  CA        35.8860   10.7110   40.9700 C.3   235  VAL235      0.1595
     71  C         35.1400   11.5930   39.9590 C.2   235  VAL235      0.2287
     72  O         35.6120   11.8170   38.8530 O.2   235  VAL235     -0.2864
     73  CB        35.2400    9.2960   40.9970 C.3   235  VAL235      0.0276
     74  CG1       35.0980    8.7310   39.5750 C.3   235  VAL235      0.0022
     75  CG2       36.0760    8.3460   41.8380 C.3   235  VAL235      0.0022
     76  N         37.7030   -3.3200   43.1830 N.3   349  LEU349     -0.1231
     77  CA        36.9110   -2.6340   42.1640 C.3   349  LEU349      0.1693
     78  C         36.0840   -1.5070   42.7820 C.2   349  LEU349      0.2593
     79  O         35.9350   -0.4380   42.1910 O.2   349  LEU349     -0.2718
     80  CB        35.9860   -3.6020   41.4400 C.3   349  LEU349      0.0284
     81  CG        36.6620   -4.7130   40.6180 C.3   349  LEU349      0.0019
     82  CD1       35.6500   -5.7190   40.0970 C.3   349  LEU349      0.0001
     83  CD2       37.4400   -4.1540   39.4880 C.3   349  LEU349      0.0001
     84  N         35.5480   -1.7580   43.9710 N.am  350  SER350     -0.1938
     85  CA        34.7340   -0.7760   44.6740 C.3   350  SER350      0.2055
     86  C         35.5340    0.4690   45.0510 C.2   350  SER350      0.2643
     87  O         35.0200    1.5880   45.0220 O.2   350  SER350     -0.2714
     88  CB        34.1360   -1.3930   45.9350 C.3   350  SER350      0.2130
     89  OG        33.1600   -2.3740   45.6140 O.3   350  SER350     -0.2179
     90  N         36.7920    0.2700   45.4150 N.am  351  GLN351     -0.1963
     91  CA        37.5990    1.3620   45.9150 C.3   351  GLN351      0.1733
     92  C         38.4750    1.9580   44.8210 C.2   351  GLN351      0.2616
     93  O         39.2200    2.9000   45.0790 O.2   351  GLN351     -0.2715
     94  CB        38.4390    0.8740   47.0930 C.3   351  GLN351      0.0408
     95  CG        37.5620    0.4430   48.2660 C.3   351  GLN351      0.0908
     96  CD        38.3270   -0.1860   49.4140 C.2   351  GLN351      0.2608
     97  OE1       39.4700    0.1800   49.7010 O.2   351  GLN351     -0.2717
     98  NE2       37.6910   -1.1420   50.0860 N.am  351  GLN351     -0.0878
     99  N         38.3510    1.4340   43.5950 N.am  352  TRP352     -0.1974
    100  CA        39.1970    1.8670   42.4810 C.3   352  TRP352      0.1640
    101  C         40.6630    1.7390   42.8650 C.2   352  TRP352      0.2290
    102  O         41.4900    2.5890   42.5300 O.2   352  TRP352     -0.2864
    103  CB        38.8950    3.3170   42.0870 C.3   352  TRP352      0.0576
    104  CG        37.6310    3.5070   41.3620 C.ar  352  TRP352      0.0006
    105  CD1       36.4010    3.0100   41.6880 C.ar  352  TRP352      0.0946
    106  CD2       37.4530    4.2770   40.1730 C.ar  352  TRP352      0.0152
    107  NE1       35.4670    3.4210   40.7650 N.ar  352  TRP352     -0.2442
    108  CE2       36.0880    4.2030   39.8270 C.ar  352  TRP352      0.0810
    109  CE3       38.3150    5.0250   39.3670 C.ar  352  TRP352      0.0012
    110  CZ2       35.5720    4.8450   38.7080 C.ar  352  TRP352      0.0191
    111  CZ3       37.7980    5.6630   38.2600 C.ar  352  TRP352      0.0001
    112  CH2       36.4420    5.5650   37.9360 C.ar  352  TRP352      0.0015
@<TRIPOS>BOND
     1     1     2    1
     2     8     6    1
     3     6     5    1
     4     2     5    1
     5     2     3    1
     6   112   111   ar
     7   112   110   ar
     8     5     7    1
     9   111   109   ar
    10     3     9   am
    11     3     4    2
    12     9    10    1
    13   110   108   ar
    14    72    71    2
    15    13    10    1
    16    13    14    1
    17   109   106   ar
    18    83    81    1
    19    74    73    1
    20    10    11    1
    21   108   106   ar
    22   108   107   ar
    23    71    70    1
    24    14    15    1
    25    82    81    1
    26   106   104   ar
    27    15    16    1
    28    81    80    1
    29   107   105   ar
    30    70    73    1
    31    70    69    1
    32    73    75    1
    33    11    12    2
    34    11    18   am
    35    16    17    1
    36   104   105   ar
    37   104   103    1
    38    80    77    1
    39    63    62    2
    40    18    19    1
    41   103   100    1
    42    77    78    1
    43    77    76    1
    44    79    78    2
    45    69    62   am
    46    58    57    1
    47   100   101    1
    48   100    99    1
    49    62    61    1
    50   102   101    2
    51    78    84   am
    52    23    22    1
    53    55    54    2
    54    19    22    1
    55    19    20    1
    56    57    59    1
    57    57    56    1
    58    99    92   am
    59    22    24    1
    60    21    20    2
    61    61    60    1
    62    61    64    1
    63    84    85    1
    64    54    53    1
    65    20    25   am
    66    53    56    1
    67    53    52    1
    68    85    86    1
    69    85    88    1
    70    92    93    2
    71    92    91    1
    72    64    65    1
    73    87    86    2
    74    86    90   am
    75    44    43    2
    76    25    26    1
    77    90    91    1
    78    89    88    1
    79    52    43   am
    80    91    94    1
    81    40    38   ar
    82    43    42    1
    83    65    66    1
    84    26    27    1
    85    26    29    1
    86    27    28    2
    87    94    95    1
    88    66    67    1
    89    38    37    1
    90    38    39   ar
    91    31    29    1
    92    42    45    1
    93    42    41    1
    94    45    46    1
    95    29    30    1
    96    37    36    1
    97    35    34    2
    98    95    96    1
    99    67    68    1
   100    47    46    1
   101    47    48    1
   102    34    33    1
   103    36    33    1
   104    50    49    1
   105    96    97    2
   106    96    98   am
   107    33    32    1
   108    48    49    2
   109    49    51    1
