@<TRIPOS>MOLECULE
tmp/4xq0A00.pdb
 94 88 0 0 0
SMALL
GASTEIGER

@<TRIPOS>ATOM
      1  N          9.2610   -1.8250   61.9560 N.3    33  THR33      -0.1218
      2  CA        10.2620   -1.7560   63.0170 C.3    33  THR33       0.1862
      3  C         10.9280   -0.3700   63.0440 C.2    33  THR33       0.2287
      4  O         11.2000    0.1740   64.1050 O.2    33  THR33      -0.2866
      5  CB        11.3370   -2.8530   62.8310 C.3    33  THR33       0.1770
      6  OG1       10.7280   -4.1440   62.8250 O.3    33  THR33      -0.2211
      7  CG2       12.3770   -2.8220   63.9360 C.3    33  THR33       0.0375
      8  N          8.9770    2.2570   64.9640 N.3    36  GLU36      -0.1231
      9  CA         9.0090    2.0420   66.3980 C.3    36  GLU36       0.1699
     10  C         10.3260    2.5630   66.9770 C.2    36  GLU36       0.2592
     11  O         10.3340    3.3120   67.9560 O.2    36  GLU36      -0.2718
     12  CB         8.7880    0.5540   66.6890 C.3    36  GLU36       0.0402
     13  CG         7.4600    0.1080   66.0870 C.3    36  GLU36       0.1161
     14  CD         7.1210   -1.3490   66.2960 C.2    36  GLU36       0.3649
     15  OE1        7.8940   -2.0550   66.9820 O.co2  36  GLU36      -0.2457
     16  OE2        6.0640   -1.7750   65.7600 O.co2  36  GLU36      -0.2457
     17  N         11.4400    2.1860   66.3550 N.am   37  TRP37      -0.1976
     18  CA        12.7480    2.6120   66.8290 C.3    37  TRP37       0.1640
     19  C         12.8880    4.1320   66.7790 C.2    37  TRP37       0.2290
     20  O         13.4550    4.7500   67.6940 O.2    37  TRP37      -0.2864
     21  CB        13.8540    1.9650   65.9980 C.3    37  TRP37       0.0576
     22  CG        14.0090    0.5070   66.2620 C.ar   37  TRP37       0.0006
     23  CD1       13.4370   -0.2130   67.2790 C.ar   37  TRP37       0.0946
     24  CD2       14.7810   -0.4200   65.4930 C.ar   37  TRP37       0.0152
     25  NE1       13.8180   -1.5380   67.1860 N.ar   37  TRP37      -0.2442
     26  CE2       14.6450   -1.6840   66.0980 C.ar   37  TRP37       0.0810
     27  CE3       15.5830   -0.2990   64.3430 C.ar   37  TRP37       0.0012
     28  CZ2       15.2720   -2.8260   65.5860 C.ar   37  TRP37       0.0191
     29  CZ3       16.2040   -1.4380   63.8380 C.ar   37  TRP37       0.0001
     30  CH2       16.0450   -2.6820   64.4660 C.ar   37  TRP37       0.0015
     31  N         11.4400    6.1310   69.6480 N.3    40  ASP40      -0.1239
     32  CA        12.0080    5.8290   70.9760 C.3    40  ASP40       0.1674
     33  C         13.4350    6.3680   71.1680 C.2    40  ASP40       0.2266
     34  O         14.4060    5.7010   70.8050 O.2    40  ASP40      -0.2867
     35  CB        12.0130    4.3160   71.2150 C.3    40  ASP40       0.1410
     36  CG        12.5880    3.9450   72.5860 C.2    40  ASP40       0.3668
     37  OD1       12.7080    4.8250   73.4630 O.co2  40  ASP40      -0.2456
     38  OD2       12.9210    2.7720   72.7830 O.co2  40  ASP40      -0.2456
     39  N         16.1080    3.9740   72.3480 N.3    43  ASN43      -0.1225
     40  CA        16.4820    2.7990   71.5550 C.3    43  ASN43       0.1785
     41  C         17.9320    2.8580   71.1050 C.2    43  ASN43       0.2597
     42  O         18.4270    3.9200   70.7340 O.2    43  ASN43      -0.2718
     43  CB        15.5820    2.6660   70.3300 C.3    43  ASN43       0.1169
     44  CG        15.6300    1.2750   69.7280 C.2    43  ASN43       0.2627
     45  OD1       16.4940    0.9730   68.9180 O.2    43  ASN43      -0.2716
     46  ND2       14.7100    0.4150   70.1440 N.am   43  ASN43      -0.0877
     47  N         18.6090    1.7160   71.1260 N.am   44  VAL44      -0.1980
     48  CA        19.9930    1.6400   70.6520 C.3    44  VAL44       0.1595
     49  C         20.1650    2.1330   69.1900 C.2    44  VAL44       0.2287
     50  O         21.2370    2.6260   68.8290 O.2    44  VAL44      -0.2864
     51  CB        20.5380    0.2010   70.7710 C.3    44  VAL44       0.0276
     52  CG1       20.6520   -0.2120   72.2540 C.3    44  VAL44       0.0022
     53  CG2       19.6720   -0.7880   70.0010 C.3    44  VAL44       0.0022
     54  N          9.1640   -8.5440   59.5040 N.3   204  ARG204     -0.1245
     55  CA        10.0080   -7.6180   60.2720 C.3   204  ARG204      0.1563
     56  C         11.4650   -8.0650   60.3850 C.2   204  ARG204      0.2260
     57  O         11.9760   -8.2840   61.4840 O.2   204  ARG204     -0.2867
     58  CB         9.4240   -7.4150   61.6640 C.3   204  ARG204      0.0307
     59  CG         8.0090   -6.9050   61.6300 C.3   204  ARG204      0.0489
     60  CD         7.5880   -6.3570   62.9480 C.3   204  ARG204      0.2205
     61  NE         6.2260   -5.8490   62.8820 N.pl3 204  ARG204     -0.0865
     62  CZ         5.7890   -4.7540   63.5020 C.cat 204  ARG204      0.5346
     63  NH1        6.5970   -4.0390   64.2600 N.pl3 204  ARG204      0.1354
     64  NH2        4.5330   -4.3740   63.3660 N.pl3 204  ARG204      0.1354
     65  N         13.7210   -6.3210   63.0440 N.3   207  ALA207     -0.1245
     66  CA        13.4460   -6.7480   64.4010 C.3   207  ALA207      0.1562
     67  C         14.0880   -8.1160   64.6830 C.2   207  ALA207      0.2260
     68  O         14.7260   -8.3070   65.7250 O.2   207  ALA207     -0.2867
     69  CB        11.9520   -6.7970   64.6370 C.3   207  ALA207      0.0290
     70  N         17.8810   -7.7110   64.9310 N.3   210  GLN210     -0.1231
     71  CA        18.2600   -6.9500   66.1190 C.3   210  GLN210      0.1698
     72  C         18.0730   -7.8040   67.3790 C.2   210  GLN210      0.2592
     73  O         18.8920   -7.7740   68.2950 O.2   210  GLN210     -0.2718
     74  CB        17.4420   -5.6570   66.2290 C.3   210  GLN210      0.0381
     75  CG        17.7180   -4.8490   67.4950 C.3   210  GLN210      0.0905
     76  CD        19.1570   -4.3800   67.6100 C.2   210  GLN210      0.2608
     77  OE1       19.4890   -3.2460   67.2410 O.2   210  GLN210     -0.2717
     78  NE2       20.0160   -5.2420   68.1360 N.am  210  GLN210     -0.0878
     79  N         16.9890   -8.5650   67.4070 N.am  211  ASN211     -0.1974
     80  CA        16.7040   -9.4390   68.5340 C.3   211  ASN211      0.1688
     81  C         17.7910  -10.5030   68.6610 C.2   211  ASN211      0.2292
     82  O         18.2580  -10.7870   69.7580 O.2   211  ASN211     -0.2864
     83  CB        15.3330  -10.1170   68.3920 C.3   211  ASN211      0.1181
     84  CG        14.1630   -9.1750   68.6320 C.2   211  ASN211      0.2629
     85  OD1       14.3160   -8.0600   69.1410 O.2   211  ASN211     -0.2716
     86  ND2       12.9650   -9.6530   68.3070 N.am  211  ASN211     -0.0877
     87  N         20.9570   -8.9660   70.1960 N.3   214  LEU214     -0.1245
     88  CA        20.7690   -8.7390   71.6320 C.3   214  LEU214      0.1561
     89  C         20.7100  -10.0250   72.4220 C.2   214  LEU214      0.2260
     90  O         21.0620  -10.0400   73.6020 O.2   214  LEU214     -0.2867
     91  CB        19.4930   -7.9340   71.8680 C.3   214  LEU214      0.0270
     92  CG        19.6030   -6.4800   71.4180 C.3   214  LEU214      0.0019
     93  CD1       18.2250   -5.8170   71.2960 C.3   214  LEU214      0.0001
     94  CD2       20.4470   -5.7220   72.4130 C.3   214  LEU214      0.0001
@<TRIPOS>BOND
     1    54    55    1
     2    55    56    1
     3    55    58    1
     4    56    57    2
     5    59    58    1
     6    59    60    1
     7     1     2    1
     8     6     5    1
     9     5     2    1
    10     5     7    1
    11    61    60    1
    12    61    62    2
    13     2     3    1
    14     3     4    2
    15    65    66    1
    16    64    62    1
    17    62    63    1
    18    29    27   ar
    19    29    30   ar
    20    27    24   ar
    21    66    69    1
    22    66    67    1
    23    30    28   ar
    24    67    68    2
    25    70    71    1
    26     8     9    1
    27    24    26   ar
    28    24    22   ar
    29    28    26   ar
    30    16    14   ar
    31    21    22    1
    32    21    18    1
    33    13    14    1
    34    13    12    1
    35    26    25   ar
    36    71    74    1
    37    71    72    1
    38    74    75    1
    39    22    23   ar
    40    14    15   ar
    41    17    18    1
    42    17    10   am
    43     9    12    1
    44     9    10    1
    45    19    18    1
    46    19    20    2
    47    10    11    2
    48    25    23   ar
    49    77    76    2
    50    72    79   am
    51    72    73    2
    52    79    80    1
    53    75    76    1
    54    76    78   am
    55    86    84   am
    56    83    80    1
    57    83    84    1
    58    80    81    1
    59    84    85    2
    60    81    82    2
    61    50    49    2
    62    45    44    2
    63    49    48    1
    64    31    32    1
    65    44    46   am
    66    44    43    1
    67    53    51    1
    68    87    88    1
    69    43    40    1
    70    48    51    1
    71    48    47    1
    72    42    41    2
    73    51    52    1
    74    34    33    2
    75    32    33    1
    76    32    35    1
    77    41    47   am
    78    41    40    1
    79    35    36    1
    80    93    92    1
    81    92    91    1
    82    92    94    1
    83    40    39    1
    84    88    91    1
    85    88    89    1
    86    89    90    2
    87    36    38   ar
    88    36    37   ar
