@<TRIPOS>MOLECULE
tmp/4xqaB00.pdb
 93 93 0 0 0
SMALL
GASTEIGER

@<TRIPOS>ATOM
      1  N         -4.8000    4.8990  -17.2730 N.3   127  TYR127     -0.1227
      2  CA        -3.9100    4.4230  -16.2170 C.3   127  TYR127      0.1736
      3  C         -4.6870    3.7520  -15.0940 C.2   127  TYR127      0.2596
      4  O         -5.7690    4.2040  -14.7150 O.2   127  TYR127     -0.2718
      5  CB        -3.1440    5.5810  -15.5910 C.3   127  TYR127      0.0548
      6  CG        -1.9560    6.0470  -16.3900 C.ar  127  TYR127     -0.0200
      7  CD1       -0.7280    5.3810  -16.2930 C.ar  127  TYR127     -0.0009
      8  CD2       -2.0260    7.1950  -17.1990 C.ar  127  TYR127     -0.0009
      9  CE1        0.3920    5.8160  -16.9940 C.ar  127  TYR127      0.0417
     10  CE2       -0.9230    7.6160  -17.9080 C.ar  127  TYR127      0.0417
     11  CZ         0.2910    6.9460  -17.7870 C.ar  127  TYR127      0.1957
     12  OH         1.3890    7.3840  -18.4820 O.3   127  TYR127     -0.2866
     13  N         -4.1070    2.6970  -14.5300 N.am  128  GLY128     -0.1942
     14  CA        -4.6150    2.1220  -13.3030 C.3   128  GLY128      0.2014
     15  C         -3.4600    1.6000  -12.4660 C.2   128  GLY128      0.2639
     16  O         -2.3120    1.5500  -12.9200 O.2   128  GLY128     -0.2714
     17  N         -3.7310    1.2700  -11.2140 N.am  129  THR129     -0.1950
     18  CA        -2.7260    0.6430  -10.3520 C.3   129  THR129      0.1897
     19  C         -3.2520   -0.7180   -9.9420 C.2   129  THR129      0.2313
     20  O         -4.4150   -0.8510   -9.5320 O.2   129  THR129     -0.2863
     21  CB        -2.5050    1.5010   -9.0860 C.3   129  THR129      0.1794
     22  OG1       -2.1300    2.8250   -9.4770 O.3   129  THR129     -0.2208
     23  CG2       -1.4000    0.9560   -8.2160 C.3   129  THR129      0.0378
     24  N         -1.8420   -4.5470   -7.7580 N.3   131  TYR131     -0.1241
     25  CA        -1.0150   -4.8300   -6.5820 C.3   131  TYR131      0.1605
     26  C         -0.4310   -6.2290   -6.6830 C.2   131  TYR131      0.2264
     27  O         -1.1700   -7.2220   -6.8700 O.2   131  TYR131     -0.2867
     28  CB        -1.8650   -4.6460   -5.3070 C.3   131  TYR131      0.0534
     29  CG        -2.1940   -3.1880   -5.1590 C.ar  131  TYR131     -0.0201
     30  CD1       -3.3000   -2.6310   -5.8140 C.ar  131  TYR131     -0.0009
     31  CD2       -1.3260   -2.3440   -4.4810 C.ar  131  TYR131     -0.0009
     32  CE1       -3.5680   -1.2600   -5.7420 C.ar  131  TYR131      0.0417
     33  CE2       -1.5730   -0.9610   -4.4040 C.ar  131  TYR131      0.0417
     34  CZ        -2.7020   -0.4420   -5.0350 C.ar  131  TYR131      0.1957
     35  OH        -2.9630    0.9110   -4.9940 O.3   131  TYR131     -0.2866
     36  N         -1.1430   -4.5160   -0.3960 N.3   136  PRO136     -0.2102
     37  CA        -1.4630   -3.1130   -0.6750 C.3   136  PRO136      0.1504
     38  C         -0.2140   -2.2400   -0.7560 C.2   136  PRO136      0.2575
     39  O         -0.2990   -1.1330   -1.3100 O.2   136  PRO136     -0.2718
     40  CB        -2.3680   -2.7310    0.4930 C.3   136  PRO136      0.0282
     41  CG        -1.9890   -3.6420    1.5820 C.3   136  PRO136      0.0208
     42  CD        -1.6870   -4.9500    0.9030 C.3   136  PRO136      0.0893
     43  N          0.9240   -2.6970   -0.2220 N.am  137  ASP137     -0.1974
     44  CA         2.1570   -1.9240   -0.3450 C.3   137  ASP137      0.1708
     45  C          3.0230   -2.3570   -1.5230 C.2   137  ASP137      0.2293
     46  O          4.1970   -1.9880   -1.5930 O.2   137  ASP137     -0.2864
     47  CB         2.9620   -1.9390    0.9600 C.3   137  ASP137      0.1436
     48  CG         3.4230   -3.3380    1.3540 C.2   137  ASP137      0.3671
     49  OD1        2.9620   -4.3280    0.7490 O.co2 137  ASP137     -0.2456
     50  OD2        4.2320   -3.4480    2.3020 O.co2 137  ASP137     -0.2456
     51  N          2.2950   -1.7260   -5.1000 N.3   139  PRO139     -0.2116
     52  CA         1.6860   -1.2420   -6.3410 C.3   139  PRO139      0.1372
     53  C          2.5510   -1.3860   -7.5740 C.2   139  PRO139      0.2244
     54  O          3.7600   -1.2940   -7.5160 O.2   139  PRO139     -0.2868
     55  CB         1.4800    0.2510   -6.0540 C.3   139  PRO139      0.0268
     56  CG         2.5970    0.6160   -5.0510 C.3   139  PRO139      0.0207
     57  CD         2.6210   -0.6240   -4.1660 C.3   139  PRO139      0.0892
     58  N          2.0280    0.0790  -11.8190 N.3   141  VAL141     -0.1245
     59  CA         1.1420    0.7970  -12.7320 C.3   141  VAL141      0.1561
     60  C          0.8610   -0.0250  -13.9760 C.2   141  VAL141      0.2260
     61  O          1.7920   -0.5510  -14.5920 O.2   141  VAL141     -0.2867
     62  CB         1.7730    2.1530  -13.1580 C.3   141  VAL141      0.0252
     63  CG1        0.8700    2.8630  -14.1870 C.3   141  VAL141      0.0019
     64  CG2        1.9570    3.0310  -11.9270 C.3   141  VAL141      0.0019
     65  N          6.9260   -0.2260  -12.3680 N.3   162  TRP162     -0.1227
     66  CA         6.9020    0.0320  -10.9360 C.3   162  TRP162      0.1737
     67  C          8.0700    0.9160  -10.5500 C.2   162  TRP162      0.2596
     68  O          9.0910    0.9720  -11.2420 O.2   162  TRP162     -0.2718
     69  CB         6.8550   -1.2770  -10.0970 C.3   162  TRP162      0.0564
     70  CG         7.9710   -2.2490  -10.4210 C.ar  162  TRP162      0.0003
     71  CD1        9.1420   -2.4240   -9.7280 C.ar  162  TRP162      0.0946
     72  CD2        8.0140   -3.1580  -11.5180 C.ar  162  TRP162      0.0152
     73  NE1        9.9130   -3.3840  -10.3340 N.ar  162  TRP162     -0.2442
     74  CE2        9.2380   -3.8590  -11.4330 C.ar  162  TRP162      0.0810
     75  CE3        7.1370   -3.4470  -12.5730 C.ar  162  TRP162      0.0012
     76  CZ2        9.6060   -4.8370  -12.3670 C.ar  162  TRP162      0.0191
     77  CZ3        7.4980   -4.4070  -13.5020 C.ar  162  TRP162      0.0001
     78  CH2        8.7260   -5.0940  -13.3900 C.ar  162  TRP162      0.0015
     79  N          7.9130    1.5780   -9.4220 N.am  163  SER163     -0.1938
     80  CA         8.9110    2.5390   -8.9930 C.3   163  SER163      0.2055
     81  C          9.5410    2.1910   -7.6430 C.2   163  SER163      0.2642
     82  O         10.5100    2.8070   -7.2530 O.2   163  SER163     -0.2714
     83  CB         8.3130    3.9520   -9.0050 C.3   163  SER163      0.2130
     84  OG         7.1020    3.9940   -8.2830 O.3   163  SER163     -0.2179
     85  N          9.0160    1.1940   -6.9470 N.am  164  LYS164     -0.1977
     86  CA         9.6480    0.7060   -5.7280 C.3   164  LYS164      0.1596
     87  C         10.7230   -0.3470   -5.9970 C.2   164  LYS164      0.2287
     88  O         10.7340   -1.0060   -7.0350 O.2   164  LYS164     -0.2864
     89  CB         8.6040    0.0890   -4.8160 C.3   164  LYS164      0.0298
     90  CG         7.5730    1.0450   -4.3370 C.3   164  LYS164      0.0038
     91  CD         6.6700    0.3450   -3.3540 C.3   164  LYS164      0.0206
     92  CE         5.9530    1.3160   -2.5030 C.3   164  LYS164      0.1093
     93  NZ         5.2210    0.6650   -1.3710 N.3   164  LYS164     -0.1314
@<TRIPOS>BOND
     1    12    11    1
     2    10    11   ar
     3    10     8   ar
     4    11     9   ar
     5     1     2    1
     6     8     6   ar
     7     9     7   ar
     8     6     7   ar
     9     6     5    1
    10     2     5    1
    11     2     3    1
    12     3     4    2
    13     3    13   am
    14    61    60    2
    15    13    14    1
    16    63    62    1
    17    60    59    1
    18    77    78   ar
    19    77    75   ar
    20    78    76   ar
    21    14    15    1
    22    62    59    1
    23    62    64    1
    24    16    15    2
    25    59    58    1
    26    75    72   ar
    27    15    17   am
    28    65    66    1
    29    76    74   ar
    30    72    74   ar
    31    72    70   ar
    32    74    73   ar
    33    68    67    2
    34    17    18    1
    35    66    67    1
    36    66    69    1
    37    67    79   am
    38    70    69    1
    39    70    71   ar
    40    18    19    1
    41    18    21    1
    42    73    71   ar
    43    19    20    2
    44    22    21    1
    45    79    80    1
    46    21    23    1
    47    83    80    1
    48    83    84    1
    49    80    81    1
    50    24    25    1
    51    81    82    2
    52    81    85   am
    53    53    54    2
    54    53    52    1
    55    88    87    2
    56    85    86    1
    57    27    26    2
    58    26    25    1
    59    25    28    1
    60    52    55    1
    61    52    51    1
    62    55    56    1
    63    87    86    1
    64    30    32   ar
    65    30    29   ar
    66    32    34   ar
    67    86    89    1
    68    28    29    1
    69    29    31   ar
    70    51    57    1
    71    56    57    1
    72    34    35    1
    73    34    33   ar
    74    89    90    1
    75    31    33   ar
    76    90    91    1
    77    91    92    1
    78    92    93    1
    79    46    45    2
    80    45    44    1
    81    39    38    2
    82    38    37    1
    83    38    43   am
    84    37    36    1
    85    37    40    1
    86    36    42    1
    87    44    43    1
    88    44    47    1
    89    40    41    1
    90    49    48   ar
    91    42    41    1
    92    47    48    1
    93    48    50   ar
