@<TRIPOS>MOLECULE
tmp/4xqbB00.pdb
 93 93 0 0 0
SMALL
GASTEIGER

@<TRIPOS>ATOM
      1  N        -11.5610    8.9370  -22.0670 N.3   128  TYR128     -0.1227
      2  CA       -12.6480    9.7970  -21.6290 C.3   128  TYR128      0.1736
      3  C        -13.7500    8.9890  -20.9700 C.2   128  TYR128      0.2596
      4  O        -13.9580    7.8190  -21.2860 O.2   128  TYR128     -0.2718
      5  CB       -13.2580   10.5360  -22.8110 C.3   128  TYR128      0.0548
      6  CG       -12.4980   11.7640  -23.2520 C.ar  128  TYR128     -0.0200
      7  CD1      -12.7000   12.9860  -22.6250 C.ar  128  TYR128     -0.0009
      8  CD2      -11.5970   11.7060  -24.3070 C.ar  128  TYR128     -0.0009
      9  CE1      -12.0190   14.1250  -23.0260 C.ar  128  TYR128      0.0417
     10  CE2      -10.9070   12.8460  -24.7260 C.ar  128  TYR128      0.0417
     11  CZ       -11.1280   14.0520  -24.0780 C.ar  128  TYR128      0.1957
     12  OH       -10.4490   15.1900  -24.4780 O.3   128  TYR128     -0.2866
     13  N        -14.4840    9.6440  -20.0800 N.am  129  GLY129     -0.1942
     14  CA       -15.6640    9.0570  -19.4800 C.3   129  GLY129      0.2014
     15  C        -16.5910   10.1800  -19.0680 C.2   129  GLY129      0.2639
     16  O        -16.2030   11.3480  -19.0790 O.2   129  GLY129     -0.2714
     17  N        -17.8160    9.8350  -18.6930 N.am  130  THR130     -0.1950
     18  CA       -18.7490   10.8340  -18.1770 C.3   130  THR130      0.1897
     19  C        -19.2570   10.3590  -16.8320 C.2   130  THR130      0.2313
     20  O        -19.6020    9.1860  -16.6730 O.2   130  THR130     -0.2863
     21  CB       -19.9510   10.9970  -19.1200 C.3   130  THR130      0.1794
     22  OG1      -19.4840   11.3410  -20.4290 O.3   130  THR130     -0.2208
     23  CG2      -20.9140   12.0950  -18.6120 C.3   130  THR130      0.0378
     24  N        -21.7760   11.7680  -13.2560 N.3   132  TYR132     -0.1241
     25  CA       -22.9920   12.5500  -13.0630 C.3   132  TYR132      0.1605
     26  C        -23.0360   13.1730  -11.6870 C.2   132  TYR132      0.2264
     27  O        -22.9020   12.4880  -10.6800 O.2   132  TYR132     -0.2867
     28  CB       -24.2200   11.6760  -13.3530 C.3   132  TYR132      0.0534
     29  CG       -24.2120   11.2890  -14.8060 C.ar  132  TYR132     -0.0201
     30  CD1      -23.4890   10.1880  -15.2470 C.ar  132  TYR132     -0.0009
     31  CD2      -24.8600   12.0710  -15.7500 C.ar  132  TYR132     -0.0009
     32  CE1      -23.4370    9.8610  -16.5830 C.ar  132  TYR132      0.0417
     33  CE2      -24.8160   11.7450  -17.0960 C.ar  132  TYR132      0.0417
     34  CZ       -24.1050   10.6380  -17.5000 C.ar  132  TYR132      0.1957
     35  OH       -24.0420   10.2940  -18.8360 O.3   132  TYR132     -0.2866
     36  N        -29.1330   12.3610  -14.0420 N.3   137  PRO137     -0.2102
     37  CA       -28.7310   12.0160  -15.4160 C.3   137  PRO137      0.1504
     38  C        -28.6020   13.2230  -16.3490 C.2   137  PRO137      0.2575
     39  O        -27.9690   13.1160  -17.4000 O.2   137  PRO137     -0.2718
     40  CB       -29.8540   11.0790  -15.8820 C.3   137  PRO137      0.0282
     41  CG       -31.0580   11.5010  -15.0740 C.3   137  PRO137      0.0208
     42  CD       -30.4900   11.8780  -13.7140 C.3   137  PRO137      0.0893
     43  N        -29.1690   14.3610  -15.9630 N.am  138  ASP138     -0.1974
     44  CA       -28.9980   15.5830  -16.7430 C.3   138  ASP138      0.1708
     45  C        -27.8870   16.4750  -16.1890 C.2   138  ASP138      0.2293
     46  O        -27.7860   17.6500  -16.5520 O.2   138  ASP138     -0.2864
     47  CB       -30.3160   16.3650  -16.8320 C.3   138  ASP138      0.1436
     48  CG       -30.8400   16.7860  -15.4680 C.2   138  ASP138      0.3671
     49  OD1      -30.3920   16.2330  -14.4410 O.co2 138  ASP138     -0.2456
     50  OD2      -31.7080   17.6820  -15.4200 O.co2 138  ASP138     -0.2456
     51  N        -24.2180   15.8290  -16.3810 N.3   140  PRO140     -0.2116
     52  CA       -22.9380   15.2190  -16.7340 C.3   140  PRO140      0.1372
     53  C        -21.7550   16.1490  -16.5020 C.2   140  PRO140      0.2244
     54  O        -21.8680   17.3770  -16.5840 O.2   140  PRO140     -0.2868
     55  CB       -23.0910   14.9540  -18.2330 C.3   140  PRO140      0.0268
     56  CG       -23.9920   16.0510  -18.7040 C.3   140  PRO140      0.0207
     57  CD       -24.9930   16.1930  -17.5800 C.3   140  PRO140      0.0892
     58  N        -17.4640   15.6940  -17.6960 N.3   142  VAL142     -0.1245
     59  CA       -16.5190   14.8130  -18.3750 C.3   142  VAL142      0.1561
     60  C        -15.2890   14.5660  -17.5100 C.2   142  VAL142      0.2260
     61  O        -14.6960   15.5090  -16.9790 O.2   142  VAL142     -0.2867
     62  CB       -16.0770   15.4290  -19.7180 C.3   142  VAL142      0.0252
     63  CG1      -14.9200   14.6380  -20.3350 C.3   142  VAL142      0.0019
     64  CG2      -17.2550   15.5000  -20.6850 C.3   142  VAL142      0.0019
     65  N        -17.0450   20.5990  -17.4120 N.3   163  TRP163     -0.1227
     66  CA       -18.4590   20.5580  -17.7460 C.3   163  TRP163      0.1737
     67  C        -18.8140   21.7120  -18.6650 C.2   163  TRP163      0.2596
     68  O        -18.1830   22.7660  -18.6200 O.2   163  TRP163     -0.2718
     69  CB       -19.3310   20.5560  -16.4850 C.3   163  TRP163      0.0564
     70  CG       -19.0300   21.6800  -15.5380 C.ar  163  TRP163      0.0003
     71  CD1      -19.7160   22.8550  -15.4170 C.ar  163  TRP163      0.0946
     72  CD2      -17.9720   21.7330  -14.5750 C.ar  163  TRP163      0.0152
     73  NE1      -19.1480   23.6360  -14.4430 N.ar  163  TRP163     -0.2442
     74  CE2      -18.0730   22.9730  -13.9130 C.ar  163  TRP163      0.0810
     75  CE3      -16.9420   20.8560  -14.2160 C.ar  163  TRP163      0.0012
     76  CZ2      -17.1870   23.3580  -12.9100 C.ar  163  TRP163      0.0191
     77  CZ3      -16.0610   21.2410  -13.2160 C.ar  163  TRP163      0.0001
     78  CH2      -16.1910   22.4810  -12.5760 C.ar  163  TRP163      0.0015
     79  N        -19.8310   21.5110  -19.4930 N.am  164  SER164     -0.1938
     80  CA       -20.2000   22.5200  -20.4680 C.3   164  SER164      0.2055
     81  C        -21.4510   23.2730  -20.0460 C.2   164  SER164      0.2642
     82  O        -21.6460   24.4240  -20.4310 O.2   164  SER164     -0.2714
     83  CB       -20.4160   21.8890  -21.8450 C.3   164  SER164      0.2130
     84  OG       -21.3580   20.8280  -21.7720 O.3   164  SER164     -0.2179
     85  N        -22.2830   22.6400  -19.2280 N.am  165  LYS165     -0.1977
     86  CA       -23.5290   23.2700  -18.8070 C.3   165  LYS165      0.1596
     87  C        -23.2930   24.4040  -17.8160 C.2   165  LYS165      0.2287
     88  O        -22.2870   24.4370  -17.1100 O.2   165  LYS165     -0.2864
     89  CB       -24.4690   22.2260  -18.2000 C.3   165  LYS165      0.0298
     90  CG       -24.9160   21.1840  -19.1980 C.3   165  LYS165      0.0038
     91  CD       -26.0730   20.3550  -18.6760 C.3   165  LYS165      0.0206
     92  CE       -26.4830   19.3120  -19.7030 C.3   165  LYS165      0.1093
     93  NZ       -27.7450   18.6100  -19.2980 N.3   165  LYS165     -0.1314
@<TRIPOS>BOND
     1    10     8   ar
     2    10    11   ar
     3    12    11    1
     4     8     6   ar
     5    11     9   ar
     6     6     5    1
     7     6     7   ar
     8     9     7   ar
     9     5     2    1
    10     1     2    1
    11    83    84    1
    12    83    80    1
    13     2     3    1
    14     4     3    2
    15     3    13   am
    16    64    62    1
    17    80    81    1
    18    80    79    1
    19    82    81    2
    20    22    21    1
    21    63    62    1
    22    13    14    1
    23    81    85   am
    24    62    59    1
    25    92    93    1
    26    92    91    1
    27    79    67   am
    28    14    15    1
    29    85    86    1
    30    90    91    1
    31    90    89    1
    32    21    23    1
    33    21    18    1
    34    16    15    2
    35    15    17   am
    36    35    34    1
    37    86    89    1
    38    86    87    1
    39    56    55    1
    40    56    57    1
    41    17    18    1
    42    67    68    2
    43    67    66    1
    44    59    58    1
    45    59    60    1
    46    55    52    1
    47    18    19    1
    48    87    88    2
    49    66    65    1
    50    66    69    1
    51    57    51    1
    52    60    61    2
    53    34    33   ar
    54    34    32   ar
    55    39    38    2
    56    33    31   ar
    57    47    44    1
    58    47    48    1
    59    19    20    2
    60    44    45    1
    61    44    43    1
    62    52    53    1
    63    52    51    1
    64    54    53    2
    65    32    30   ar
    66    46    45    2
    67    69    70    1
    68    38    43   am
    69    38    37    1
    70    40    37    1
    71    40    41    1
    72    31    29   ar
    73    70    71   ar
    74    70    72   ar
    75    48    50   ar
    76    48    49   ar
    77    71    73   ar
    78    37    36    1
    79    30    29   ar
    80    41    42    1
    81    29    28    1
    82    72    75   ar
    83    72    74   ar
    84    73    74   ar
    85    75    77   ar
    86    36    42    1
    87    74    76   ar
    88    28    25    1
    89    24    25    1
    90    77    78   ar
    91    25    26    1
    92    76    78   ar
    93    26    27    2
