@<TRIPOS>MOLECULE
tmp/4xqeB03.pdb
 103 96 0 0 0
SMALL
GASTEIGER

@<TRIPOS>ATOM
      1  N         32.8440   14.7220   -5.3070 N.3   137  ARG137     -0.1245
      2  CA        33.8590   15.3730   -6.1200 C.3   137  ARG137      0.1563
      3  C         34.9630   14.3850   -6.4700 C.2   137  ARG137      0.2260
      4  O         35.4840   14.4020   -7.5850 O.2   137  ARG137     -0.2867
      5  CB        34.4030   16.5970   -5.3990 C.3   137  ARG137      0.0307
      6  CG        35.5460   17.2930   -6.1050 C.3   137  ARG137      0.0489
      7  CD        35.9410   18.5710   -5.3820 C.3   137  ARG137      0.2205
      8  NE        37.0130   19.2280   -6.1110 N.pl3 137  ARG137     -0.0865
      9  CZ        38.3080   19.0910   -5.8510 C.cat 137  ARG137      0.5346
     10  NH1       38.7190   18.3480   -4.8350 N.pl3 137  ARG137      0.1354
     11  NH2       39.1960   19.7150   -6.6050 N.pl3 137  ARG137      0.1354
     12  N         38.4460   12.0220  -14.2560 N.3   144  ARG144     -0.1245
     13  CA        39.4350   12.7960  -14.9830 C.3   144  ARG144      0.1563
     14  C         40.7680   12.0550  -15.0690 C.2   144  ARG144      0.2260
     15  O         41.4040   12.0620  -16.1040 O.2   144  ARG144     -0.2867
     16  CB        39.6090   14.1720  -14.3460 C.3   144  ARG144      0.0307
     17  CG        40.8030   14.9460  -14.8850 C.3   144  ARG144      0.0489
     18  CD        40.6560   16.4130  -14.5600 C.3   144  ARG144      0.2205
     19  NE        40.8590   16.6840  -13.1420 N.pl3 144  ARG144     -0.0865
     20  CZ        40.4970   17.8050  -12.5350 C.cat 144  ARG144      0.5346
     21  NH1       39.8540   18.7490  -13.2020 N.pl3 144  ARG144      0.1354
     22  NH2       40.7700   17.9670  -11.2430 N.pl3 144  ARG144      0.1354
     23  N         48.2060   26.7010  -11.5500 N.3   189  ARG189     -0.1245
     24  CA        47.6700   26.3610  -10.2430 C.3   189  ARG189      0.1563
     25  C         48.7200   26.5410   -9.1470 C.2   189  ARG189      0.2260
     26  O         48.4440   27.1140   -8.0930 O.2   189  ARG189     -0.2867
     27  CB        47.1830   24.9230  -10.2540 C.3   189  ARG189      0.0307
     28  CG        46.6830   24.4320   -8.8980 C.3   189  ARG189      0.0489
     29  CD        46.1910   22.9960   -9.0060 C.3   189  ARG189      0.2205
     30  NE        47.1230   22.1490   -9.7560 N.pl3 189  ARG189     -0.0865
     31  CZ        48.1750   21.5240   -9.2270 C.cat 189  ARG189      0.5346
     32  NH1       48.4620   21.6380   -7.9350 N.pl3 189  ARG189      0.1354
     33  NH2       48.9520   20.7770   -9.9970 N.pl3 189  ARG189      0.1354
     34  N         37.0060   22.3540   -3.5180 N.3   299  SER299     -0.1217
     35  CA        37.7870   22.6260   -4.7180 C.3   299  SER299      0.1889
     36  C         38.7470   23.8110   -4.5830 C.2   299  SER299      0.2288
     37  O         39.8730   23.7750   -5.1060 O.2   299  SER299     -0.2866
     38  CB        36.8880   22.7940   -5.9490 C.3   299  SER299      0.2089
     39  OG        36.3720   24.1030   -6.0930 O.3   299  SER299     -0.2183
     40  N         41.6370   22.7560   -2.3260 N.3   302  ASP302     -0.1225
     41  CA        42.4820   21.8570   -3.1040 C.3   302  ASP302      0.1805
     42  C         43.3310   22.6620   -4.0910 C.2   302  ASP302      0.2597
     43  O         44.5490   22.5070   -4.1560 O.2   302  ASP302     -0.2718
     44  CB        41.5860   20.8550   -3.8440 C.3   302  ASP302      0.1424
     45  CG        42.3660   19.7790   -4.5780 C.2   302  ASP302      0.3668
     46  OD1       43.5560   19.5390   -4.2390 O.co2 302  ASP302     -0.2456
     47  OD2       41.7700   19.1590   -5.4870 O.co2 302  ASP302     -0.2456
     48  N         42.6830   23.5500   -4.8290 N.am  303  PHE303     -0.1976
     49  CA        43.3670   24.3620   -5.8160 C.3   303  PHE303      0.1639
     50  C         44.5090   25.1730   -5.2110 C.2   303  PHE303      0.2290
     51  O         45.5770   25.2820   -5.8140 O.2   303  PHE303     -0.2864
     52  CB        42.3710   25.2940   -6.4940 C.3   303  PHE303      0.0560
     53  CG        42.9520   26.0750   -7.6220 C.ar  303  PHE303     -0.0200
     54  CD1       43.1500   25.4780   -8.8560 C.ar  303  PHE303     -0.0042
     55  CD2       43.3070   27.3990   -7.4590 C.ar  303  PHE303     -0.0042
     56  CE1       43.6800   26.1890   -9.9110 C.ar  303  PHE303     -0.0003
     57  CE2       43.8420   28.1170   -8.5160 C.ar  303  PHE303     -0.0003
     58  CZ        44.0340   27.5100   -9.7400 C.ar  303  PHE303     -0.0000
     59  N         39.5800   20.5680  -23.3510 N.3   415  ALA415     -0.1245
     60  CA        40.2690   20.7880  -22.0790 C.3   415  ALA415      0.1562
     61  C         39.9830   19.7110  -21.0420 C.2   415  ALA415      0.2260
     62  O         40.4680   19.7970  -19.9210 O.2   415  ALA415     -0.2867
     63  CB        39.8650   22.1410  -21.5240 C.3   415  ALA415      0.0290
     64  N         37.7520   17.2980  -18.3390 N.3   417  ILE417     -0.1231
     65  CA        36.9410   17.6430  -17.1780 C.3   417  ILE417      0.1692
     66  C         37.6560   18.7370  -16.3680 C.2   417  ILE417      0.2592
     67  O         38.8110   18.5710  -15.9600 O.2   417  ILE417     -0.2718
     68  CB        36.6940   16.3920  -16.3190 C.3   417  ILE417      0.0266
     69  CG1       35.9230   15.3370  -17.1250 C.3   417  ILE417      0.0019
     70  CG2       35.9730   16.7510  -15.0290 C.3   417  ILE417      0.0020
     71  CD1       35.9610   13.9460  -16.4960 C.3   417  ILE417      0.0001
     72  N         36.9600   19.8530  -16.1790 N.am  418  VAL418     -0.1966
     73  CA        37.4810   21.0190  -15.4690 C.3   418  VAL418      0.1727
     74  C         36.4790   21.5420  -14.4450 C.2   418  VAL418      0.2616
     75  O         35.2760   21.3650  -14.5910 O.2   418  VAL418     -0.2715
     76  CB        37.8680   22.1610  -16.4560 C.3   418  VAL418      0.0290
     77  CG1       39.1080   21.7710  -17.2300 C.3   418  VAL418      0.0023
     78  CG2       36.7250   22.4800  -17.4150 C.3   418  VAL418      0.0023
     79  N         37.0020   22.1540  -13.3830 N.am  419  GLU419     -0.1977
     80  CA        36.1780   22.9190  -12.4650 C.3   419  GLU419      0.1602
     81  C         36.3870   24.4030  -12.7240 C.2   419  GLU419      0.2287
     82  O         37.2530   24.7890  -13.5260 O.2   419  GLU419     -0.2864
     83  CB        36.5470   22.5860  -11.0210 C.3   419  GLU419      0.0415
     84  CG        36.2670   21.1390  -10.6400 C.3   419  GLU419      0.1163
     85  CD        36.7230   20.8080   -9.2040 C.2   419  GLU419      0.3649
     86  OE1       37.9420   20.9650   -8.9040 O.co2 419  GLU419     -0.2457
     87  OE2       35.8590   20.3990   -8.3860 O.co2 419  GLU419     -0.2457
     88  N         37.7520   26.5730  -10.9900 N.3   421  ASP421     -0.1225
     89  CA        39.1170   26.9570  -10.6360 C.3   421  ASP421      0.1805
     90  C         40.0970   26.7990  -11.8050 C.2   421  ASP421      0.2597
     91  O         41.1640   27.3950  -11.8060 O.2   421  ASP421     -0.2718
     92  CB        39.6050   26.1260   -9.4560 C.3   421  ASP421      0.1424
     93  CG        38.6150   26.1390   -8.3020 C.2   421  ASP421      0.3668
     94  OD1       38.5010   27.1820   -7.6210 O.co2 421  ASP421     -0.2456
     95  OD2       37.9080   25.1310   -8.1100 O.co2 421  ASP421     -0.2456
     96  N         39.7260   25.9940  -12.7980 N.am  422  ASP422     -0.1974
     97  CA        40.6130   25.6450  -13.9050 C.3   422  ASP422      0.1709
     98  C         40.3750   26.5500  -15.1100 C.2   422  ASP422      0.2293
     99  O         41.1510   26.5380  -16.0630 O.2   422  ASP422     -0.2864
    100  CB        40.3770   24.1910  -14.3180 C.3   422  ASP422      0.1436
    101  CG        40.7020   23.2220  -13.2110 C.2   422  ASP422      0.3671
    102  OD1       41.7740   23.4150  -12.5800 O.co2 422  ASP422     -0.2456
    103  OD2       39.8810   22.3030  -12.9610 O.co2 422  ASP422     -0.2456
@<TRIPOS>BOND
     1    59    60    1
     2    60    63    1
     3    60    61    1
     4    61    62    2
     5    64    65    1
     6    78    76    1
     7    77    76    1
     8    65    66    1
     9    65    68    1
    10    69    71    1
    11    69    68    1
    12    76    73    1
    13    66    72   am
    14    66    67    2
    15    68    70    1
    16    72    73    1
    17    15    14    2
    18    99    98    2
    19    73    74    1
    20    98    97    1
    21    14    13    1
    22    13    16    1
    23    13    12    1
    24    17    18    1
    25    17    16    1
    26    75    74    2
    27    18    19    1
    28    74    79   am
    29   100    97    1
    30   100   101    1
    31    97    96    1
    32    82    81    2
    33    79    80    1
    34   101   103   ar
    35   101   102   ar
    36    21    20    1
    37    19    20    2
    38    96    90   am
    39    81    80    1
    40    20    22    1
    41    80    83    1
    42    91    90    2
    43    90    89    1
    44    23    24    1
    45    83    84    1
    46    88    89    1
    47    84    85    1
    48    89    92    1
    49    27    24    1
    50    27    28    1
    51    24    25    1
    52    33    31    1
    53    56    58   ar
    54    56    54   ar
    55    30    31    2
    56    30    29    1
    57    58    57   ar
    58    92    93    1
    59    31    32    1
    60    85    86   ar
    61    85    87   ar
    62    25    26    2
    63    29    28    1
    64    54    53   ar
    65    57    55   ar
    66    93    95   ar
    67    93    94   ar
    68    53    55   ar
    69    53    52    1
    70     4     3    2
    71    11     9    1
    72    52    49    1
    73     3     2    1
    74     2     5    1
    75     2     1    1
    76     8     9    2
    77     8     7    1
    78     6     5    1
    79     6     7    1
    80    39    38    1
    81    38    35    1
    82     9    10    1
    83    49    50    1
    84    49    48    1
    85    51    50    2
    86    47    45   ar
    87    37    36    2
    88    48    42   am
    89    35    36    1
    90    35    34    1
    91    45    46   ar
    92    45    44    1
    93    43    42    2
    94    42    41    1
    95    44    41    1
    96    41    40    1
