@<TRIPOS>MOLECULE
tmp/4xqeB02.pdb
 135 129 0 0 0
SMALL
GASTEIGER

@<TRIPOS>ATOM
      1  N         26.9490   30.0720   -9.4770 N.3   159  ALA159     -0.1231
      2  CA        27.3880   31.2130   -8.6930 C.3   159  ALA159      0.1694
      3  C         28.3860   30.7830   -7.6270 C.2   159  ALA159      0.2592
      4  O         29.4550   31.3730   -7.4730 O.2   159  ALA159     -0.2718
      5  CB        26.2080   31.9120   -8.0640 C.3   159  ALA159      0.0304
      6  N         28.0230   29.7410   -6.9050 N.am  160  ASN160     -0.1961
      7  CA        28.8600   29.2010   -5.8430 C.3   160  ASN160      0.1804
      8  C         28.3580   27.8000   -5.5920 C.2   160  ASN160      0.2463
      9  O         27.2840   27.6470   -5.0470 O.2   160  ASN160     -0.2730
     10  CB        28.8200   30.0710   -4.5680 C.3   160  ASN160      0.1195
     11  CG        27.4130   30.2990   -4.0220 C.2   160  ASN160      0.2630
     12  OD1       26.5310   30.8310   -4.6980 O.2   160  ASN160     -0.2716
     13  ND2       27.2140   29.9360   -2.7790 N.am  160  ASN160     -0.0877
     14  N         29.0830   26.7690   -6.0700 N.am  161  PRO161     -0.2727
     15  CA        30.3700   26.8070   -6.7800 C.3   161  PRO161      0.1402
     16  C         30.2540   27.4430   -8.1380 C.2   161  PRO161      0.2269
     17  O         29.1710   27.4010   -8.7390 O.2   161  PRO161     -0.2865
     18  CB        30.7230   25.3230   -6.9320 C.3   161  PRO161      0.0296
     19  CG        29.3760   24.6190   -6.9450 C.3   161  PRO161      0.0237
     20  CD        28.5950   25.3850   -5.9040 C.3   161  PRO161      0.0939
     21  N         27.8260   35.0660    2.1060 N.3   208  GLU208     -0.1245
     22  CA        26.6580   35.4380    1.3310 C.3   208  GLU208      0.1567
     23  C         25.5480   35.9220    2.2510 C.2   208  GLU208      0.2260
     24  O         25.3120   35.3380    3.3270 O.2   208  GLU208     -0.2867
     25  CB        26.1690   34.2430    0.4930 C.3   208  GLU208      0.0388
     26  CG        24.9330   34.5570   -0.3290 C.3   208  GLU208      0.1160
     27  CD        24.5780   33.4970   -1.3540 C.2   208  GLU208      0.3649
     28  OE1       25.1210   32.3830   -1.2650 O.co2 208  GLU208     -0.2457
     29  OE2       23.7170   33.7690   -2.2330 O.co2 208  GLU208     -0.2457
     30  N         16.0340   29.9190   -4.7260 N.3   227  TRP227     -0.1241
     31  CA        16.4610   28.9480   -5.7210 C.3   227  TRP227      0.1605
     32  C         15.9890   27.5910   -5.1950 C.2   227  TRP227      0.2264
     33  O         15.3160   27.5400   -4.1440 O.2   227  TRP227     -0.2867
     34  CB        17.9870   29.0180   -5.9030 C.3   227  TRP227      0.0550
     35  CG        18.7410   28.7360   -4.6480 C.ar  227  TRP227      0.0003
     36  CD1       18.9510   29.5970   -3.6110 C.ar  227  TRP227      0.0946
     37  CD2       19.3910   27.5120   -4.2920 C.ar  227  TRP227      0.0152
     38  NE1       19.6710   28.9730   -2.6140 N.ar  227  TRP227     -0.2442
     39  CE2       19.9520   27.6880   -3.0080 C.ar  227  TRP227      0.0810
     40  CE3       19.5540   26.2730   -4.9330 C.ar  227  TRP227      0.0012
     41  CZ2       20.6700   26.6860   -2.3630 C.ar  227  TRP227      0.0191
     42  CZ3       20.2370   25.2800   -4.2910 C.ar  227  TRP227      0.0001
     43  CH2       20.7940   25.4840   -3.0160 C.ar  227  TRP227      0.0015
     44  N         21.0950   19.5390    0.2770 N.3   235  GLU235     -0.1245
     45  CA        22.4490   19.8960    0.6850 C.3   235  GLU235      0.1567
     46  C         22.4860   20.2910    2.1640 C.2   235  GLU235      0.2260
     47  O         23.4650   20.0320    2.8500 O.2   235  GLU235     -0.2867
     48  CB        23.0600   20.9690   -0.2060 C.3   235  GLU235      0.0388
     49  CG        22.3510   22.2540   -0.2120 C.3   235  GLU235      0.1160
     50  CD        22.8490   23.1590   -1.3090 C.2   235  GLU235      0.3649
     51  OE1       23.2240   22.6500   -2.3870 O.co2 235  GLU235     -0.2457
     52  OE2       22.8940   24.3830   -1.0750 O.co2 235  GLU235     -0.2457
     53  N         26.6800   25.1260    5.1460 N.3   292  VAL292     -0.1231
     54  CA        26.1500   24.1900    4.1710 C.3   292  VAL292      0.1692
     55  C         27.2580   23.7510    3.2310 C.2   292  VAL292      0.2593
     56  O         28.0920   24.5460    2.8070 O.2   292  VAL292     -0.2718
     57  CB        24.9980   24.8410    3.3790 C.3   292  VAL292      0.0266
     58  CG1       24.4910   23.9190    2.2760 C.3   292  VAL292      0.0020
     59  CG2       23.8710   25.2280    4.3420 C.3   292  VAL292      0.0020
     60  N         27.2870   22.4630    2.9560 N.am  293  THR293     -0.1939
     61  CA        28.3080   21.9300    2.0730 C.3   293  THR293      0.2028
     62  C         28.2170   22.5340    0.6730 C.2   293  THR293      0.2642
     63  O         27.1580   22.9390    0.2200 O.2   293  THR293     -0.2714
     64  CB        28.2290   20.4200    1.9600 C.3   293  THR293      0.1808
     65  OG1       29.3450   19.9800    1.1880 O.3   293  THR293     -0.2208
     66  CG2       26.9010   19.9610    1.3330 C.3   293  THR293      0.0379
     67  N         29.3650   22.5930    0.0110 N.am  294  SER294     -0.1949
     68  CA        29.4410   23.1500   -1.3250 C.3   294  SER294      0.1924
     69  C         30.6990   22.6190   -1.9780 C.2   294  SER294      0.2314
     70  O         31.7130   22.4560   -1.3150 O.2   294  SER294     -0.2863
     71  CB        29.5040   24.6670   -1.2090 C.3   294  SER294      0.2116
     72  OG        29.0590   25.2850   -2.3980 O.3   294  SER294     -0.2180
     73  N         31.3800   27.5700    3.0890 N.3   321  TYR321     -0.1241
     74  CA        30.2250   28.4340    2.9500 C.3   321  TYR321      0.1605
     75  C         29.8620   29.0020    4.3210 C.2   321  TYR321      0.2264
     76  O         29.9410   28.2970    5.3330 O.2   321  TYR321     -0.2867
     77  CB        29.0760   27.5820    2.4200 C.3   321  TYR321      0.0534
     78  CG        27.9830   28.2480    1.6280 C.ar  321  TYR321     -0.0201
     79  CD1       27.9870   29.6070    1.2900 C.ar  321  TYR321     -0.0009
     80  CD2       26.9320   27.4730    1.1770 C.ar  321  TYR321     -0.0009
     81  CE1       26.9450   30.1630    0.5210 C.ar  321  TYR321      0.0417
     82  CE2       25.9130   28.0030    0.4120 C.ar  321  TYR321      0.0417
     83  CZ        25.9140   29.3450    0.0890 C.ar  321  TYR321      0.1957
     84  OH        24.8690   29.7950   -0.6890 O.3   321  TYR321     -0.2866
     85  N         26.5060   30.8750    4.7940 N.3   323  TYR323     -0.1241
     86  CA        25.3410   31.2990    4.0160 C.3   323  TYR323      0.1605
     87  C         24.2530   31.8590    4.8980 C.2   323  TYR323      0.2264
     88  O         23.7240   31.1410    5.7270 O.2   323  TYR323     -0.2867
     89  CB        24.7690   30.0880    3.3090 C.3   323  TYR323      0.0534
     90  CG        23.6470   30.3290    2.3180 C.ar  323  TYR323     -0.0201
     91  CD1       23.4360   31.5730    1.7260 C.ar  323  TYR323     -0.0009
     92  CD2       22.8180   29.2720    1.9400 C.ar  323  TYR323     -0.0009
     93  CE1       22.4270   31.7410    0.7580 C.ar  323  TYR323      0.0417
     94  CE2       21.8210   29.4350    0.9860 C.ar  323  TYR323      0.0417
     95  CZ        21.6220   30.6650    0.4060 C.ar  323  TYR323      0.1957
     96  OH        20.6330   30.7850   -0.5410 O.3   323  TYR323     -0.2866
     97  N         21.2240   39.8740   -3.6670 N.3   359  ASP359     -0.1239
     98  CA        21.9710   38.6890   -3.2840 C.3   359  ASP359      0.1674
     99  C         23.4480   39.0740   -3.2150 C.2   359  ASP359      0.2266
    100  O         24.1370   39.1890   -4.2220 O.2   359  ASP359     -0.2867
    101  CB        21.7300   37.5210   -4.2470 C.3   359  ASP359      0.1410
    102  CG        22.1600   36.2030   -3.6580 C.2   359  ASP359      0.3668
    103  OD1       23.1460   36.2060   -2.8850 O.co2 359  ASP359     -0.2456
    104  OD2       21.4920   35.1800   -3.9450 O.co2 359  ASP359     -0.2456
    105  N         26.9570   38.2440   -2.5920 N.3   361  LEU361     -0.1245
    106  CA        27.6540   36.9710   -2.6830 C.3   361  LEU361      0.1561
    107  C         29.1070   37.2500   -3.0190 C.2   361  LEU361      0.2260
    108  O         29.4030   37.8080   -4.0840 O.2   361  LEU361     -0.2867
    109  CB        27.0290   36.0940   -3.7530 C.3   361  LEU361      0.0270
    110  CG        27.7630   34.7940   -4.1010 C.3   361  LEU361      0.0019
    111  CD1       28.0340   33.9230   -2.8810 C.3   361  LEU361      0.0001
    112  CD2       26.9120   34.0510   -5.1280 C.3   361  LEU361      0.0001
    113  N         19.3160   35.9310   -7.3030 N.3   394  THR394     -0.1218
    114  CA        20.0220   34.6800   -7.0120 C.3   394  THR394      0.1862
    115  C         20.2270   33.9100   -8.3150 C.2   394  THR394      0.2287
    116  O         21.3370   33.4640   -8.6310 O.2   394  THR394     -0.2866
    117  CB        19.2340   33.8110   -6.0340 C.3   394  THR394      0.1770
    118  OG1       18.9710   34.5740   -4.8580 O.3   394  THR394     -0.2211
    119  CG2       20.0090   32.5750   -5.6510 C.3   394  THR394      0.0375
    120  N         22.8870   35.4760  -10.9400 N.3   397  GLN397     -0.1231
    121  CA        24.2910   35.1750  -10.6300 C.3   397  GLN397      0.1698
    122  C         24.6850   33.7810  -11.1170 C.2   397  GLN397      0.2592
    123  O         25.8060   33.5660  -11.5760 O.2   397  GLN397     -0.2718
    124  CB        24.5550   35.3240   -9.1250 C.3   397  GLN397      0.0381
    125  CG        24.4490   36.7630   -8.6550 C.3   397  GLN397      0.0905
    126  CD        24.4820   36.8970   -7.1420 C.2   397  GLN397      0.2608
    127  OE1       24.0290   36.0130   -6.4070 O.2   397  GLN397     -0.2717
    128  NE2       25.0110   38.0100   -6.6720 N.am  397  GLN397     -0.0878
    129  N         23.7660   32.8310  -10.9990 N.am  398  VAL398     -0.1980
    130  CA        24.0110   31.4660  -11.4460 C.3   398  VAL398      0.1595
    131  C         23.9750   31.3410  -12.9750 C.2   398  VAL398      0.2287
    132  O         24.8840   30.7560  -13.5750 O.2   398  VAL398     -0.2864
    133  CB        22.9740   30.4940  -10.8350 C.3   398  VAL398      0.0276
    134  CG1       23.3130   29.0590  -11.1900 C.3   398  VAL398      0.0022
    135  CG2       22.9120   30.6320   -9.3380 C.3   398  VAL398      0.0022
@<TRIPOS>BOND
     1   132   131    2
     2   131   130    1
     3   123   122    2
     4   130   129    1
     5   130   133    1
     6   134   133    1
     7   122   129   am
     8   122   121    1
     9   120   121    1
    10   133   135    1
    11   121   124    1
    12     1     2    1
    13   124   125    1
    14    17    16    2
    15     2     5    1
    16     2     3    1
    17   125   126    1
    18   116   115    2
    19   115   114    1
    20    16    15    1
    21     3     4    2
    22     3     6   am
    23   113   114    1
    24   126   128   am
    25   126   127    2
    26   114   117    1
    27    19    18    1
    28    19    20    1
    29    18    15    1
    30     6     7    1
    31    15    14    1
    32    14    20    1
    33    14     8   am
    34   117   119    1
    35   117   118    1
    36    34    31    1
    37    34    35    1
    38     7     8    1
    39     7    10    1
    40    31    32    1
    41    31    30    1
    42     8     9    2
    43    32    33    2
    44   112   110    1
    45    40    37   ar
    46    40    42   ar
    47    12    11    2
    48    35    37   ar
    49    35    36   ar
    50    10    11    1
    51    37    39   ar
    52    42    43   ar
    53   101   102    1
    54   101    98    1
    55   100    99    2
    56   110   109    1
    57   110   111    1
    58   108   107    2
    59    11    13   am
    60   104   102   ar
    61   109   106    1
    62    97    98    1
    63   102   103   ar
    64    36    38   ar
    65    98    99    1
    66   107   106    1
    67    43    41   ar
    68    39    38   ar
    69    39    41   ar
    70   106   105    1
    71    72    71    1
    72    51    50   ar
    73    29    27   ar
    74    69    68    1
    75    69    70    2
    76    27    28   ar
    77    27    26    1
    78    68    71    1
    79    68    67    1
    80    50    52   ar
    81    50    49    1
    82    84    83    1
    83    96    95    1
    84    26    25    1
    85    49    48    1
    86    48    45    1
    87    67    62   am
    88    83    82   ar
    89    83    81   ar
    90    63    62    2
    91    44    45    1
    92    95    93   ar
    93    95    94   ar
    94    82    80   ar
    95    25    22    1
    96    81    79   ar
    97    62    61    1
    98    45    46    1
    99    93    91   ar
   100    94    92   ar
   101    80    78   ar
   102    65    64    1
   103    79    78   ar
   104    22    21    1
   105    22    23    1
   106    66    64    1
   107    78    77    1
   108    91    90   ar
   109    92    90   ar
   110    64    61    1
   111    61    60    1
   112    46    47    2
   113    23    24    2
   114    58    57    1
   115    90    89    1
   116    77    74    1
   117    56    55    2
   118    74    73    1
   119    74    75    1
   120    60    55   am
   121    55    54    1
   122    89    86    1
   123    57    54    1
   124    57    59    1
   125    86    85    1
   126    86    87    1
   127    54    53    1
   128    75    76    2
   129    87    88    2
