@<TRIPOS>MOLECULE
tmp/4xqmA00.pdb
 96 93 0 0 0
SMALL
GASTEIGER

@<TRIPOS>ATOM
      1  N         19.5680   10.9120   26.7640 N.3    16  TYR16      -0.1241
      2  CA        20.0590    9.8810   27.6760 C.3    16  TYR16       0.1605
      3  C         18.9390    9.2830   28.5050 C.2    16  TYR16       0.2264
      4  O         18.0550    9.9970   28.9860 O.2    16  TYR16      -0.2867
      5  CB        21.0460   10.4620   28.6900 C.3    16  TYR16       0.0534
      6  CG        22.2300   11.2210   28.1410 C.ar   16  TYR16      -0.0201
      7  CD1       23.3010   10.5600   27.5530 C.ar   16  TYR16      -0.0009
      8  CD2       22.3020   12.6030   28.2650 C.ar   16  TYR16      -0.0009
      9  CE1       24.4040   11.2650   27.0870 C.ar   16  TYR16       0.0417
     10  CE2       23.3950   13.3120   27.8030 C.ar   16  TYR16       0.0417
     11  CZ        24.4400   12.6380   27.2140 C.ar   16  TYR16       0.1957
     12  OH        25.5210   13.3490   26.7500 O.3    16  TYR16      -0.2866
     13  N         23.6750    6.2960   32.9870 N.3    28  GLN28      -0.1245
     14  CA        23.2940    7.1940   31.9060 C.3    28  GLN28       0.1566
     15  C         23.4400    6.3500   30.6490 C.2    28  GLN28       0.2260
     16  O         24.5740    6.0450   30.2510 O.2    28  GLN28      -0.2867
     17  CB        24.2600    8.3770   31.8520 C.3    28  GLN28       0.0367
     18  CG        24.0150    9.3630   30.7040 C.3    28  GLN28       0.0905
     19  CD        25.2260   10.2160   30.4410 C.2    28  GLN28       0.2608
     20  OE1       26.2790    9.7010   30.0530 O.2    28  GLN28      -0.2717
     21  NE2       25.0940   11.5270   30.6490 N.am   28  GLN28      -0.0878
     22  N         26.2410    3.7160   30.5510 N.3    31  ILE31      -0.1245
     23  CA        27.4040    4.2050   31.2790 C.3    31  ILE31       0.1561
     24  C         27.1510    4.2550   32.7910 C.2    31  ILE31       0.2260
     25  O         26.1440    4.8180   33.2350 O.2    31  ILE31      -0.2867
     26  CB        27.8100    5.6070   30.7740 C.3    31  ILE31       0.0252
     27  CG1       28.0570    5.5830   29.2610 C.3    31  ILE31       0.0019
     28  CG2       29.0480    6.1010   31.5180 C.3    31  ILE31       0.0019
     29  CD1       28.3310    6.9660   28.6670 C.3    31  ILE31       0.0001
     30  N         36.0590    9.0300   31.9880 N.3    52  CYS52      -0.1221
     31  CA        35.4980   10.1380   31.2380 C.3    52  CYS52       0.1808
     32  C         36.6130   10.8430   30.4730 C.2    52  CYS52       0.2601
     33  O         37.6030   11.2850   31.0610 O.2    52  CYS52      -0.2717
     34  CB        34.8490   11.1090   32.2270 C.3    52  CYS52       0.0970
     35  SG        34.1430   12.6130   31.5340 S.3    52  CYS52      -0.0800
     36  N         36.4550   10.9360   29.1570 N.am   53  TRP53      -0.1976
     37  CA        37.4510   11.5990   28.3200 C.3    53  TRP53       0.1640
     38  C         37.7080   13.0130   28.8320 C.2    53  TRP53       0.2290
     39  O         36.7870   13.8360   28.8730 O.2    53  TRP53      -0.2864
     40  CB        36.9350   11.6790   26.8880 C.3    53  TRP53       0.0576
     41  CG        37.9630   12.0340   25.8590 C.ar   53  TRP53       0.0006
     42  CD1       39.3180   12.0450   26.0060 C.ar   53  TRP53       0.0946
     43  CD2       37.7030   12.4290   24.5090 C.ar   53  TRP53       0.0152
     44  NE1       39.9200   12.4280   24.8200 N.ar   53  TRP53      -0.2442
     45  CE2       38.9360   12.6710   23.8850 C.ar   53  TRP53       0.0810
     46  CE3       36.5240   12.5980   23.7650 C.ar   53  TRP53       0.0012
     47  CZ2       39.0450   13.0590   22.5560 C.ar   53  TRP53       0.0191
     48  CZ3       36.6240   12.9890   22.4470 C.ar   53  TRP53       0.0001
     49  CH2       37.8750   13.2200   21.8530 C.ar   53  TRP53       0.0015
     50  N         33.3190    9.1480   36.6740 N.3    58  ARG58      -0.1245
     51  CA        32.0150    9.7530   36.9310 C.3    58  ARG58       0.1563
     52  C         31.5520    9.5660   38.3760 C.2    58  ARG58       0.2260
     53  O         31.9570    8.6280   39.0680 O.2    58  ARG58      -0.2867
     54  CB        30.9670    9.2370   35.9310 C.3    58  ARG58       0.0307
     55  CG        31.2120    9.7080   34.4840 C.3    58  ARG58       0.0489
     56  CD        30.2460    9.0270   33.5170 C.3    58  ARG58       0.2205
     57  NE        30.3990    9.4760   32.1260 N.pl3  58  ARG58      -0.0865
     58  CZ        31.3750    9.0460   31.3380 C.cat  58  ARG58       0.5346
     59  NH1       32.2620    8.1980   31.8260 N.pl3  58  ARG58       0.1354
     60  NH2       31.4810    9.4610   30.0810 N.pl3  58  ARG58       0.1354
     61  N         24.8630   18.6950   34.9150 N.3    77  GLU77      -0.1245
     62  CA        26.2730   18.3650   34.7740 C.3    77  GLU77       0.1567
     63  C         27.0250   19.6750   34.6340 C.2    77  GLU77       0.2260
     64  O         27.4890   20.0210   33.5560 O.2    77  GLU77      -0.2867
     65  CB        26.5100   17.4590   33.5640 C.3    77  GLU77       0.0388
     66  CG        27.9310   16.8970   33.5000 C.3    77  GLU77       0.1160
     67  CD        28.1730   15.9620   32.3130 C.2    77  GLU77       0.3649
     68  OE1       27.2330   15.6930   31.5250 O.co2  77  GLU77      -0.2457
     69  OE2       29.3190   15.4820   32.1770 O.co2  77  GLU77      -0.2457
     70  N         32.2250   18.7470   34.1500 N.3    80  LYS80      -0.1231
     71  CA        32.2820   17.5430   33.3180 C.3    80  LYS80       0.1693
     72  C         32.3300   16.2680   34.1640 C.2    80  LYS80       0.2592
     73  O         33.1830   16.1210   35.0560 O.2    80  LYS80      -0.2718
     74  CB        33.4880   17.5870   32.3710 C.3    80  LYS80       0.0285
     75  CG        33.5820   16.3800   31.4470 C.3    80  LYS80       0.0035
     76  CD        34.9130   16.3680   30.6680 C.3    80  LYS80       0.0206
     77  CE        35.0360   17.5730   29.7360 C.3    80  LYS80       0.1093
     78  NZ        34.1850   17.4520   28.5040 N.3    80  LYS80      -0.1314
     79  N         31.3660   15.3840   33.9050 N.am   81  CYS81      -0.1970
     80  CA        31.2720   14.0600   34.5220 C.3    81  CYS81       0.1712
     81  C         31.0310   14.0620   36.0260 C.2    81  CYS81       0.2296
     82  O         31.2870   13.0690   36.7170 O.2    81  CYS81      -0.2864
     83  CB        32.4530   13.1750   34.0990 C.3    81  CYS81       0.0983
     84  SG        32.2780   12.6920   32.3700 S.3    81  CYS81      -0.0798
     85  N         27.6410   14.6760   38.1710 N.3    83  TYR83      -0.1241
     86  CA        26.2170   14.8220   37.9300 C.3    83  TYR83       0.1605
     87  C         25.4770   15.1570   39.2220 C.2    83  TYR83       0.2264
     88  O         25.6790   14.5020   40.2460 O.2    83  TYR83      -0.2867
     89  CB        25.6600   13.5330   37.3280 C.3    83  TYR83       0.0534
     90  CG        26.3940   13.1160   36.0700 C.ar   83  TYR83      -0.0201
     91  CD1       27.5860   12.3930   36.1430 C.ar   83  TYR83      -0.0009
     92  CD2       25.9140   13.4700   34.8180 C.ar   83  TYR83      -0.0009
     93  CE1       28.2720   12.0240   34.9900 C.ar   83  TYR83       0.0417
     94  CE2       26.5880   13.1100   33.6550 C.ar   83  TYR83       0.0417
     95  CZ        27.7680   12.3860   33.7520 C.ar   83  TYR83       0.1957
     96  OH        28.4500   12.0200   32.6070 O.3    83  TYR83      -0.2866
@<TRIPOS>BOND
     1    49    48   ar
     2    49    47   ar
     3    48    46   ar
     4    47    45   ar
     5    46    43   ar
     6    45    43   ar
     7    45    44   ar
     8    43    41   ar
     9    44    42   ar
    10    41    42   ar
    11    41    40    1
    12    12    11    1
    13     1     2    1
    14    40    37    1
    15     9    11   ar
    16     9     7   ar
    17    11    10   ar
    18     7     6   ar
    19     2     3    1
    20     2     5    1
    21    10     8   ar
    22     6     8   ar
    23     6     5    1
    24    37    38    1
    25    37    36    1
    26    78    77    1
    27     3     4    2
    28    29    27    1
    29    38    39    2
    30    36    32   am
    31    27    26    1
    32    77    76    1
    33    20    19    2
    34    60    58    1
    35    16    15    2
    36    19    21   am
    37    19    18    1
    38    32    33    2
    39    32    31    1
    40    22    23    1
    41    15    14    1
    42    76    75    1
    43    18    17    1
    44    26    23    1
    45    26    28    1
    46    31    30    1
    47    31    34    1
    48    23    24    1
    49    58    59    1
    50    58    57    2
    51    75    74    1
    52    68    67   ar
    53    35    34    1
    54    35    84    1
    55    17    14    1
    56    14    13    1
    57    57    56    1
    58    69    67   ar
    59    67    66    1
    60    84    83    1
    61    74    71    1
    62    96    95    1
    63    24    25    2
    64    71    70    1
    65    71    72    1
    66    66    65    1
    67    56    55    1
    68    64    63    2
    69    65    62    1
    70    94    95   ar
    71    94    92   ar
    72    95    93   ar
    73    79    72   am
    74    79    80    1
    75    83    80    1
    76    72    73    2
    77    55    54    1
    78    80    81    1
    79    63    62    1
    80    62    61    1
    81    92    90   ar
    82    93    91   ar
    83    54    51    1
    84    81    82    2
    85    90    91   ar
    86    90    89    1
    87    50    51    1
    88    51    52    1
    89    89    86    1
    90    86    85    1
    91    86    87    1
    92    52    53    2
    93    87    88    2
