@<TRIPOS>MOLECULE
tmp/4xqwA00.pdb
 137 133 0 0 0
SMALL
GASTEIGER

@<TRIPOS>ATOM
      1  N          5.1180  -11.7110  -19.5460 N.3    17  TRP17      -0.1241
      2  CA         5.6340  -12.4790  -20.6650 C.3    17  TRP17       0.1605
      3  C          6.5890  -13.5350  -20.1550 C.2    17  TRP17       0.2264
      4  O          7.3050  -13.3130  -19.1850 O.2    17  TRP17      -0.2867
      5  CB         6.3640  -11.5570  -21.6450 C.3    17  TRP17       0.0550
      6  CG         7.1240  -12.3060  -22.6900 C.ar   17  TRP17       0.0003
      7  CD1        6.6500  -12.7300  -23.8960 C.ar   17  TRP17       0.0946
      8  CD2        8.4880  -12.7430  -22.6180 C.ar   17  TRP17       0.0152
      9  NE1        7.6340  -13.3990  -24.5840 N.ar   17  TRP17      -0.2442
     10  CE2        8.7720  -13.4190  -23.8220 C.ar   17  TRP17       0.0810
     11  CE3        9.4980  -12.6250  -21.6540 C.ar   17  TRP17       0.0012
     12  CZ2       10.0210  -13.9820  -24.0900 C.ar   17  TRP17       0.0191
     13  CZ3       10.7400  -13.1800  -21.9220 C.ar   17  TRP17       0.0001
     14  CH2       10.9900  -13.8480  -23.1320 C.ar   17  TRP17       0.0015
     15  N         13.1100  -17.5410  -19.0430 N.3    43  GLU43      -0.1245
     16  CA        13.1480  -16.0910  -19.0800 C.3    43  GLU43       0.1567
     17  C         11.7330  -15.5390  -18.9570 C.2    43  GLU43       0.2260
     18  O         10.8110  -16.0360  -19.6130 O.2    43  GLU43      -0.2867
     19  CB        13.7460  -15.6540  -20.4100 C.3    43  GLU43       0.0388
     20  CG        14.1030  -14.1950  -20.4990 C.3    43  GLU43       0.1160
     21  CD        14.8070  -13.8740  -21.8100 C.2    43  GLU43       0.3649
     22  OE1       14.4010  -14.4140  -22.8600 O.co2  43  GLU43      -0.2457
     23  OE2       15.7870  -13.0940  -21.7890 O.co2  43  GLU43      -0.2457
     24  N          9.2830  -11.6580  -17.7310 N.3    45  VAL45      -0.1245
     25  CA         9.1460  -10.2850  -17.2400 C.3    45  VAL45       0.1561
     26  C          7.6790  -10.0660  -16.8720 C.2    45  VAL45       0.2260
     27  O          6.7970  -10.3490  -17.6660 O.2    45  VAL45      -0.2867
     28  CB         9.5050   -9.2370  -18.3170 C.3    45  VAL45       0.0252
     29  CG1        9.3210   -7.8130  -17.7730 C.3    45  VAL45       0.0019
     30  CG2       10.9310   -9.4190  -18.8050 C.3    45  VAL45       0.0019
     31  N         15.9800   -9.2080  -12.0030 N.3    72  TYR72      -0.1241
     32  CA        15.9940   -7.7630  -11.7530 C.3    72  TYR72       0.1605
     33  C         14.6660   -7.2870  -11.1680 C.2    72  TYR72       0.2264
     34  O         13.6140   -7.8720  -11.4430 O.2    72  TYR72      -0.2867
     35  CB        16.2060   -6.9720  -13.0470 C.3    72  TYR72       0.0534
     36  CG        17.2530   -7.4840  -14.0120 C.ar   72  TYR72      -0.0201
     37  CD1       18.4810   -7.9730  -13.5750 C.ar   72  TYR72      -0.0009
     38  CD2       17.0110   -7.4480  -15.3760 C.ar   72  TYR72      -0.0009
     39  CE1       19.4330   -8.4120  -14.4860 C.ar   72  TYR72       0.0417
     40  CE2       17.9430   -7.8830  -16.2880 C.ar   72  TYR72       0.0417
     41  CZ        19.1610   -8.3600  -15.8360 C.ar   72  TYR72       0.1957
     42  OH        20.0960   -8.7880  -16.7590 O.3    72  TYR72      -0.2866
     43  N         10.7570   -0.3180  -15.5900 N.3    76  TYR76      -0.1241
     44  CA        11.1060   -0.8850  -16.8830 C.3    76  TYR76       0.1605
     45  C         10.1330   -0.3910  -17.9520 C.2    76  TYR76       0.2264
     46  O          8.9210   -0.3300  -17.7320 O.2    76  TYR76      -0.2867
     47  CB        11.0730   -2.4160  -16.7830 C.3    76  TYR76       0.0534
     48  CG        11.1540   -3.1340  -18.1040 C.ar   76  TYR76      -0.0201
     49  CD1       12.3700   -3.2910  -18.7580 C.ar   76  TYR76      -0.0009
     50  CD2       10.0070   -3.6580  -18.7020 C.ar   76  TYR76      -0.0009
     51  CE1       12.4410   -3.9540  -19.9790 C.ar   76  TYR76       0.0417
     52  CE2       10.0710   -4.3170  -19.9260 C.ar   76  TYR76       0.0417
     53  CZ        11.2900   -4.4560  -20.5610 C.ar   76  TYR76       0.1957
     54  OH        11.3670   -5.1020  -21.7790 O.3    76  TYR76      -0.2866
     55  N         14.8260    0.3040  -24.9690 N.3    85  GLU85      -0.1245
     56  CA        14.3590   -0.4420  -23.8080 C.3    85  GLU85       0.1567
     57  C         15.1280    0.1180  -22.6240 C.2    85  GLU85       0.2260
     58  O         16.3450    0.2140  -22.6810 O.2    85  GLU85      -0.2867
     59  CB        14.6520   -1.9330  -23.9980 C.3    85  GLU85       0.0388
     60  CG        14.2050   -2.8150  -22.8380 C.3    85  GLU85       0.1160
     61  CD        14.5180   -4.2750  -23.1090 C.2    85  GLU85       0.3649
     62  OE1       15.6760   -4.5800  -23.4690 O.co2  85  GLU85      -0.2457
     63  OE2       13.5980   -5.1240  -23.0110 O.co2  85  GLU85      -0.2457
     64  N         15.7950    0.7270  -18.1810 N.3    87  TYR87      -0.1241
     65  CA        15.6790    0.2020  -16.8300 C.3    87  TYR87       0.1605
     66  C         16.1870    1.2100  -15.8220 C.2    87  TYR87       0.2264
     67  O         17.2450    1.8020  -16.0160 O.2    87  TYR87      -0.2867
     68  CB        16.5840   -1.0160  -16.6540 C.3    87  TYR87       0.0534
     69  CG        16.2310   -2.2850  -17.3860 C.ar   87  TYR87      -0.0201
     70  CD1       16.5190   -2.4490  -18.7470 C.ar   87  TYR87      -0.0009
     71  CD2       15.6940   -3.3620  -16.6920 C.ar   87  TYR87      -0.0009
     72  CE1       16.2350   -3.6460  -19.3900 C.ar   87  TYR87       0.0417
     73  CE2       15.4060   -4.5470  -17.3140 C.ar   87  TYR87       0.0417
     74  CZ        15.6850   -4.6890  -18.6630 C.ar   87  TYR87       0.1957
     75  OH        15.3970   -5.8870  -19.2630 O.3    87  TYR87      -0.2866
     76  N         23.2470  -11.3580  -10.7990 N.3    95  TYR95      -0.1241
     77  CA        23.8660  -10.6680  -11.9290 C.3    95  TYR95       0.1605
     78  C         23.5080   -9.1840  -12.0030 C.2    95  TYR95       0.2264
     79  O         22.3370   -8.8170  -12.1260 O.2    95  TYR95      -0.2867
     80  CB        23.4750  -11.3500  -13.2440 C.3    95  TYR95       0.0534
     81  CG        24.0830  -10.7290  -14.4870 C.ar   95  TYR95      -0.0201
     82  CD1       25.4690  -10.6620  -14.6470 C.ar   95  TYR95      -0.0009
     83  CD2       23.2800  -10.2130  -15.4970 C.ar   95  TYR95      -0.0009
     84  CE1       26.0360  -10.1180  -15.7890 C.ar   95  TYR95       0.0417
     85  CE2       23.8430   -9.6570  -16.6420 C.ar   95  TYR95       0.0417
     86  CZ        25.2180   -9.6120  -16.7740 C.ar   95  TYR95       0.1957
     87  OH        25.7750   -9.0630  -17.9120 O.3    95  TYR95      -0.2866
     88  N         23.1430   -6.1970  -14.1830 N.3    97  PRO97      -0.2116
     89  CA        22.9440   -6.1620  -15.6370 C.3    97  PRO97       0.1372
     90  C         23.8900   -5.2290  -16.3790 C.2    97  PRO97       0.2244
     91  O         23.9260   -5.2790  -17.6160 O.2    97  PRO97      -0.2868
     92  CB        21.4930   -5.6920  -15.7880 C.3    97  PRO97       0.0268
     93  CG        21.1940   -4.9620  -14.5240 C.3    97  PRO97       0.0207
     94  CD        21.9810   -5.6620  -13.4470 C.3    97  PRO97       0.0892
     95  N         21.2270   -4.3360  -27.8920 N.3   121  ARG121     -0.1245
     96  CA        20.6760   -5.6570  -28.1480 C.3   121  ARG121      0.1563
     97  C         20.6240   -5.8220  -29.6620 C.2   121  ARG121      0.2260
     98  O         20.1580   -4.9320  -30.3620 O.2   121  ARG121     -0.2867
     99  CB        19.2770   -5.7800  -27.5430 C.3   121  ARG121      0.0307
    100  CG        19.2600   -5.6130  -26.0330 C.3   121  ARG121      0.0489
    101  CD        19.6880   -6.8760  -25.3030 C.3   121  ARG121      0.2205
    102  NE        18.6000   -7.8450  -25.3040 N.pl3 121  ARG121     -0.0865
    103  CZ        18.7320   -9.1300  -24.9890 C.cat 121  ARG121      0.5346
    104  NH1       19.9120   -9.6140  -24.6430 N.pl3 121  ARG121      0.1354
    105  NH2       17.6720   -9.9260  -25.0300 N.pl3 121  ARG121      0.1354
    106  N         19.7260   -0.1390  -25.1000 N.3   135  GLN135     -0.1245
    107  CA        19.1350   -0.1520  -23.7640 C.3   135  GLN135      0.1566
    108  C         19.8160    0.9210  -22.9320 C.2   135  GLN135      0.2260
    109  O         21.0340    1.0830  -23.0030 O.2   135  GLN135     -0.2867
    110  CB        19.3580   -1.4980  -23.0710 C.3   135  GLN135      0.0367
    111  CG        18.8180   -2.6950  -23.8020 C.3   135  GLN135      0.0905
    112  CD        19.3140   -3.9870  -23.1920 C.2   135  GLN135      0.2608
    113  OE1       20.5200   -4.2460  -23.1390 O.2   135  GLN135     -0.2717
    114  NE2       18.3830   -4.8150  -22.7180 N.am  135  GLN135     -0.0878
    115  N         20.3950    2.1870  -18.9190 N.3   137  TRP137     -0.1241
    116  CA        20.3500    1.6920  -17.5450 C.3   137  TRP137      0.1605
    117  C         20.7400    2.7570  -16.5390 C.2   137  TRP137      0.2264
    118  O         21.7570    3.4440  -16.7080 O.2   137  TRP137     -0.2867
    119  CB        21.3330    0.5290  -17.3430 C.3   137  TRP137      0.0550
    120  CG        21.2090   -0.5940  -18.3160 C.ar  137  TRP137      0.0003
    121  CD1       21.7620   -0.6680  -19.5670 C.ar  137  TRP137      0.0946
    122  CD2       20.5320   -1.8370  -18.1010 C.ar  137  TRP137      0.0152
    123  NE1       21.4440   -1.8740  -20.1520 N.ar  137  TRP137     -0.2442
    124  CE2       20.6910   -2.6070  -19.2730 C.ar  137  TRP137      0.0810
    125  CE3       19.7900   -2.3660  -17.0410 C.ar  137  TRP137      0.0012
    126  CZ2       20.1320   -3.8860  -19.4140 C.ar  137  TRP137      0.0191
    127  CZ3       19.2370   -3.6270  -17.1760 C.ar  137  TRP137      0.0001
    128  CH2       19.4150   -4.3780  -18.3500 C.ar  137  TRP137      0.0015
    129  N         11.9480   -9.2240  -13.4270 N.3   176  GLU176     -0.1245
    130  CA        12.4580   -9.9870  -14.5600 C.3   176  GLU176      0.1567
    131  C         13.2840  -11.1390  -14.0210 C.2   176  GLU176      0.2260
    132  O         13.9330  -11.0050  -12.9960 O.2   176  GLU176     -0.2867
    133  CB        13.3210   -9.0850  -15.4490 C.3   176  GLU176      0.0388
    134  CG        14.0230   -9.8170  -16.5940 C.3   176  GLU176      0.1160
    135  CD        14.5350   -8.8960  -17.6910 C.2   176  GLU176      0.3649
    136  OE1       14.1700   -7.7020  -17.7210 O.co2 176  GLU176     -0.2457
    137  OE2       15.3040   -9.3790  -18.5440 O.co2 176  GLU176     -0.2457
@<TRIPOS>BOND
     1    98    97    2
     2    97    96    1
     3    96    95    1
     4    96    99    1
     5    99   100    1
     6   100   101    1
     7   102   101    1
     8   102   103    2
     9   106   107    1
    10   105   103    1
    11   103   104    1
    12    55    56    1
    13     9     7   ar
    14     9    10   ar
    15    12    10   ar
    16    12    14   ar
    17    59    56    1
    18    59    60    1
    19     7     6   ar
    20    10     8   ar
    21    56    57    1
    22   111   112    1
    23   111   110    1
    24   107   110    1
    25   107   108    1
    26    62    61   ar
    27   112   113    2
    28   112   114   am
    29    14    13   ar
    30    61    63   ar
    31    61    60    1
    32   109   108    2
    33    22    21   ar
    34     6     8   ar
    35     6     5    1
    36    58    57    2
    37     8    11   ar
    38    13    11   ar
    39    21    23   ar
    40    21    20    1
    41    54    53    1
    42     5     2    1
    43     2     3    1
    44     2     1    1
    45    53    51   ar
    46    53    52   ar
    47    20    19    1
    48    19    16    1
    49     3     4    2
    50   123   121   ar
    51   123   124   ar
    52    51    49   ar
    53    52    50   ar
    54    18    17    2
    55   121   120   ar
    56   126   124   ar
    57   126   128   ar
    58    72    70   ar
    59    72    74   ar
    60   124   122   ar
    61    75    74    1
    62    16    15    1
    63    16    17    1
    64   115   116    1
    65    30    28    1
    66    49    48   ar
    67    70    69   ar
    68    50    48   ar
    69    74    73   ar
    70   137   135   ar
    71   128   127   ar
    72    28    29    1
    73    28    25    1
    74   120   122   ar
    75   120   119    1
    76    64    65    1
    77    48    47    1
    78   122   125   ar
    79    45    46    2
    80    45    44    1
    81    87    86    1
    82    24    25    1
    83   136   135   ar
    84   135   134    1
    85    27    26    2
    86    91    90    2
    87   116   119    1
    88   116   117    1
    89    69    71   ar
    90    69    68    1
    91    73    71   ar
    92    25    26    1
    93   127   125   ar
    94    44    47    1
    95    44    43    1
    96    65    68    1
    97    65    66    1
    98    86    85   ar
    99    86    84   ar
   100    42    41    1
   101   118   117    2
   102    85    83   ar
   103   134   133    1
   104    90    89    1
   105    40    41   ar
   106    40    38   ar
   107    67    66    2
   108    41    39   ar
   109    84    82   ar
   110    92    89    1
   111    92    93    1
   112    89    88    1
   113    83    81   ar
   114   133   130    1
   115    38    36   ar
   116    82    81   ar
   117   130   131    1
   118   130   129    1
   119    93    94    1
   120    81    80    1
   121    39    37   ar
   122    88    94    1
   123   131   132    2
   124    36    37   ar
   125    36    35    1
   126    80    77    1
   127    35    32    1
   128    79    78    2
   129    31    32    1
   130    78    77    1
   131    77    76    1
   132    32    33    1
   133    34    33    2
