@<TRIPOS>MOLECULE
tmp/4xr5A00.pdb
 96 91 0 0 0
SMALL
GASTEIGER

@<TRIPOS>ATOM
      1  N        -15.5220   46.6770  -10.3900 N.3   248  SER248     -0.1202
      2  CA       -16.8960   46.2360  -10.1970 C.3   248  SER248      0.2020
      3  C        -17.5230   45.8070  -11.5040 C.2   248  SER248      0.2619
      4  O        -18.7000   45.4800  -11.5470 O.2   248  SER248     -0.2717
      5  CB       -17.7320   47.3410   -9.5630 C.3   248  SER248      0.2103
      6  OG       -17.2900   47.5940   -8.2370 O.3   248  SER248     -0.2182
      7  N        -16.7400   45.8140  -12.5760 N.am  249  SER249     -0.1951
      8  CA       -17.2550   45.4610  -13.9000 C.3   249  SER249      0.1924
      9  C        -16.2030   44.6740  -14.7000 C.2   249  SER249      0.2314
     10  O        -15.0080   44.8880  -14.5200 O.2   249  SER249     -0.2863
     11  CB       -17.6950   46.7360  -14.6540 C.3   249  SER249      0.2116
     12  OG       -18.6420   47.4970  -13.9030 O.3   249  SER249     -0.2180
     13  N        -18.0440   48.0540  -20.6780 N.3   254  VAL254     -0.1245
     14  CA       -18.4530   48.2410  -19.2890 C.3   254  VAL254      0.1561
     15  C        -17.2710   48.5670  -18.3730 C.2   254  VAL254      0.2260
     16  O        -17.4530   49.2040  -17.3270 O.2   254  VAL254     -0.2867
     17  CB       -19.1850   47.0060  -18.7540 C.3   254  VAL254      0.0252
     18  CG1      -20.6310   47.0370  -19.2110 C.3   254  VAL254      0.0019
     19  CG2      -18.4790   45.7210  -19.2100 C.3   254  VAL254      0.0019
     20  N        -16.5610   52.3110  -18.9470 N.3   257  ARG257     -0.1231
     21  CA       -17.4630   53.1060  -18.1150 C.3   257  ARG257      0.1694
     22  C        -16.8900   53.3000  -16.7250 C.2   257  ARG257      0.2591
     23  O        -16.8810   54.4150  -16.2140 O.2   257  ARG257     -0.2718
     24  CB       -18.8620   52.4730  -17.9980 C.3   257  ARG257      0.0321
     25  CG       -19.7910   52.8260  -19.1360 C.3   257  ARG257      0.0489
     26  CD       -21.2680   52.6870  -18.7660 C.3   257  ARG257      0.2205
     27  NE       -21.5470   51.3970  -18.1510 N.pl3 257  ARG257     -0.0865
     28  CZ       -22.2430   51.2340  -17.0250 C.cat 257  ARG257      0.5346
     29  NH1      -22.7650   52.2870  -16.3930 N.pl3 257  ARG257      0.1354
     30  NH2      -22.4370   50.0070  -16.5400 N.pl3 257  ARG257      0.1354
     31  N        -16.4100   52.2250  -16.1060 N.am  258  GLU258     -0.1979
     32  CA       -15.9680   52.3420  -14.7250 C.3   258  GLU258      0.1602
     33  C        -14.6540   53.0990  -14.6500 C.2   258  GLU258      0.2287
     34  O        -14.3750   53.7690  -13.6640 O.2   258  GLU258     -0.2864
     35  CB       -15.8280   50.9750  -14.0570 C.3   258  GLU258      0.0415
     36  CG       -15.6780   51.1010  -12.5450 C.3   258  GLU258      0.1163
     37  CD       -15.7120   49.7690  -11.8140 C.2   258  GLU258      0.3649
     38  OE1      -15.9320   48.7230  -12.4600 O.co2 258  GLU258     -0.2457
     39  OE2      -15.4990   49.7740  -10.5830 O.co2 258  GLU258     -0.2457
     40  N        -15.8520   56.8860  -14.6440 N.3   261  GLN261     -0.1245
     41  CA       -16.4510   57.1270  -13.3220 C.3   261  GLN261      0.1566
     42  C        -15.4190   57.2210  -12.1790 C.2   261  GLN261      0.2260
     43  O        -15.5620   58.0320  -11.2570 O.2   261  GLN261     -0.2867
     44  CB       -17.4590   56.0260  -13.0070 C.3   261  GLN261      0.0367
     45  CG       -18.7040   56.0690  -13.8490 C.3   261  GLN261      0.0905
     46  CD       -19.3780   54.7110  -13.9380 C.2   261  GLN261      0.2608
     47  OE1      -19.0600   53.7800  -13.1820 O.2   261  GLN261     -0.2717
     48  NE2      -20.3080   54.5830  -14.8710 N.am  261  GLN261     -0.0878
     49  N        -17.2070   59.7230   -9.9200 N.3   266  GLU266     -0.1231
     50  CA       -18.5830   59.2780   -9.9480 C.3   266  GLU266      0.1699
     51  C        -18.7720   58.0170   -9.0810 C.2   266  GLU266      0.2592
     52  O        -19.7260   57.9150   -8.2970 O.2   266  GLU266     -0.2718
     53  CB       -18.9840   59.0190  -11.4030 C.3   266  GLU266      0.0402
     54  CG       -20.4690   58.8740  -11.6640 C.3   266  GLU266      0.1161
     55  CD       -20.7830   58.7980  -13.1460 C.2   266  GLU266      0.3649
     56  OE1      -20.1060   59.5040  -13.9260 O.co2 266  GLU266     -0.2457
     57  OE2      -21.7020   58.0370  -13.5280 O.co2 266  GLU266     -0.2457
     58  N        -17.8670   57.0540   -9.2560 N.am  267  TYR267     -0.1976
     59  CA       -17.8420   55.8400   -8.4510 C.3   267  TYR267      0.1639
     60  C        -16.3980   55.3260   -8.3250 C.2   267  TYR267      0.2290
     61  O        -15.6530   55.2990   -9.3120 O.2   267  TYR267     -0.2864
     62  CB       -18.7650   54.7800   -9.0810 C.3   267  TYR267      0.0560
     63  CG       -18.6670   53.3730   -8.4900 C.ar  267  TYR267     -0.0198
     64  CD1      -19.2990   53.0470   -7.2970 C.ar  267  TYR267     -0.0009
     65  CD2      -17.9690   52.3680   -9.1470 C.ar  267  TYR267     -0.0009
     66  CE1      -19.2130   51.7800   -6.7720 C.ar  267  TYR267      0.0417
     67  CE2      -17.8870   51.0930   -8.6210 C.ar  267  TYR267      0.0417
     68  CZ       -18.5090   50.8110   -7.4360 C.ar  267  TYR267      0.1957
     69  OH       -18.4240   49.5520   -6.9110 O.3   267  TYR267     -0.2866
     70  N        -19.5750   59.9500  -22.2930 N.3   330  TYR330     -0.1241
     71  CA       -19.2940   58.5030  -22.4540 C.3   330  TYR330      0.1605
     72  C        -20.5890   57.6620  -22.5670 C.2   330  TYR330      0.2264
     73  O        -20.6170   56.6260  -23.2430 O.2   330  TYR330     -0.2867
     74  CB       -18.4300   57.9850  -21.2740 C.3   330  TYR330      0.0534
     75  CG       -19.1770   57.8170  -19.9560 C.ar  330  TYR330     -0.0201
     76  CD1      -19.7960   56.6050  -19.6340 C.ar  330  TYR330     -0.0009
     77  CD2      -19.2770   58.8650  -19.0430 C.ar  330  TYR330     -0.0009
     78  CE1      -20.4870   56.4370  -18.4540 C.ar  330  TYR330      0.0417
     79  CE2      -19.9740   58.7050  -17.8520 C.ar  330  TYR330      0.0417
     80  CZ       -20.5740   57.4850  -17.5670 C.ar  330  TYR330      0.1957
     81  OH       -21.2700   57.3060  -16.3920 O.3   330  TYR330     -0.2866
     82  N        -21.5130   43.8590  -14.5150 N.3   384  THR384     -0.1203
     83  CA       -21.3790   45.0820  -13.7250 C.3   384  THR384      0.1994
     84  C        -21.9630   44.8190  -12.3520 C.2   384  THR384      0.2617
     85  O        -22.5740   43.7810  -12.1370 O.2   384  THR384     -0.2717
     86  CB       -22.0810   46.3090  -14.3620 C.3   384  THR384      0.1784
     87  OG1      -23.3940   45.9500  -14.8090 O.3   384  THR384     -0.2211
     88  CG2      -21.2740   46.8500  -15.5260 C.3   384  THR384      0.0376
     89  N        -21.7390   45.7380  -11.4180 N.am  385  ASP385     -0.1973
     90  CA       -22.2640   45.5940  -10.0680 C.3   385  ASP385      0.1709
     91  C        -21.8520   44.2730   -9.3990 C.2   385  ASP385      0.2293
     92  O        -22.5900   43.7390   -8.5630 O.2   385  ASP385     -0.2864
     93  CB       -23.7830   45.7080  -10.1000 C.3   385  ASP385      0.1436
     94  CG       -24.2470   47.0370  -10.6280 C.2   385  ASP385      0.3671
     95  OD1      -24.1170   48.0280   -9.8830 O.co2 385  ASP385     -0.2456
     96  OD2      -24.7270   47.0980  -11.7830 O.co2 385  ASP385     -0.2456
@<TRIPOS>BOND
     1    73    72    2
     2    72    71    1
     3    71    70    1
     4    71    74    1
     5    74    75    1
     6    13    14    1
     7    75    76   ar
     8    75    77   ar
     9    76    78   ar
    10    14    17    1
    11    14    15    1
    12    18    17    1
    13    19    17    1
    14    25    26    1
    15    25    24    1
    16    77    79   ar
    17    20    21    1
    18    26    27    1
    19    78    80   ar
    20    15    16    2
    21    27    28    2
    22    21    24    1
    23    21    22    1
    24    79    80   ar
    25    80    81    1
    26    28    30    1
    27    28    29    1
    28    22    23    2
    29    22    31   am
    30    31    32    1
    31    88    86    1
    32    48    46   am
    33    87    86    1
    34    32    33    1
    35    32    35    1
    36     9    10    2
    37     9     8    1
    38    11    12    1
    39    11     8    1
    40    33    34    2
    41    40    41    1
    42    82    83    1
    43    86    83    1
    44    35    36    1
    45    46    45    1
    46    46    47    2
    47    56    55   ar
    48     8     7    1
    49    45    44    1
    50    83    84    1
    51    57    55   ar
    52    41    44    1
    53    41    42    1
    54    55    54    1
    55     7     3   am
    56    36    37    1
    57    38    37   ar
    58    84    85    2
    59    84    89   am
    60    42    43    2
    61    37    39   ar
    62    96    94   ar
    63    54    53    1
    64     4     3    2
    65     3     2    1
    66    89    90    1
    67    53    50    1
    68    94    93    1
    69    94    95   ar
    70     1     2    1
    71     2     5    1
    72    93    90    1
    73    90    91    1
    74    50    49    1
    75    50    51    1
    76     5     6    1
    77    91    92    2
    78    61    60    2
    79    58    51   am
    80    58    59    1
    81    65    67   ar
    82    65    63   ar
    83    62    63    1
    84    62    59    1
    85    51    52    2
    86    67    68   ar
    87    63    64   ar
    88    59    60    1
    89    68    69    1
    90    68    66   ar
    91    64    66   ar
