@<TRIPOS>MOLECULE
tmp/4xr9A01.pdb
 117 111 0 0 0
SMALL
GASTEIGER

@<TRIPOS>ATOM
      1  N          0.7840   13.0520  -33.4630 N.3   170  ALA170     -0.1231
      2  CA         2.0280   13.8110  -33.5870 C.3   170  ALA170      0.1694
      3  C          2.1890   14.2550  -35.0340 C.2   170  ALA170      0.2591
      4  O          1.9560   13.4600  -35.9510 O.2   170  ALA170     -0.2718
      5  CB         3.2200   12.9700  -33.1460 C.3   170  ALA170      0.0304
      6  N          2.5700   15.5270  -35.2440 N.am  171  GLU171     -0.1979
      7  CA         2.7420   16.1070  -36.5850 C.3   171  GLU171      0.1602
      8  C          3.7980   15.3580  -37.4040 C.2   171  GLU171      0.2287
      9  O          4.8230   14.9590  -36.8660 O.2   171  GLU171     -0.2864
     10  CB         3.0750   17.6030  -36.4960 C.3   171  GLU171      0.0415
     11  CG         1.9040   18.4380  -35.9800 C.3   171  GLU171      0.1163
     12  CD         2.0000   19.9410  -36.1800 C.2   171  GLU171      0.3649
     13  OE1        2.3680   20.3750  -37.2970 O.co2 171  GLU171     -0.2457
     14  OE2        1.6380   20.6870  -35.2400 O.co2 171  GLU171     -0.2457
     15  N          5.5250   15.7840  -21.4760 N.3   228  ILE228     -0.1245
     16  CA         6.4800   15.9000  -22.5950 C.3   228  ILE228      0.1561
     17  C          7.3590   17.1960  -22.4600 C.2   228  ILE228      0.2260
     18  O          8.5900   17.1120  -22.4870 O.2   228  ILE228     -0.2867
     19  CB         5.7580   15.8640  -23.9580 C.3   228  ILE228      0.0252
     20  CG1        5.0520   14.4860  -24.1800 C.3   228  ILE228      0.0019
     21  CG2        6.7820   16.1460  -25.0930 C.3   228  ILE228      0.0019
     22  CD1        3.9690   14.5130  -25.3010 C.3   228  ILE228      0.0001
     23  N         11.3670   17.3930  -21.8310 N.3   232  VAL232     -0.1245
     24  CA        12.3040   18.0490  -22.7620 C.3   232  VAL232      0.1561
     25  C         13.1660   19.0550  -21.9630 C.2   232  VAL232      0.2260
     26  O         14.3610   19.2050  -22.2500 O.2   232  VAL232     -0.2867
     27  CB        11.6120   18.7250  -23.9790 C.3   232  VAL232      0.0252
     28  CG1       12.6270   19.5430  -24.7970 C.3   232  VAL232      0.0019
     29  CG2       10.9220   17.6880  -24.8700 C.3   232  VAL232      0.0019
     30  N         14.0620   12.2580  -22.5390 N.3   269  LEU269     -0.1231
     31  CA        13.7800   12.6260  -23.9220 C.3   269  LEU269      0.1693
     32  C         15.0290   13.2430  -24.5640 C.2   269  LEU269      0.2592
     33  O         16.0420   13.3960  -23.9040 O.2   269  LEU269     -0.2718
     34  CB        12.5580   13.5890  -23.9950 C.3   269  LEU269      0.0284
     35  CG        11.2210   12.9980  -23.5070 C.3   269  LEU269      0.0019
     36  CD1       10.0710   13.9850  -23.7290 C.3   269  LEU269      0.0001
     37  CD2       10.9080   11.6440  -24.2090 C.3   269  LEU269      0.0001
     38  N         14.9780   13.5280  -25.8610 N.am  270  LEU270     -0.1966
     39  CA        16.1440   14.0510  -26.5550 C.3   270  LEU270      0.1713
     40  C         16.2420   15.5640  -26.4140 C.2   270  LEU270      0.2458
     41  O         15.2310   16.2610  -26.5210 O.2   270  LEU270     -0.2730
     42  CB        16.1300   13.6430  -28.0310 C.3   270  LEU270      0.0310
     43  CG        16.3260   12.1210  -28.3040 C.3   270  LEU270      0.0022
     44  CD1       16.1000   11.8010  -29.7490 C.3   270  LEU270      0.0001
     45  CD2       17.7190   11.6540  -27.8810 C.3   270  LEU270      0.0001
     46  N         17.4590   16.0960  -26.1550 N.am  271  PRO271     -0.2716
     47  CA        17.6130   17.5500  -26.0820 C.3   271  PRO271      0.1536
     48  C         17.5400   18.1580  -27.4800 C.2   271  PRO271      0.2599
     49  O         17.5460   17.4250  -28.4790 O.2   271  PRO271     -0.2715
     50  CB        19.0130   17.7140  -25.4750 C.3   271  PRO271      0.0310
     51  CG        19.7600   16.5410  -25.9780 C.3   271  PRO271      0.0237
     52  CD        18.7580   15.4110  -25.9770 C.3   271  PRO271      0.0939
     53  N         17.4410   19.4740  -27.5440 N.am  272  GLY272     -0.1955
     54  CA        17.3520   20.1680  -28.8270 C.3   272  GLY272      0.1869
     55  C         17.7380   21.6240  -28.7430 C.2   272  GLY272      0.2309
     56  O         18.6020   21.9960  -27.9530 O.2   272  GLY272     -0.2863
     57  N         15.2460   23.9340  -28.4440 N.3   274  GLY274     -0.1210
     58  CA        14.0680   24.5210  -27.8330 C.3   274  GLY274      0.1956
     59  C         12.8020   23.7890  -28.1930 C.2   274  GLY274      0.2612
     60  O         12.8470   22.6880  -28.7470 O.2   274  GLY274     -0.2717
     61  N         11.6640   24.3840  -27.8550 N.am  275  VAL275     -0.1965
     62  CA        10.3710   23.7580  -28.0770 C.3   275  VAL275      0.1727
     63  C          9.4260   24.7230  -28.7960 C.2   275  VAL275      0.2616
     64  O          9.3020   25.8910  -28.4000 O.2   275  VAL275     -0.2715
     65  CB         9.7570   23.2440  -26.7470 C.3   275  VAL275      0.0290
     66  CG1        8.3480   22.7010  -26.9640 C.3   275  VAL275      0.0023
     67  CG2       10.6420   22.1730  -26.1100 C.3   275  VAL275      0.0023
     68  N          8.8040   24.2200  -29.8590 N.am  276  GLY276     -0.1955
     69  CA         7.8420   24.9620  -30.6630 C.3   276  GLY276      0.1869
     70  C          6.5240   24.2280  -30.8420 C.2   276  GLY276      0.2309
     71  O          6.2760   23.2110  -30.1860 O.2   276  GLY276     -0.2863
     72  N          3.0080   22.0060  -27.0140 N.3   280  LEU280     -0.1245
     73  CA         3.8870   22.0660  -25.8580 C.3   280  LEU280      0.1561
     74  C          4.1230   23.4770  -25.2800 C.2   280  LEU280      0.2260
     75  O          4.5050   23.5840  -24.1240 O.2   280  LEU280     -0.2867
     76  CB         5.2290   21.4020  -26.1730 C.3   280  LEU280      0.0270
     77  CG         5.1880   19.9340  -26.6400 C.3   280  LEU280      0.0019
     78  CD1        6.5920   19.3870  -26.7450 C.3   280  LEU280      0.0001
     79  CD2        4.3860   19.0550  -25.6800 C.3   280  LEU280      0.0001
     80  N          9.9000   23.4210  -36.7010 N.3   342  PHE342     -0.1227
     81  CA         9.9210   23.2560  -35.2440 C.3   342  PHE342      0.1736
     82  C         10.2540   21.8310  -34.8540 C.2   342  PHE342      0.2595
     83  O         10.6140   21.5690  -33.7110 O.2   342  PHE342     -0.2718
     84  CB         8.5540   23.6640  -34.6390 C.3   342  PHE342      0.0547
     85  CG         7.4650   22.6150  -34.7150 C.ar  342  PHE342     -0.0202
     86  CD1        6.8060   22.3560  -35.9130 C.ar  342  PHE342     -0.0042
     87  CD2        7.0770   21.9080  -33.5830 C.ar  342  PHE342     -0.0042
     88  CE1        5.7980   21.3870  -35.9810 C.ar  342  PHE342     -0.0003
     89  CE2        6.0590   20.9500  -33.6500 C.ar  342  PHE342     -0.0003
     90  CZ         5.4290   20.6940  -34.8490 C.ar  342  PHE342     -0.0000
     91  N         10.0700   20.9090  -35.7870 N.am  343  LYS343     -0.1980
     92  CA        10.2200   19.4810  -35.5750 C.3   343  LYS343      0.1596
     93  C         10.9100   18.8370  -36.7560 C.2   343  LYS343      0.2287
     94  O         10.7710   19.3130  -37.8820 O.2   343  LYS343     -0.2864
     95  CB         8.8130   18.8850  -35.4420 C.3   343  LYS343      0.0298
     96  CG         8.7010   17.7170  -34.5080 C.3   343  LYS343      0.0038
     97  CD         7.2490   17.3980  -34.3180 C.3   343  LYS343      0.0206
     98  CE         6.8650   16.1050  -34.9660 C.3   343  LYS343      0.1093
     99  NZ         6.5310   15.0640  -33.9640 N.3   343  LYS343     -0.1314
    100  N         11.3030   27.0970  -32.6660 N.3   353  PRO353     -0.2116
    101  CA        12.4050   27.6320  -31.8440 C.3   353  PRO353      0.1372
    102  C         13.5870   28.1140  -32.6980 C.2   353  PRO353      0.2244
    103  O         14.3630   28.9310  -32.2290 O.2   353  PRO353     -0.2868
    104  CB        12.8070   26.4410  -30.9640 C.3   353  PRO353      0.0268
    105  CG        12.3600   25.2500  -31.6930 C.3   353  PRO353      0.0207
    106  CD        11.1280   25.6440  -32.4550 C.3   353  PRO353      0.0892
    107  N         19.8410   19.2900  -33.8850 N.3   433  ARG433     -0.1245
    108  CA        18.8080   18.2490  -33.8470 C.3   433  ARG433      0.1563
    109  C         19.1110   17.0550  -34.7970 C.2   433  ARG433      0.2260
    110  O         18.2140   16.2590  -35.0690 O.2   433  ARG433     -0.2867
    111  CB        17.4220   18.8570  -34.1630 C.3   433  ARG433      0.0307
    112  CG        16.6700   19.3720  -32.9200 C.3   433  ARG433      0.0489
    113  CD        15.1550   19.4020  -33.1220 C.3   433  ARG433      0.2205
    114  NE        14.7560   20.3930  -34.1270 N.pl3 433  ARG433     -0.0865
    115  CZ        13.9520   21.4280  -33.8950 C.cat 433  ARG433      0.5346
    116  NH1       13.4150   21.6050  -32.6930 N.pl3 433  ARG433      0.1354
    117  NH2       13.6600   22.2790  -34.8680 N.pl3 433  ARG433      0.1354
@<TRIPOS>BOND
     1    94    93    2
     2     8     9    2
     3     8     7    1
     4    13    12   ar
     5    93    92    1
     6    80    81    1
     7     7    10    1
     8     7     6    1
     9    10    11    1
    10    12    11    1
    11    12    14   ar
    12    88    86   ar
    13    88    90   ar
    14     4     3    2
    15    86    85   ar
    16    91    92    1
    17    91    82   am
    18    92    95    1
    19    95    96    1
    20     6     3   am
    21    81    82    1
    22    81    84    1
    23   110   109    2
    24     3     2    1
    25    98    97    1
    26    98    99    1
    27   117   115    1
    28    82    83    2
    29    90    89   ar
    30   109   108    1
    31    85    84    1
    32    85    87   ar
    33    96    97    1
    34   111   108    1
    35   111   112    1
    36   114   115    2
    37   114   113    1
    38   115   116    1
    39   107   108    1
    40    89    87   ar
    41     2     1    1
    42     2     5    1
    43   113   112    1
    44   102   103    2
    45   102   101    1
    46   100   106    1
    47   100   101    1
    48   106   105    1
    49   101   104    1
    50   105   104    1
    51    70    69    1
    52    70    71    2
    53    69    68    1
    54    68    63   am
    55    44    43    1
    56    54    55    1
    57    54    53    1
    58    63    64    2
    59    63    62    1
    60    60    59    2
    61    55    56    2
    62    49    48    2
    63    57    58    1
    64    43    42    1
    65    43    45    1
    66    59    61   am
    67    59    58    1
    68    62    61    1
    69    62    65    1
    70    42    39    1
    71    53    48   am
    72    48    47    1
    73    72    73    1
    74    66    65    1
    75    65    67    1
    76    78    77    1
    77    77    76    1
    78    77    79    1
    79    39    40    1
    80    39    38    1
    81    41    40    2
    82    40    46   am
    83    76    73    1
    84    46    47    1
    85    46    52    1
    86    47    50    1
    87    51    52    1
    88    51    50    1
    89    38    32   am
    90    73    74    1
    91    22    20    1
    92    74    75    2
    93    21    19    1
    94    29    27    1
    95    28    27    1
    96    32    31    1
    97    32    33    2
    98    37    35    1
    99    20    19    1
   100    34    31    1
   101    34    35    1
   102    27    24    1
   103    19    16    1
   104    31    30    1
   105    36    35    1
   106    24    25    1
   107    24    23    1
   108    16    17    1
   109    16    15    1
   110    18    17    2
   111    26    25    2
