@<TRIPOS>MOLECULE
tmp/4xruC00.pdb
 172 165 0 0 0
SMALL
GASTEIGER

@<TRIPOS>ATOM
      1  N        -66.0370   34.8890  -42.7990 N.3   250  HIS250     -0.1241
      2  CA       -64.7400   34.2570  -42.9790 C.3   250  HIS250      0.1621
      3  C        -64.9880   32.7690  -43.0440 C.2   250  HIS250      0.2264
      4  O        -65.8620   32.2400  -42.3570 O.2   250  HIS250     -0.2867
      5  CB       -63.7670   34.5520  -41.8380 C.3   250  HIS250      0.0745
      6  CG       -62.5160   33.7260  -41.9000 C.ar  250  HIS250      0.0817
      7  ND1      -61.4830   34.0060  -42.7720 N.ar  250  HIS250     -0.2268
      8  CD2      -62.1480   32.6100  -41.2260 C.ar  250  HIS250      0.1154
      9  CE1      -60.5240   33.1090  -42.6150 C.ar  250  HIS250      0.1986
     10  NE2      -60.9030   32.2500  -41.6850 N.ar  250  HIS250     -0.2212
     11  N        -66.3310   32.4860  -46.5120 N.3   253  ARG253     -0.1245
     12  CA       -65.5350   33.0280  -47.6000 C.3   253  ARG253      0.1563
     13  C        -64.5680   31.9790  -48.0950 C.2   253  ARG253      0.2260
     14  O        -64.7020   31.4880  -49.2120 O.2   253  ARG253     -0.2867
     15  CB       -64.7460   34.2370  -47.1200 C.3   253  ARG253      0.0307
     16  CG       -63.9730   34.9420  -48.1990 C.3   253  ARG253      0.0489
     17  CD       -63.0510   35.9680  -47.5830 C.3   253  ARG253      0.2205
     18  NE       -63.7050   36.7010  -46.4950 N.pl3 253  ARG253     -0.0865
     19  CZ       -63.0660   37.1700  -45.4260 C.cat 253  ARG253      0.5346
     20  NH1      -61.7560   36.9720  -45.3030 N.pl3 253  ARG253      0.1354
     21  NH2      -63.7330   37.8210  -44.4790 N.pl3 253  ARG253      0.1354
     22  N        -51.9170   36.1290  -52.5510 N.3   270  ILE270     -0.1231
     23  CA       -51.3800   37.4920  -52.4570 C.3   270  ILE270      0.1692
     24  C        -51.2820   38.1080  -51.0300 C.2   270  ILE270      0.2593
     25  O        -50.2520   38.6770  -50.6910 O.2   270  ILE270     -0.2718
     26  CB       -52.0370   38.4680  -53.4770 C.3   270  ILE270      0.0266
     27  CG1      -51.2100   38.5660  -54.7650 C.3   270  ILE270      0.0019
     28  CG2      -52.0870   39.8490  -52.9170 C.3   270  ILE270      0.0020
     29  CD1      -51.1860   37.3290  -55.5790 C.3   270  ILE270      0.0001
     30  N        -52.3150   38.0090  -50.1960 N.am  271  GLY271     -0.1942
     31  CA       -52.1850   38.4960  -48.8290 C.3   271  GLY271      0.2014
     32  C        -52.3000   37.3600  -47.8380 C.2   271  GLY271      0.2639
     33  O        -53.3850   36.8050  -47.6810 O.2   271  GLY271     -0.2714
     34  N        -51.2040   37.0180  -47.1580 N.am  272  CYS272     -0.1953
     35  CA       -51.1400   35.7320  -46.4550 C.3   272  CYS272      0.1843
     36  C        -50.4020   35.6360  -45.1020 C.2   272  CYS272      0.2626
     37  O        -49.1750   35.6700  -45.0440 O.2   272  CYS272     -0.2714
     38  CB       -50.5410   34.6920  -47.4020 C.3   272  CYS272      0.0997
     39  SG       -48.8170   35.0160  -47.8710 S.3   272  CYS272     -0.0797
     40  N        -51.1540   35.4560  -44.0200 N.am  273  GLY273     -0.1954
     41  CA       -50.5660   35.0050  -42.7690 C.3   273  GLY273      0.1869
     42  C        -50.6250   33.4900  -42.7500 C.2   273  GLY273      0.2309
     43  O        -50.5850   32.8750  -41.6910 O.2   273  GLY273     -0.2863
     44  N        -53.0280   31.0360  -43.6660 N.3   275  LEU275     -0.1231
     45  CA       -54.1800   30.1690  -43.4110 C.3   275  LEU275      0.1693
     46  C        -54.7980   29.5810  -44.6840 C.2   275  LEU275      0.2591
     47  O        -55.2910   28.4520  -44.6830 O.2   275  LEU275     -0.2718
     48  CB       -55.2230   30.9170  -42.5690 C.3   275  LEU275      0.0284
     49  CG       -56.4910   30.2850  -41.9580 C.3   275  LEU275      0.0019
     50  CD1      -56.4000   28.7720  -41.7160 C.3   275  LEU275      0.0001
     51  CD2      -56.8870   31.0220  -40.6510 C.3   275  LEU275      0.0001
     52  N        -54.7720   30.3430  -45.7710 N.am  276  LYS276     -0.1980
     53  CA       -55.2970   29.8540  -47.0470 C.3   276  LYS276      0.1596
     54  C        -54.4420   28.6780  -47.5240 C.2   276  LYS276      0.2287
     55  O        -54.9380   27.7170  -48.1220 O.2   276  LYS276     -0.2864
     56  CB       -55.3540   30.9870  -48.0860 C.3   276  LYS276      0.0298
     57  CG       -56.6170   31.8690  -48.0040 C.3   276  LYS276      0.0038
     58  CD       -57.7920   31.2070  -48.7230 C.3   276  LYS276      0.0206
     59  CE       -59.0930   31.4870  -48.0160 C.3   276  LYS276      0.1093
     60  NZ       -59.1560   32.9040  -47.5650 N.3   276  LYS276     -0.1314
     61  N        -47.0130   35.8150  -51.3610 N.3   295  THR295     -0.1203
     62  CA       -46.2950   37.0880  -51.2670 C.3   295  THR295      0.1994
     63  C        -46.9430   37.9640  -50.2180 C.2   295  THR295      0.2618
     64  O        -48.0950   37.7630  -49.8490 O.2   295  THR295     -0.2717
     65  CB       -46.2780   37.8700  -52.6040 C.3   295  THR295      0.1784
     66  OG1      -45.7190   39.1770  -52.3950 O.3   295  THR295     -0.2211
     67  CG2      -47.6930   38.0150  -53.1600 C.3   295  THR295      0.0376
     68  N        -46.1950   38.9490  -49.7540 N.am  296  ASP296     -0.1959
     69  CA       -46.6580   39.8140  -48.6960 C.3   296  ASP296      0.1840
     70  C        -45.5500   40.8130  -48.4390 C.2   296  ASP296      0.2623
     71  O        -44.3630   40.4930  -48.5350 O.2   296  ASP296     -0.2715
     72  CB       -46.9380   39.0030  -47.4300 C.3   296  ASP296      0.1450
     73  CG       -47.8940   39.7020  -46.4820 C.2   296  ASP296      0.3671
     74  OD1      -47.6970   40.9040  -46.2210 O.co2 296  ASP296     -0.2456
     75  OD2      -48.8460   39.0520  -45.9910 O.co2 296  ASP296     -0.2456
     76  N        -45.9410   42.0360  -48.1250 N.am  297  THR297     -0.1937
     77  CA       -44.9800   43.0590  -47.7800 C.3   297  THR297      0.2028
     78  C        -44.5380   42.8960  -46.3220 C.2   297  THR297      0.2642
     79  O        -43.3970   43.2110  -45.9880 O.2   297  THR297     -0.2714
     80  CB       -45.5670   44.4510  -48.0160 C.3   297  THR297      0.1808
     81  OG1      -46.6340   44.6860  -47.0880 O.3   297  THR297     -0.2208
     82  CG2      -46.1070   44.5450  -49.4320 C.3   297  THR297      0.0379
     83  N        -45.4360   42.3860  -45.4730 N.am  298  ASP298     -0.1971
     84  CA       -45.1570   42.1820  -44.0410 C.3   298  ASP298      0.1709
     85  C        -43.8350   41.4560  -43.8120 C.2   298  ASP298      0.2293
     86  O        -43.6410   40.3280  -44.2770 O.2   298  ASP298     -0.2864
     87  CB       -46.2990   41.4060  -43.3470 C.3   298  ASP298      0.1436
     88  CG       -46.2710   41.5360  -41.8130 C.2   298  ASP298      0.3671
     89  OD1      -45.2320   41.9360  -41.2510 O.co2 298  ASP298     -0.2456
     90  OD2      -47.2970   41.2430  -41.1660 O.co2 298  ASP298     -0.2456
     91  N        -44.6780   38.2380  -41.9020 N.3   301  VAL301     -0.1245
     92  CA       -45.0970   37.1040  -42.7150 C.3   301  VAL301      0.1561
     93  C        -43.9110   36.5290  -43.4810 C.2   301  VAL301      0.2260
     94  O        -43.7820   35.3130  -43.6130 O.2   301  VAL301     -0.2867
     95  CB       -46.2260   37.4890  -43.6890 C.3   301  VAL301      0.0252
     96  CG1      -46.2910   36.5100  -44.8470 C.3   301  VAL301      0.0019
     97  CG2      -47.5580   37.5540  -42.9540 C.3   301  VAL301      0.0019
     98  N        -41.5910   41.5070  -56.3900 N.3   323  TRP323     -0.1241
     99  CA       -42.4470   40.9330  -57.4280 C.3   323  TRP323      0.1605
    100  C        -41.7170   40.4730  -58.6890 C.2   323  TRP323      0.2264
    101  O        -42.3400   40.0070  -59.6530 O.2   323  TRP323     -0.2867
    102  CB       -43.5240   41.9310  -57.8110 C.3   323  TRP323      0.0550
    103  CG       -44.8000   41.6250  -57.1850 C.ar  323  TRP323      0.0003
    104  CD1      -45.3130   42.1700  -56.0460 C.ar  323  TRP323      0.0946
    105  CD2      -45.7450   40.6710  -57.6460 C.ar  323  TRP323      0.0152
    106  NE1      -46.5330   41.6120  -55.7700 N.ar  323  TRP323     -0.2442
    107  CE2      -46.8250   40.6860  -56.7400 C.ar  323  TRP323      0.0810
    108  CE3      -45.7900   39.7970  -58.7330 C.ar  323  TRP323      0.0012
    109  CZ2      -47.9390   39.8610  -56.8970 C.ar  323  TRP323      0.0191
    110  CZ3      -46.8890   38.9870  -58.8880 C.ar  323  TRP323      0.0001
    111  CH2      -47.9540   39.0230  -57.9760 C.ar  323  TRP323      0.0015
    112  N        -57.8500   38.0110  -50.7870 N.3   337  THR337     -0.1203
    113  CA       -59.0950   37.9910  -50.0110 C.3   337  THR337      0.1994
    114  C        -59.3180   39.1280  -49.0220 C.2   337  THR337      0.2618
    115  O        -60.4600   39.4780  -48.7170 O.2   337  THR337     -0.2717
    116  CB       -59.2870   36.6710  -49.3050 C.3   337  THR337      0.1784
    117  OG1      -58.0420   36.2950  -48.7110 O.3   337  THR337     -0.2211
    118  CG2      -59.7140   35.6200  -50.3010 C.3   337  THR337      0.0376
    119  N        -58.2470   39.6860  -48.4840 N.am  338  GLU338     -0.1965
    120  CA       -58.3820   40.9870  -47.8470 C.3   338  GLU338      0.1733
    121  C        -57.5190   41.8550  -48.6970 C.2   338  GLU338      0.2616
    122  O        -57.8790   42.1990  -49.8260 O.2   338  GLU338     -0.2715
    123  CB       -57.8890   41.0090  -46.3970 C.3   338  GLU338      0.0429
    124  CG       -58.8260   40.3520  -45.3780 C.3   338  GLU338      0.1163
    125  CD       -60.2230   40.9650  -45.3530 C.2   338  GLU338      0.3649
    126  OE1      -60.5800   41.5830  -44.3220 O.co2 338  GLU338     -0.2457
    127  OE2      -60.9650   40.8210  -46.3540 O.co2 338  GLU338     -0.2457
    128  N        -56.3410   42.1460  -48.1690 N.am  339  VAL339     -0.1977
    129  CA       -55.2850   42.7760  -48.9440 C.3   339  VAL339      0.1596
    130  C        -55.6430   44.1870  -49.4440 C.2   339  VAL339      0.2287
    131  O        -55.1390   45.1850  -48.9140 O.2   339  VAL339     -0.2864
    132  CB       -54.8460   41.8890  -50.1390 C.3   339  VAL339      0.0276
    133  CG1      -53.4420   42.2710  -50.5840 C.3   339  VAL339      0.0022
    134  CG2      -54.9170   40.4050  -49.7760 C.3   339  VAL339      0.0022
    135  N        -56.8850   46.4030  -46.5760 N.3   342  HIS342     -0.1226
    136  CA       -56.1020   46.2340  -45.3290 C.3   342  HIS342      0.1752
    137  C        -55.0650   47.3420  -45.2770 C.2   342  HIS342      0.2596
    138  O        -54.6440   47.7790  -44.1950 O.2   342  HIS342     -0.2718
    139  CB       -55.4300   44.8540  -45.2980 C.3   342  HIS342      0.0759
    140  CG       -54.4310   44.6700  -44.1890 C.ar  342  HIS342      0.0818
    141  ND1      -53.2220   45.3320  -44.1520 N.ar  342  HIS342     -0.2268
    142  CD2      -54.4460   43.8600  -43.1010 C.ar  342  HIS342      0.1154
    143  CE1      -52.5460   44.9580  -43.0810 C.ar  342  HIS342      0.1986
    144  NE2      -53.2640   44.0640  -42.4270 N.ar  342  HIS342     -0.2212
    145  N        -54.6050   47.6870  -46.4800 N.am  343  ASN343     -0.1960
    146  CA       -54.4000   49.0620  -46.9500 C.3   343  ASN343      0.1819
    147  C        -53.7740   49.0720  -48.3290 C.2   343  ASN343      0.2621
    148  O        -54.2570   48.3960  -49.2360 O.2   343  ASN343     -0.2715
    149  CB       -53.6350   49.9760  -45.9830 C.3   343  ASN343      0.1195
    150  CG       -54.0590   51.4430  -46.1160 C.2   343  ASN343      0.2630
    151  OD1      -55.0180   51.7610  -46.8300 O.2   343  ASN343     -0.2716
    152  ND2      -53.3580   52.3340  -45.4190 N.am  343  ASN343     -0.0877
    153  N        -52.6880   49.8230  -48.4660 N.am  344  THR344     -0.1951
    154  CA       -52.0820   50.0840  -49.7630 C.3   344  THR344      0.1897
    155  C        -53.1600   50.5590  -50.7510 C.2   344  THR344      0.2313
    156  O        -53.5110   49.8310  -51.6790 O.2   344  THR344     -0.2863
    157  CB       -51.2920   48.8440  -50.2900 C.3   344  THR344      0.1794
    158  OG1      -52.1330   47.6860  -50.2760 O.3   344  THR344     -0.2208
    159  CG2      -50.0820   48.5620  -49.4090 C.3   344  THR344      0.0378
    160  N        -52.8000   52.0680  -55.0310 N.3   347  ALA347     -0.1245
    161  CA       -51.7370   51.2000  -55.4830 C.3   347  ALA347      0.1562
    162  C        -52.4220   49.8390  -55.5520 C.2   347  ALA347      0.2260
    163  O        -51.8980   48.8700  -56.1070 O.2   347  ALA347     -0.2867
    164  CB       -50.5990   51.1930  -54.4750 C.3   347  ALA347      0.0290
    165  N        -51.5110   46.9740  -58.0300 N.3   351  LEU351     -0.1245
    166  CA       -51.4100   45.5640  -57.6800 C.3   351  LEU351      0.1561
    167  C        -52.2670   44.6640  -58.5840 C.2   351  LEU351      0.2260
    168  O        -51.7600   43.7080  -59.1860 O.2   351  LEU351     -0.2867
    169  CB       -51.7600   45.3680  -56.2060 C.3   351  LEU351      0.0270
    170  CG       -51.9490   43.9350  -55.7020 C.3   351  LEU351      0.0019
    171  CD1      -50.8740   43.0090  -56.1960 C.3   351  LEU351      0.0001
    172  CD2      -51.9560   43.9240  -54.1860 C.3   351  LEU351      0.0001
@<TRIPOS>BOND
     1   101   100    2
     2   168   167    2
     3   110   108   ar
     4   110   111   ar
     5   108   105   ar
     6   100    99    1
     7   167   166    1
     8   165   166    1
     9   111   109   ar
    10   102    99    1
    11   102   103    1
    12   166   169    1
    13   105   103   ar
    14   105   107   ar
    15    99    98    1
    16   103   104   ar
    17   109   107   ar
    18   107   106   ar
    19   169   170    1
    20   171   170    1
    21   163   162    2
    22   104   106   ar
    23   170   172    1
    24    29    27    1
    25   162   161    1
    26   161   160    1
    27   161   164    1
    28    27    26    1
    29    26    28    1
    30    26    23    1
    31    67    65    1
    32    65    66    1
    33    65    62    1
    34    22    23    1
    35    23    24    1
    36   156   155    2
    37    61    62    1
    38    62    63    1
    39    24    25    2
    40    24    30   am
    41   112   113    1
    42   155   154    1
    43   133   132    1
    44   118   116    1
    45   157   158    1
    46   157   154    1
    47   157   159    1
    48    63    64    2
    49    63    68   am
    50    30    31    1
    51   132   134    1
    52   132   129    1
    53   113   116    1
    54   113   114    1
    55   122   121    2
    56   154   153    1
    57    68    69    1
    58   130   129    1
    59   130   131    2
    60    82    80    1
    61   116   117    1
    62   148   147    2
    63    14    13    2
    64   114   115    2
    65   114   119   am
    66   129   128    1
    67    31    32    1
    68    58    59    1
    69    58    57    1
    70   121   128   am
    71   121   120    1
    72    69    70    1
    73    69    72    1
    74    71    70    2
    75   119   120    1
    76   153   147   am
    77    70    76   am
    78   147   146    1
    79    16    17    1
    80    16    15    1
    81    76    77    1
    82    55    54    2
    83    13    12    1
    84    56    57    1
    85    56    53    1
    86    80    77    1
    87    80    81    1
    88    59    60    1
    89    39    38    1
    90   120   123    1
    91    32    33    2
    92    32    34   am
    93    77    78    1
    94    12    15    1
    95    12    11    1
    96    17    18    1
    97    54    53    1
    98    72    73    1
    99    38    35    1
   100    34    35    1
   101    53    52    1
   102   146   145    1
   103   146   149    1
   104   151   150    2
   105   135   136    1
   106    18    19    2
   107    73    74   ar
   108    73    75   ar
   109   145   137   am
   110    35    36    1
   111   123   124    1
   112   127   125   ar
   113    78    79    2
   114    78    83   am
   115   150   149    1
   116   150   152   am
   117    52    46   am
   118    83    84    1
   119    19    20    1
   120    19    21    1
   121   124   125    1
   122   125   126   ar
   123   136   139    1
   124   136   137    1
   125   139   140    1
   126   137   138    2
   127    36    37    2
   128    36    40   am
   129    96    95    1
   130    46    47    2
   131    46    45    1
   132    86    85    2
   133   140   141   ar
   134   140   142   ar
   135   141   143   ar
   136    84    85    1
   137    84    87    1
   138    40    41    1
   139    95    97    1
   140    95    92    1
   141    44    45    1
   142    94    93    2
   143    93    92    1
   144    45    48    1
   145    87    88    1
   146   142   144   ar
   147   143   144   ar
   148     3     2    1
   149     3     4    2
   150     2     1    1
   151     2     5    1
   152     7     9   ar
   153     7     6   ar
   154    41    42    1
   155    42    43    2
   156    92    91    1
   157     9    10   ar
   158    48    49    1
   159    49    50    1
   160    49    51    1
   161     6     5    1
   162     6     8   ar
   163    88    89   ar
   164    88    90   ar
   165    10     8   ar
