@<TRIPOS>MOLECULE
tmp/4xruA00.pdb
 112 105 0 0 0
SMALL
GASTEIGER

@<TRIPOS>ATOM
      1  N        -14.8760   20.2320  -23.3820 N.3    16  ALA16      -0.1231
      2  CA       -14.2820   19.3410  -22.3900 C.3    16  ALA16       0.1679
      3  C        -15.3710   18.7720  -21.4850 C.2    16  ALA16       0.2434
      4  O        -16.5240   19.1940  -21.5860 O.2    16  ALA16      -0.2733
      5  CB       -13.2700   20.1300  -21.5670 C.3    16  ALA16       0.0304
      6  N        -15.0260   17.8060  -20.6070 N.am   17  PRO17      -0.2718
      7  CA       -15.9940   17.3640  -19.5880 C.3    17  PRO17       0.1535
      8  C        -16.2680   18.4540  -18.5630 C.2    17  PRO17       0.2599
      9  O        -15.3820   19.2550  -18.2830 O.2    17  PRO17      -0.2715
     10  CB       -15.2900   16.1880  -18.9100 C.3    17  PRO17       0.0310
     11  CG       -13.8440   16.3850  -19.2230 C.3    17  PRO17       0.0237
     12  CD       -13.8240   16.9590  -20.6060 C.3    17  PRO17       0.0939
     13  N        -17.4840   18.4830  -18.0250 N.am   18  GLY18      -0.1941
     14  CA       -17.8910   19.5110  -17.0800 C.3    18  GLY18       0.2014
     15  C        -18.2200   20.8640  -17.6990 C.2    18  GLY18       0.2640
     16  O        -18.7650   21.7460  -17.0350 O.2    18  GLY18      -0.2714
     17  N        -17.9030   21.0370  -18.9740 N.am   19  SER19      -0.1935
     18  CA       -18.0540   22.3370  -19.6080 C.3    19  SER19       0.2055
     19  C        -19.5030   22.6670  -19.9660 C.2    19  SER19       0.2644
     20  O        -19.8140   23.7650  -20.4250 O.2    19  SER19      -0.2714
     21  CB       -17.1550   22.4230  -20.8370 C.3    19  SER19       0.2130
     22  OG       -17.2130   21.2230  -21.5830 O.3    19  SER19      -0.2179
     23  N        -20.3870   21.7020  -19.7710 N.am   20  GLY20      -0.1939
     24  CA       -21.8100   21.9650  -19.8730 C.3    20  GLY20       0.2014
     25  C        -22.4820   21.7510  -21.2140 C.2    20  GLY20       0.2639
     26  O        -23.4500   22.4360  -21.5240 O.2    20  GLY20      -0.2714
     27  N        -22.0010   20.7990  -22.0030 N.am   21  LYS21      -0.1963
     28  CA       -22.6390   20.5390  -23.2900 C.3    21  LYS21       0.1728
     29  C        -23.8410   19.6010  -23.1660 C.2    21  LYS21       0.2617
     30  O        -24.8390   19.7590  -23.8650 O.2    21  LYS21      -0.2715
     31  CB       -21.6280   20.0500  -24.3410 C.3    21  LYS21       0.0311
     32  CG       -20.5010   19.1800  -23.8080 C.3    21  LYS21       0.0038
     33  CD       -19.4090   18.9830  -24.8590 C.3    21  LYS21       0.0206
     34  CE       -18.3360   18.0120  -24.3780 C.3    21  LYS21       0.1093
     35  NZ       -18.6770   16.5680  -24.5770 N.3    21  LYS21      -0.1314
     36  N        -23.7590   18.6360  -22.2620 N.am   22  SER22      -0.1936
     37  CA       -24.8740   17.7240  -22.0760 C.3    22  SER22       0.2055
     38  C        -26.0060   18.4640  -21.3810 C.2    22  SER22       0.2643
     39  O        -27.1610   18.0990  -21.5540 O.2    22  SER22      -0.2714
     40  CB       -24.4740   16.4710  -21.2750 C.3    22  SER22       0.2130
     41  OG       -23.4130   15.7270  -21.8800 O.3    22  SER22      -0.2179
     42  N        -25.6820   19.5000  -20.6040 N.am   23  THR23      -0.1950
     43  CA       -26.7260   20.2980  -19.9410 C.3    23  THR23       0.1897
     44  C        -27.4950   21.1630  -20.9280 C.2    23  THR23       0.2313
     45  O        -28.7250   21.1780  -20.9170 O.2    23  THR23      -0.2863
     46  CB       -26.2040   21.1840  -18.7900 C.3    23  THR23       0.1794
     47  OG1      -26.1610   20.4130  -17.5860 O.3    23  THR23      -0.2208
     48  CG2      -27.1480   22.3490  -18.5500 C.3    23  THR23       0.0378
     49  N        -29.8440   18.9360  -22.9990 N.3    26  ARG26      -0.1245
     50  CA       -31.0340   18.4990  -22.2870 C.3    26  ARG26       0.1563
     51  C        -32.0460   19.6230  -22.3440 C.2    26  ARG26       0.2260
     52  O        -33.2290   19.3930  -22.5830 O.2    26  ARG26      -0.2867
     53  CB       -30.7290   18.1050  -20.8390 C.3    26  ARG26       0.0307
     54  CG       -31.9510   17.5790  -20.0810 C.3    26  ARG26       0.0489
     55  CD       -31.6250   17.0540  -18.6780 C.3    26  ARG26       0.2205
     56  NE       -31.2820   18.1150  -17.7310 N.pl3  26  ARG26      -0.0865
     57  CZ       -30.0910   18.2410  -17.1510 C.cat  26  ARG26       0.5346
     58  NH1      -29.1250   17.3610  -17.4160 N.pl3  26  ARG26       0.1354
     59  NH2      -29.8660   19.2400  -16.3010 N.pl3  26  ARG26       0.1354
     60  N        -30.7060   13.6740  -29.9030 N.3    37  ARG37      -0.1245
     61  CA       -29.3410   13.7230  -29.3910 C.3    37  ARG37       0.1563
     62  C        -28.6550   12.3860  -29.6270 C.2    37  ARG37       0.2260
     63  O        -29.2880   11.3330  -29.5520 O.2    37  ARG37      -0.2867
     64  CB       -29.3320   14.0650  -27.8960 C.3    37  ARG37       0.0307
     65  CG       -27.9570   14.0410  -27.2390 C.3    37  ARG37       0.0489
     66  CD       -28.0380   14.5470  -25.8040 C.3    37  ARG37       0.2205
     67  NE       -26.7640   14.4910  -25.0810 N.pl3  37  ARG37      -0.0865
     68  CZ       -26.4290   13.5350  -24.2160 C.cat  37  ARG37       0.5346
     69  NH1      -27.2630   12.5360  -23.9520 N.pl3  37  ARG37       0.1354
     70  NH2      -25.2550   13.5760  -23.6110 N.pl3  37  ARG37       0.1354
     71  N        -25.2390   10.5540  -28.2230 N.3    39  ASN39      -0.1240
     72  CA       -24.1090   10.5600  -27.3100 C.3    39  ASN39       0.1653
     73  C        -23.2620    9.3120  -27.4970 C.2    39  ASN39       0.2266
     74  O        -23.7700    8.1840  -27.5550 O.2    39  ASN39      -0.2867
     75  CB       -24.5740   10.6730  -25.8580 C.3    39  ASN39       0.1155
     76  CG       -23.4830   11.1660  -24.9480 C.2    39  ASN39       0.2627
     77  OD1      -22.4360   11.5960  -25.4150 O.2    39  ASN39      -0.2716
     78  ND2      -23.7210   11.1180  -23.6440 N.am   39  ASN39      -0.0877
     79  N        -20.9640    8.3330  -25.3250 N.3    41  ASP41      -0.1239
     80  CA       -20.8590    7.6710  -24.0230 C.3    41  ASP41       0.1674
     81  C        -22.0610    6.7930  -23.6900 C.2    41  ASP41       0.2266
     82  O        -21.9150    5.7110  -23.1210 O.2    41  ASP41      -0.2867
     83  CB       -20.6330    8.7020  -22.9190 C.3    41  ASP41       0.1410
     84  CG       -19.2880    9.3900  -23.0410 C.2    41  ASP41       0.3668
     85  OD1      -19.2220   10.4950  -23.6310 O.co2  41  ASP41      -0.2456
     86  OD2      -18.2930    8.8120  -22.5530 O.co2  41  ASP41      -0.2456
     87  N        -22.7820   15.0140  -29.2230 N.3    79  ASP79      -0.1239
     88  CA       -22.1320   15.4030  -27.9780 C.3    79  ASP79       0.1674
     89  C        -20.6340   15.1320  -27.9840 C.2    79  ASP79       0.2266
     90  O        -20.1350   14.3710  -27.1570 O.2    79  ASP79      -0.2867
     91  CB       -22.7970   14.6650  -26.8090 C.3    79  ASP79       0.1410
     92  CG       -23.0330   15.5580  -25.6000 C.2    79  ASP79       0.3668
     93  OD1      -22.0310   16.0500  -25.0370 O.co2  79  ASP79      -0.2456
     94  OD2      -24.2110   15.7400  -25.2030 O.co2  79  ASP79      -0.2456
     95  N        -17.3870   14.5010  -27.2320 N.3    81  THR81      -0.1218
     96  CA       -16.3310   14.3460  -26.2360 C.3    81  THR81       0.1862
     97  C        -14.9870   14.4190  -26.9550 C.2    81  THR81       0.2287
     98  O        -13.9520   14.7060  -26.3500 O.2    81  THR81      -0.2866
     99  CB       -16.4440   12.9940  -25.4740 C.3    81  THR81       0.1770
    100  OG1      -16.7320   11.9280  -26.3940 O.3    81  THR81      -0.2211
    101  CG2      -17.5430   13.0630  -24.4210 C.3    81  THR81       0.0375
    102  N        -16.9150   20.3830  -10.8730 N.3   115  ARG115     -0.1245
    103  CA       -18.2040   19.8130  -11.2570 C.3   115  ARG115      0.1563
    104  C        -18.3650   18.3820  -10.7350 C.2   115  ARG115      0.2260
    105  O        -18.8320   17.4960  -11.4570 O.2   115  ARG115     -0.2867
    106  CB       -18.3860   19.8590  -12.7750 C.3   115  ARG115      0.0307
    107  CG       -18.2210   21.2540  -13.3800 C.3   115  ARG115      0.0489
    108  CD       -19.2360   22.2430  -12.8240 C.3   115  ARG115      0.2205
    109  NE       -19.1530   23.5520  -13.4720 N.pl3 115  ARG115     -0.0865
    110  CZ       -19.8610   23.9080  -14.5440 C.cat 115  ARG115      0.5346
    111  NH1      -20.7070   23.0500  -15.0960 N.pl3 115  ARG115      0.1354
    112  NH2      -19.7290   25.1220  -15.0670 N.pl3 115  ARG115      0.1354
@<TRIPOS>BOND
     1    60    61    1
     2    62    63    2
     3    62    61    1
     4    61    64    1
     5    87    88    1
     6    71    72    1
     7    89    88    1
     8    89    90    2
     9    88    91    1
    10    64    65    1
    11    74    73    2
    12    73    72    1
    13    72    75    1
    14    65    66    1
    15    95    96    1
    16    97    98    2
    17    97    96    1
    18    91    92    1
    19   100    99    1
    20    96    99    1
    21    75    76    1
    22    66    67    1
    23    92    94   ar
    24    92    93   ar
    25    99   101    1
    26    77    76    2
    27    79    80    1
    28    67    68    2
    29    76    78   am
    30    33    34    1
    31    33    32    1
    32    35    34    1
    33    31    32    1
    34    31    28    1
    35    68    69    1
    36    68    70    1
    37    80    81    1
    38    80    83    1
    39    30    29    2
    40    81    82    2
    41    85    84   ar
    42     1     2    1
    43    28    29    1
    44    28    27    1
    45    29    36   am
    46    84    83    1
    47    84    86   ar
    48    49    50    1
    49    52    51    2
    50     2     5    1
    51     2     3    1
    52    51    50    1
    53    50    53    1
    54    36    37    1
    55    37    38    1
    56    37    40    1
    57    27    25   am
    58    41    40    1
    59     4     3    2
    60    22    21    1
    61    39    38    2
    62    26    25    2
    63     3     6   am
    64    38    42   am
    65    25    24    1
    66    44    45    2
    67    44    43    1
    68    53    54    1
    69    21    18    1
    70     6    12    1
    71     6     7    1
    72    12    11    1
    73    42    43    1
    74    20    19    2
    75    54    55    1
    76    19    23   am
    77    19    18    1
    78    43    46    1
    79    24    23    1
    80    18    17    1
    81     7    10    1
    82     7     8    1
    83    11    10    1
    84    17    15   am
    85    46    48    1
    86    46    47    1
    87    55    56    1
    88     8     9    2
    89     8    13   am
    90    13    14    1
    91    56    57    2
    92    15    14    1
    93    15    16    2
    94    58    57    1
    95    57    59    1
    96   111   110    1
    97   112   110    1
    98   110   109    2
    99   109   108    1
   100   107   108    1
   101   107   106    1
   102   106   103    1
   103   105   104    2
   104   103   102    1
   105   103   104    1
