@<TRIPOS>MOLECULE
tmp/4xruB01.pdb
 189 179 0 0 0
SMALL
GASTEIGER

@<TRIPOS>ATOM
      1  N        -40.6390   29.5210   -6.1820 N.3    23  SER23      -0.1203
      2  CA       -41.4860   29.4840   -4.9960 C.3    23  SER23       0.2005
      3  C        -42.0210   28.0850   -4.9000 C.2    23  SER23       0.2461
      4  O        -42.0190   27.3500   -5.8790 O.2    23  SER23      -0.2732
      5  CB       -42.6580   30.4530   -5.0810 C.3    23  SER23       0.2103
      6  OG       -43.5260   30.3180   -3.9750 O.3    23  SER23      -0.2182
      7  N        -42.4540   27.6880   -3.7130 N.am   24  PRO24      -0.2717
      8  CA       -43.0570   26.3740   -3.5560 C.3    24  PRO24       0.1536
      9  C        -44.5430   26.4540   -3.3180 C.2    24  PRO24       0.2599
     10  O        -45.0120   27.4510   -2.8000 O.2    24  PRO24      -0.2715
     11  CB       -42.4110   25.8950   -2.2790 C.3    24  PRO24       0.0310
     12  CG       -42.2430   27.1360   -1.4880 C.3    24  PRO24       0.0237
     13  CD       -41.8880   28.1840   -2.4550 C.3    24  PRO24       0.0939
     14  N        -45.2820   25.4180   -3.6840 N.am   25  THR25      -0.1937
     15  CA       -46.6530   25.3180   -3.2180 C.3    25  THR25       0.2028
     16  C        -46.4780   24.9470   -1.7790 C.2    25  THR25       0.2642
     17  O        -45.4980   24.3110   -1.4300 O.2    25  THR25      -0.2714
     18  CB       -47.4630   24.1810   -3.8780 C.3    25  THR25       0.1808
     19  OG1      -46.9770   23.9140   -5.1990 O.3    25  THR25      -0.2208
     20  CG2      -48.9110   24.5820   -3.9630 C.3    25  THR25       0.0379
     21  N        -47.4140   25.3370   -0.9360 N.am   26  ILE26      -0.1977
     22  CA       -47.3110   24.9880    0.4650 C.3    26  ILE26       0.1596
     23  C        -48.4980   24.1010    0.7740 C.2    26  ILE26       0.2287
     24  O        -49.6200   24.4590    0.4450 O.2    26  ILE26      -0.2864
     25  CB       -47.2820   26.2450    1.3440 C.3    26  ILE26       0.0276
     26  CG1      -45.9230   26.9090    1.2240 C.3    26  ILE26       0.0022
     27  CG2      -47.5550   25.9120    2.7860 C.3    26  ILE26       0.0022
     28  CD1      -45.8370   27.9070    0.1020 C.3    26  ILE26       0.0001
     29  N        -44.5850   30.6270   12.3130 N.3    59  GLU59      -0.1231
     30  CA       -44.8800   32.0430   12.0540 C.3    59  GLU59       0.1699
     31  C        -46.4040   32.3220   11.9460 C.2    59  GLU59       0.2592
     32  O        -47.2120   31.3980   11.7960 O.2    59  GLU59      -0.2718
     33  CB       -44.1280   32.5050   10.7940 C.3    59  GLU59       0.0402
     34  CG       -42.6120   32.4070   10.8890 C.3    59  GLU59       0.1161
     35  CD       -41.9310   32.1000    9.5560 C.2    59  GLU59       0.3649
     36  OE1      -40.7150   32.3080    9.4170 O.co2  59  GLU59      -0.2457
     37  OE2      -42.6020   31.6150    8.6330 O.co2  59  GLU59      -0.2457
     38  N        -46.8080   33.5830   12.0600 N.am   60  LYS60      -0.1966
     39  CA       -48.1730   33.9130   11.6910 C.3    60  LYS60       0.1728
     40  C        -48.3060   33.7320   10.1820 C.2    60  LYS60       0.2616
     41  O        -47.3110   33.7650    9.4660 O.2    60  LYS60      -0.2715
     42  CB       -48.5030   35.3520   12.0370 C.3    60  LYS60       0.0311
     43  CG       -48.9840   35.5710   13.4340 C.3    60  LYS60       0.0038
     44  CD       -49.6740   36.9340   13.5250 C.3    60  LYS60       0.0206
     45  CE       -49.9240   37.3550   14.9770 C.3    60  LYS60       0.1093
     46  NZ       -48.8440   38.2520   15.5010 N.3    60  LYS60      -0.1314
     47  N        -49.5300   33.5550    9.6910 N.am   61  LYS61      -0.1963
     48  CA       -49.7590   33.4330    8.2500 C.3    61  LYS61       0.1728
     49  C        -50.5390   34.6130    7.6730 C.2    61  LYS61       0.2616
     50  O        -51.7340   34.8020    7.9450 O.2    61  LYS61      -0.2715
     51  CB       -50.4640   32.1300    7.9110 C.3    61  LYS61       0.0311
     52  CG       -50.2980   31.7590    6.4700 C.3    61  LYS61       0.0038
     53  CD       -51.3290   30.7630    6.0430 C.3    61  LYS61       0.0206
     54  CE       -50.9090   30.1370    4.7550 C.3    61  LYS61       0.1093
     55  NZ       -51.9260   30.2410    3.7180 N.3    61  LYS61      -0.1314
     56  N        -49.8440   35.3860    6.8530 N.am   62  TYR62      -0.1974
     57  CA       -50.3360   36.6600    6.3570 C.3    62  TYR62       0.1639
     58  C        -51.2170   36.5430    5.1030 C.2    62  TYR62       0.2290
     59  O        -50.8930   35.8090    4.1580 O.2    62  TYR62      -0.2864
     60  CB       -49.1350   37.5510    6.0880 C.3    62  TYR62       0.0560
     61  CG       -48.2810   37.7180    7.3130 C.ar   62  TYR62      -0.0198
     62  CD1      -48.6870   38.5440    8.3320 C.ar   62  TYR62      -0.0009
     63  CD2      -47.0810   37.0340    7.4680 C.ar   62  TYR62      -0.0009
     64  CE1      -47.9280   38.7070    9.4670 C.ar   62  TYR62       0.0417
     65  CE2      -46.3110   37.1900    8.6140 C.ar   62  TYR62       0.0417
     66  CZ       -46.7560   38.0350    9.6040 C.ar   62  TYR62       0.1957
     67  OH       -46.0640   38.2400   10.7570 O.3    62  TYR62      -0.2866
     68  N        -47.8460   36.5070   -2.5550 N.3    66  TYR66      -0.1241
     69  CA       -46.4560   36.1260   -2.3220 C.3    66  TYR66       0.1605
     70  C        -45.5540   37.0210   -3.1140 C.2    66  TYR66       0.2264
     71  O        -45.7500   37.2130   -4.3060 O.2    66  TYR66      -0.2867
     72  CB       -46.1710   34.6630   -2.6660 C.3    66  TYR66       0.0534
     73  CG       -44.7190   34.2730   -2.4920 C.ar   66  TYR66      -0.0201
     74  CD1      -44.2720   33.7200   -1.3090 C.ar   66  TYR66      -0.0009
     75  CD2      -43.8030   34.4520   -3.5140 C.ar   66  TYR66      -0.0009
     76  CE1      -42.9540   33.3540   -1.1470 C.ar   66  TYR66       0.0417
     77  CE2      -42.4870   34.0990   -3.3630 C.ar   66  TYR66       0.0417
     78  CZ       -42.0600   33.5540   -2.1730 C.ar   66  TYR66       0.1957
     79  OH       -40.7350   33.1920   -2.0200 O.3    66  TYR66      -0.2866
     80  N        -45.7380   35.2780   -7.0110 N.3    83  ARG83      -0.1245
     81  CA       -45.9180   33.8980   -6.5480 C.3    83  ARG83       0.1563
     82  C        -45.1230   32.9320   -7.3960 C.2    83  ARG83       0.2260
     83  O        -44.2520   32.2490   -6.8920 O.2    83  ARG83      -0.2867
     84  CB       -47.3930   33.5100   -6.6000 C.3    83  ARG83       0.0307
     85  CG       -47.7430   32.2430   -5.8280 C.3    83  ARG83       0.0489
     86  CD       -49.1970   31.8260   -6.1010 C.3    83  ARG83       0.2205
     87  NE       -49.3150   30.9360   -7.2530 N.pl3  83  ARG83      -0.0865
     88  CZ       -48.8670   29.6810   -7.2580 C.cat  83  ARG83       0.5346
     89  NH1      -48.2650   29.1990   -6.1780 N.pl3  83  ARG83       0.1354
     90  NH2      -49.0020   28.9070   -8.3340 N.pl3  83  ARG83       0.1354
     91  N        -44.7920   38.4420    2.4650 N.3   120  GLU120     -0.1245
     92  CA       -46.1480   38.5790    1.9700 C.3   120  GLU120      0.1567
     93  C        -46.4360   40.0560    1.7060 C.2   120  GLU120      0.2260
     94  O        -46.4280   40.8520    2.6250 O.2   120  GLU120     -0.2867
     95  CB       -47.1310   38.0000    2.9850 C.3   120  GLU120      0.0388
     96  CG       -48.5370   37.7820    2.4530 C.3   120  GLU120      0.1160
     97  CD       -48.6730   36.5420    1.5720 C.2   120  GLU120      0.3649
     98  OE1      -47.8450   36.3500    0.6610 O.co2 120  GLU120     -0.2457
     99  OE2      -49.6160   35.7500    1.7850 O.co2 120  GLU120     -0.2457
    100  N        -40.6630   37.2350    5.7250 N.3   234  PHE234     -0.1241
    101  CA       -40.6040   36.1190    6.6650 C.3   234  PHE234      0.1605
    102  C        -39.4190   35.1590    6.6000 C.2   234  PHE234      0.2264
    103  O        -39.2960   34.2880    7.4620 O.2   234  PHE234     -0.2867
    104  CB       -41.9100   35.3340    6.6660 C.3   234  PHE234      0.0534
    105  CG       -42.3250   34.8470    5.3090 C.ar  234  PHE234     -0.0203
    106  CD1      -43.2830   35.5210    4.5800 C.ar  234  PHE234     -0.0042
    107  CD2      -41.7610   33.7220    4.7690 C.ar  234  PHE234     -0.0042
    108  CE1      -43.6550   35.0810    3.3530 C.ar  234  PHE234     -0.0003
    109  CE2      -42.1230   33.2900    3.5400 C.ar  234  PHE234     -0.0003
    110  CZ       -43.0710   33.9610    2.8330 C.ar  234  PHE234     -0.0000
    111  N        -55.3430   34.6330    9.4470 N.3   294  GLU294     -0.1245
    112  CA       -55.6990   33.4650    8.6730 C.3   294  GLU294      0.1567
    113  C        -55.3760   32.2640    9.5300 C.2   294  GLU294      0.2260
    114  O        -56.2240   31.4090    9.7840 O.2   294  GLU294     -0.2867
    115  CB       -54.8390   33.4260    7.4260 C.3   294  GLU294      0.0388
    116  CG       -55.2980   32.4980    6.3580 C.3   294  GLU294      0.1160
    117  CD       -54.3110   32.4490    5.2010 C.2   294  GLU294      0.3649
    118  OE1      -54.0450   31.3430    4.6840 O.co2 294  GLU294     -0.2457
    119  OE2      -53.7950   33.5150    4.8020 O.co2 294  GLU294     -0.2457
    120  N        -48.2040   28.9470   10.0850 N.3   297  VAL297     -0.1245
    121  CA       -47.3990   28.1020    9.2240 C.3   297  VAL297      0.1561
    122  C        -46.3160   27.3710   10.0430 C.2   297  VAL297      0.2260
    123  O        -45.6450   27.9550   10.8780 O.2   297  VAL297     -0.2867
    124  CB       -46.7860   28.9240    8.1130 C.3   297  VAL297      0.0252
    125  CG1      -45.6830   28.1590    7.4470 C.3   297  VAL297      0.0019
    126  CG2      -47.8560   29.3070    7.1360 C.3   297  VAL297      0.0019
    127  N        -42.8410   25.3490    9.9520 N.3   299  LYS299     -0.1245
    128  CA       -41.6630   25.1320    9.1070 C.3   299  LYS299      0.1561
    129  C        -40.5610   24.4580    9.9120 C.2   299  LYS299      0.2260
    130  O        -40.4700   24.6460   11.1230 O.2   299  LYS299     -0.2867
    131  CB       -41.1350   26.4580    8.5260 C.3   299  LYS299      0.0271
    132  CG       -42.0800   27.1910    7.5680 C.3   299  LYS299      0.0035
    133  CD       -41.8530   28.7150    7.5770 C.3   299  LYS299      0.0206
    134  CE       -42.3390   29.4060    6.3010 C.3   299  LYS299      0.1093
    135  NZ       -41.2160   29.8980    5.4180 N.3   299  LYS299     -0.1314
    136  N        -43.0210   23.6980    4.2980 N.3   311  ALA311     -0.1245
    137  CA       -43.9130   24.1210    5.3620 C.3   311  ALA311      0.1562
    138  C        -45.2480   23.4190    5.2730 C.2   311  ALA311      0.2260
    139  O        -45.6000   22.8780    4.2300 O.2   311  ALA311     -0.2867
    140  CB       -44.1300   25.6010    5.2980 C.3   311  ALA311      0.0290
    141  N        -49.1850   24.6810    6.0490 N.3   313  LYS313     -0.1245
    142  CA       -50.0040   25.8160    6.4180 C.3   313  LYS313      0.1561
    143  C        -51.1150   25.2540    7.2910 C.2   313  LYS313      0.2260
    144  O        -51.4930   24.1020    7.1310 O.2   313  LYS313     -0.2867
    145  CB       -50.5710   26.4870    5.1680 C.3   313  LYS313      0.0271
    146  CG       -51.8080   25.8160    4.5990 C.3   313  LYS313      0.0035
    147  CD       -52.3060   26.5010    3.3540 C.3   313  LYS313      0.0206
    148  CE       -51.2800   26.4020    2.2810 C.3   313  LYS313      0.1093
    149  NZ       -51.8980   26.7310    0.9890 N.3   313  LYS313     -0.1314
    150  N        -54.6460   26.8590    8.4320 N.3   315  ARG315     -0.1245
    151  CA       -55.6000   27.9550    8.4770 C.3   315  ARG315      0.1563
    152  C        -56.7340   27.6390    9.4420 C.2   315  ARG315      0.2260
    153  O        -57.1170   26.4750    9.5770 O.2   315  ARG315     -0.2867
    154  CB       -56.1300   28.1630    7.0730 C.3   315  ARG315      0.0307
    155  CG       -54.9880   28.1660    6.0630 C.3   315  ARG315      0.0489
    156  CD       -55.4580   28.1340    4.6270 C.3   315  ARG315      0.2205
    157  NE       -56.0570   26.8520    4.2940 N.pl3 315  ARG315     -0.0865
    158  CZ       -56.2430   26.4420    3.0500 C.cat 315  ARG315      0.5346
    159  NH1      -55.8740   27.2140    2.0450 N.pl3 315  ARG315      0.1354
    160  NH2      -56.7960   25.2680    2.8100 N.pl3 315  ARG315      0.1354
    161  N        -61.6180   31.2950    8.9140 N.3   319  TYR319     -0.1241
    162  CA       -61.1100   31.7470    7.6210 C.3   319  TYR319      0.1605
    163  C        -61.4610   30.8020    6.5080 C.2   319  TYR319      0.2264
    164  O        -61.7440   31.2290    5.3920 O.2   319  TYR319     -0.2867
    165  CB       -59.6070   31.9170    7.6320 C.3   319  TYR319      0.0534
    166  CG       -58.9670   32.0140    6.2540 C.ar  319  TYR319     -0.0201
    167  CD1      -58.8890   33.2220    5.5820 C.ar  319  TYR319     -0.0009
    168  CD2      -58.4130   30.9060    5.6510 C.ar  319  TYR319     -0.0009
    169  CE1      -58.2800   33.3210    4.3440 C.ar  319  TYR319      0.0417
    170  CE2      -57.8080   30.9900    4.4120 C.ar  319  TYR319      0.0417
    171  CZ       -57.7330   32.1990    3.7600 C.ar  319  TYR319      0.1957
    172  OH       -57.1110   32.2730    2.5200 O.3   319  TYR319     -0.2866
    173  N        -50.3270   17.2090   -3.3280 N.3   344  LYS344     -0.1245
    174  CA       -50.0710   18.6070   -2.9930 C.3   344  LYS344      0.1561
    175  C        -48.7300   18.6090   -2.2510 C.2   344  LYS344      0.2260
    176  O        -47.7580   19.2200   -2.7060 O.2   344  LYS344     -0.2867
    177  CB       -51.1770   19.1920   -2.1250 C.3   344  LYS344      0.0271
    178  CG       -51.0370   20.6810   -1.8160 C.3   344  LYS344      0.0035
    179  CD       -51.2540   21.4990   -3.0590 C.3   344  LYS344      0.0206
    180  CE       -51.5590   22.9430   -2.7250 C.3   344  LYS344      0.1093
    181  NZ       -51.6850   23.8030   -3.9550 N.3   344  LYS344     -0.1314
    182  N        -56.2720   24.2650   -1.2980 N.3   394  LEU394     -0.1245
    183  CA       -55.1400   23.8840   -0.4670 C.3   394  LEU394      0.1561
    184  C        -54.1190   25.0060   -0.4180 C.2   394  LEU394      0.2260
    185  O        -53.8040   25.6000   -1.4540 O.2   394  LEU394     -0.2867
    186  CB       -54.4870   22.6430   -1.0620 C.3   394  LEU394      0.0270
    187  CG       -55.1220   21.2570   -0.9270 C.3   394  LEU394      0.0019
    188  CD1      -56.5800   21.2950   -0.6430 C.3   394  LEU394      0.0001
    189  CD2      -54.8780   20.4960   -2.1850 C.3   394  LEU394      0.0001
@<TRIPOS>BOND
     1    90    88    1
     2    82    83    2
     3    82    81    1
     4    88    87    2
     5    88    89    1
     6    87    86    1
     7    80    81    1
     8    84    81    1
     9    84    85    1
    10     1     2    1
    11    86    85    1
    12     4     3    2
    13    19    18    1
    14     5     2    1
    15     5     6    1
    16     2     3    1
    17     3     7   am
    18    71    70    2
    19    20    18    1
    20   181   180    1
    21    18    15    1
    22     7     8    1
    23     7    13    1
    24    14     9   am
    25    14    15    1
    26     8     9    1
    27     8    11    1
    28    75    77   ar
    29    75    73   ar
    30    77    78   ar
    31   173   174    1
    32     9    10    2
    33    15    16    1
    34    70    69    1
    35   179   180    1
    36   179   178    1
    37   174   175    1
    38   174   177    1
    39   176   175    2
    40    72    73    1
    41    72    69    1
    42    68    69    1
    43    73    74   ar
    44    13    12    1
    45    11    12    1
    46   189   187    1
    47    78    79    1
    48    78    76   ar
    49   177   178    1
    50    16    17    2
    51    16    21   am
    52   185   184    2
    53    74    76   ar
    54   182   183    1
    55   186   187    1
    56   186   183    1
    57    21    22    1
    58   187   188    1
    59   183   184    1
    60    28    26    1
    61    24    23    2
    62    22    23    1
    63    22    25    1
    64    98    97   ar
    65   149   148    1
    66    26    25    1
    67    25    27    1
    68    97    99   ar
    69    97    96    1
    70    93    92    1
    71    93    94    2
    72    92    91    1
    73    92    95    1
    74   159   158    1
    75   148   147    1
    76    96    95    1
    77   172   171    1
    78   160   158    1
    79   110   108   ar
    80   110   109   ar
    81   158   157    2
    82   108   106   ar
    83   147   146    1
    84   109   107   ar
    85    55    54    1
    86   171   169   ar
    87   171   170   ar
    88    59    58    2
    89   139   138    2
    90   157   156    1
    91   136   137    1
    92   169   167   ar
    93   170   168   ar
    94   106   105   ar
    95   146   145    1
    96   156   155    1
    97   118   117   ar
    98    54    53    1
    99   107   105   ar
   100   119   117   ar
   101    58    57    1
   102   145   142    1
   103   117   116    1
   104   138   137    1
   105   140   137    1
   106   105   104    1
   107   164   163    2
   108   135   134    1
   109   167   166   ar
   110   168   166   ar
   111   100   101    1
   112    53    52    1
   113   141   142    1
   114   155   154    1
   115    60    57    1
   116    60    61    1
   117   166   165    1
   118   134   133    1
   119    57    56    1
   120   116   115    1
   121   142   143    1
   122    52    51    1
   123   163   162    1
   124   102   101    1
   125   102   103    2
   126   101   104    1
   127    56    49   am
   128   154   151    1
   129   144   143    2
   130   126   124    1
   131    61    63   ar
   132    61    62   ar
   133   115   112    1
   134   125   124    1
   135    63    65   ar
   136   132   133    1
   137   132   131    1
   138   162   165    1
   139   162   161    1
   140    49    50    2
   141    49    48    1
   142    51    48    1
   143   124   121    1
   144    48    47    1
   145    62    64   ar
   146   150   151    1
   147   151   152    1
   148   131   128    1
   149    65    66   ar
   150    37    35   ar
   151   112   111    1
   152   112   113    1
   153   128   129    1
   154   128   127    1
   155   121   122    1
   156   121   120    1
   157    36    35   ar
   158   152   153    2
   159    41    40    2
   160    64    66   ar
   161   113   114    2
   162    35    34    1
   163    66    67    1
   164    47    40   am
   165   129   130    2
   166   122   123    2
   167    40    39    1
   168    33    34    1
   169    33    30    1
   170    39    42    1
   171    39    38    1
   172    32    31    2
   173    31    30    1
   174    31    38   am
   175    42    43    1
   176    30    29    1
   177    43    44    1
   178    44    45    1
   179    45    46    1
