@<TRIPOS>MOLECULE
tmp/4xrwA00.pdb
 136 133 0 0 0
SMALL
GASTEIGER

@<TRIPOS>ATOM
      1  N        -11.0800   11.3410  -19.5920 N.3    21  VAL21      -0.1245
      2  CA       -10.4240   10.6800  -18.4790 C.3    21  VAL21       0.1561
      3  C        -10.9870   11.1860  -17.1590 C.2    21  VAL21       0.2260
      4  O        -11.0690   10.4400  -16.1750 O.2    21  VAL21      -0.2867
      5  CB        -8.9140   10.8860  -18.5390 C.3    21  VAL21       0.0252
      6  CG1       -8.2060   10.1500  -17.3890 C.3    21  VAL21       0.0019
      7  CG2       -8.3730   10.4130  -19.9110 C.3    21  VAL21       0.0019
      8  N        -14.9270    5.8750  -19.2280 N.3    27  TRP27      -0.1241
      9  CA       -13.7710    4.9870  -19.2300 C.3    27  TRP27       0.1605
     10  C        -14.0000    3.7230  -20.0540 C.2    27  TRP27       0.2264
     11  O        -13.0890    3.3100  -20.7360 O.2    27  TRP27      -0.2867
     12  CB       -13.3870    4.6060  -17.8150 C.3    27  TRP27       0.0550
     13  CG       -12.5820    5.6770  -17.0910 C.ar   27  TRP27       0.0003
     14  CD1      -12.5060    6.9940  -17.3800 C.ar   27  TRP27       0.0946
     15  CD2      -11.7360    5.4600  -15.9560 C.ar   27  TRP27       0.0152
     16  NE1      -11.6580    7.6370  -16.4730 N.ar   27  TRP27      -0.2442
     17  CE2      -11.1880    6.7130  -15.5900 C.ar   27  TRP27       0.0810
     18  CE3      -11.4050    4.3290  -15.2060 C.ar   27  TRP27       0.0012
     19  CZ2      -10.3380    6.8560  -14.4990 C.ar   27  TRP27       0.0191
     20  CZ3      -10.5610    4.4690  -14.1380 C.ar   27  TRP27       0.0001
     21  CH2      -10.0340    5.7290  -13.7910 C.ar   27  TRP27       0.0015
     22  N        -10.8380    2.9940  -22.2750 N.3    31  PHE31      -0.1241
     23  CA        -9.9920    1.9380  -21.6920 C.3    31  PHE31       0.1605
     24  C        -10.6380    0.5660  -21.8950 C.2    31  PHE31       0.2264
     25  O        -11.5430    0.1890  -21.1550 O.2    31  PHE31      -0.2867
     26  CB        -9.7610    2.1870  -20.1940 C.3    31  PHE31       0.0534
     27  CG        -9.1060    3.5180  -19.9010 C.ar   31  PHE31      -0.0203
     28  CD1       -7.8340    3.7990  -20.3670 C.ar   31  PHE31      -0.0042
     29  CD2       -9.7630    4.4780  -19.1750 C.ar   31  PHE31      -0.0042
     30  CE1       -7.2450    5.0160  -20.1170 C.ar   31  PHE31      -0.0003
     31  CE2       -9.1550    5.7180  -18.9000 C.ar   31  PHE31      -0.0003
     32  CZ        -7.9060    5.9740  -19.3810 C.ar   31  PHE31      -0.0000
     33  N        -10.1170   -2.4780  -20.9780 N.3    33  PRO33      -0.2102
     34  CA       -10.4140   -3.3720  -19.8550 C.3    33  PRO33       0.1504
     35  C        -11.5360   -2.9230  -18.9230 C.2    33  PRO33       0.2576
     36  O        -12.0420   -3.7510  -18.1760 O.2    33  PRO33      -0.2718
     37  CB        -9.0890   -3.4280  -19.0800 C.3    33  PRO33       0.0282
     38  CG        -8.0470   -3.0020  -20.0840 C.3    33  PRO33       0.0208
     39  CD        -8.7580   -1.9270  -20.8900 C.3    33  PRO33       0.0893
     40  N        -11.8850   -1.6490  -18.9270 N.am   34  THR34      -0.1953
     41  CA       -12.7940   -1.1080  -17.9170 C.3    34  THR34       0.1897
     42  C        -14.2350   -1.4960  -18.2430 C.2    34  THR34       0.2313
     43  O        -14.7300   -1.2590  -19.3410 O.2    34  THR34      -0.2863
     44  CB       -12.6810    0.4240  -17.7970 C.3    34  THR34       0.1794
     45  OG1      -11.3190    0.7890  -17.4910 O.3    34  THR34      -0.2208
     46  CG2      -13.5550    0.9130  -16.6980 C.3    34  THR34       0.0378
     47  N        -13.4990    0.9250   -9.5150 N.3    49  ILE49      -0.1245
     48  CA       -13.2910    0.5510  -10.9040 C.3    49  ILE49       0.1561
     49  C        -13.4840   -0.9590  -11.0070 C.2    49  ILE49       0.2260
     50  O        -12.8810   -1.7230  -10.2480 O.2    49  ILE49      -0.2867
     51  CB       -11.8940    0.9020  -11.3790 C.3    49  ILE49       0.0252
     52  CG1      -11.6350    2.4110  -11.2920 C.3    49  ILE49       0.0019
     53  CG2      -11.6760    0.4330  -12.7930 C.3    49  ILE49       0.0019
     54  CD1      -10.1810    2.7350  -11.0110 C.3    49  ILE49       0.0001
     55  N        -12.9450   -3.9600  -13.8200 N.3    51  ALA51      -0.1245
     56  CA       -12.2400   -4.2240  -15.0710 C.3    51  ALA51       0.1562
     57  C        -11.9730   -5.7030  -15.3020 C.2    51  ALA51       0.2260
     58  O        -12.0510   -6.5360  -14.3770 O.2    51  ALA51      -0.2867
     59  CB       -10.9280   -3.4700  -15.1000 C.3    51  ALA51       0.0290
     60  N        -11.3270   -2.4870   -7.7570 N.3    60  TRP60      -0.1241
     61  CA       -10.4300   -1.8170   -6.8010 C.3    60  TRP60       0.1605
     62  C        -10.8470   -0.3530   -6.6880 C.2    60  TRP60       0.2264
     63  O        -11.6790    0.1330   -7.4510 O.2    60  TRP60      -0.2867
     64  CB        -8.9710   -1.9440   -7.2260 C.3    60  TRP60       0.0550
     65  CG        -8.5860   -1.1810   -8.4400 C.ar   60  TRP60       0.0003
     66  CD1       -8.0590    0.0760   -8.4940 C.ar   60  TRP60       0.0946
     67  CD2       -8.6770   -1.6400   -9.7900 C.ar   60  TRP60       0.0152
     68  NE1       -7.8090    0.4290   -9.8030 N.ar   60  TRP60      -0.2442
     69  CE2       -8.1880   -0.6110  -10.6160 C.ar   60  TRP60       0.0810
     70  CE3       -9.1300   -2.8260  -10.3770 C.ar   60  TRP60       0.0012
     71  CZ2       -8.1430   -0.7230  -11.9990 C.ar   60  TRP60       0.0191
     72  CZ3       -9.0820   -2.9400  -11.7620 C.ar   60  TRP60       0.0001
     73  CH2       -8.5820   -1.8980  -12.5540 C.ar   60  TRP60       0.0015
     74  N         -8.5560   10.1690   -6.4200 N.3    64  ARG64      -0.1245
     75  CA        -8.0920   11.1040   -7.4510 C.3    64  ARG64       0.1563
     76  C         -8.2800   12.5520   -7.0230 C.2    64  ARG64       0.2260
     77  O         -9.1750   12.8840   -6.2460 O.2    64  ARG64      -0.2867
     78  CB        -8.8030   10.8880   -8.7910 C.3    64  ARG64       0.0307
     79  CG        -8.8840    9.4200   -9.2350 C.3    64  ARG64       0.0489
     80  CD        -9.1540    9.3120  -10.7420 C.3    64  ARG64       0.2205
     81  NE       -10.3750    9.9860  -11.1110 N.pl3  64  ARG64      -0.0865
     82  CZ       -10.7220   10.3190  -12.3530 C.cat  64  ARG64       0.5346
     83  NH1       -9.9240   10.0710  -13.3950 N.pl3  64  ARG64       0.1354
     84  NH2      -11.8680   10.9260  -12.5270 N.pl3  64  ARG64       0.1354
     85  N         -3.8140   10.3310   -9.4250 N.3    75  PHE75      -0.1241
     86  CA        -4.5590    9.1880   -8.9040 C.3    75  PHE75       0.1605
     87  C         -3.6580    8.3550   -8.0220 C.2    75  PHE75       0.2264
     88  O         -2.4360    8.3970   -8.1580 O.2    75  PHE75      -0.2867
     89  CB        -5.1570    8.3460  -10.0400 C.3    75  PHE75       0.0534
     90  CG        -4.1500    7.8790  -11.0650 C.ar   75  PHE75      -0.0203
     91  CD1       -3.5530    6.6330  -10.9450 C.ar   75  PHE75      -0.0042
     92  CD2       -3.8280    8.6710  -12.1630 C.ar   75  PHE75      -0.0042
     93  CE1       -2.6390    6.1800  -11.8900 C.ar   75  PHE75      -0.0003
     94  CE2       -2.9400    8.2220  -13.1070 C.ar   75  PHE75      -0.0003
     95  CZ        -2.3440    6.9940  -12.9860 C.ar   75  PHE75      -0.0000
     96  N         -2.1160   11.9850  -14.9260 N.3    91  TRP91      -0.1241
     97  CA        -2.4190   12.3170  -16.3070 C.3    91  TRP91       0.1605
     98  C         -2.1730   13.8010  -16.4790 C.2    91  TRP91       0.2264
     99  O         -2.6050   14.6010  -15.6480 O.2    91  TRP91      -0.2867
    100  CB        -3.8830   12.0250  -16.6720 C.3    91  TRP91       0.0550
    101  CG        -4.2440   10.5670  -16.6570 C.ar   91  TRP91       0.0003
    102  CD1       -4.7920    9.8760  -15.6100 C.ar   91  TRP91       0.0946
    103  CD2       -4.0980    9.6360  -17.7240 C.ar   91  TRP91       0.0152
    104  NE1       -4.9900    8.5640  -15.9730 N.ar   91  TRP91      -0.2442
    105  CE2       -4.5610    8.3870  -17.2560 C.ar   91  TRP91       0.0810
    106  CE3       -3.6100    9.7260  -19.0340 C.ar   91  TRP91       0.0012
    107  CZ2       -4.5520    7.2470  -18.0460 C.ar   91  TRP91       0.0191
    108  CZ3       -3.6100    8.5900  -19.8140 C.ar   91  TRP91       0.0001
    109  CH2       -4.0820    7.3730  -19.3250 C.ar   91  TRP91       0.0015
    110  N          3.9320    7.7330  -13.5460 N.3   107  HIS107     -0.1241
    111  CA         3.7330    6.8640  -12.3860 C.3   107  HIS107      0.1621
    112  C          4.8130    7.0800  -11.3700 C.2   107  HIS107      0.2264
    113  O          5.9540    7.4320  -11.7070 O.2   107  HIS107     -0.2867
    114  CB         3.6990    5.3910  -12.8000 C.3   107  HIS107      0.0745
    115  CG         2.4620    4.9980  -13.5400 C.ar  107  HIS107      0.0817
    116  ND1        2.3440    5.1000  -14.9140 N.ar  107  HIS107     -0.2268
    117  CD2        1.2780    4.5180  -13.0980 C.ar  107  HIS107      0.1154
    118  CE1        1.1410    4.7020  -15.2800 C.ar  107  HIS107      0.1986
    119  NE2        0.4750    4.3430  -14.1970 N.ar  107  HIS107     -0.2212
    120  N          2.2140   -2.0450  -19.1800 N.3   129  ASN129     -0.1240
    121  CA         0.8400   -1.5880  -19.0600 C.3   129  ASN129      0.1653
    122  C          0.6250   -0.1640  -19.5620 C.2   129  ASN129      0.2266
    123  O         -0.3680    0.1030  -20.2330 O.2   129  ASN129     -0.2867
    124  CB         0.3650   -1.6960  -17.6100 C.3   129  ASN129      0.1155
    125  CG        -1.1260   -1.5890  -17.5030 C.2   129  ASN129      0.2627
    126  OD1       -1.8450   -2.5330  -17.8370 O.2   129  ASN129     -0.2716
    127  ND2       -1.6130   -0.4200  -17.0960 N.am  129  ASN129     -0.0877
    128  N         -1.9010    0.8850  -22.5550 N.3   133  GLU133     -0.1245
    129  CA        -2.9810    1.7760  -22.1760 C.3   133  GLU133      0.1567
    130  C         -3.0040    3.0240  -23.0450 C.2   133  GLU133      0.2260
    131  O         -4.0650    3.4360  -23.4990 O.2   133  GLU133     -0.2867
    132  CB        -2.8540    2.1560  -20.6900 C.3   133  GLU133      0.0388
    133  CG        -3.8360    3.1560  -20.1940 C.3   133  GLU133      0.1160
    134  CD        -3.9150    3.1870  -18.6710 C.2   133  GLU133      0.3649
    135  OE1       -2.9750    3.7030  -18.0190 O.co2 133  GLU133     -0.2457
    136  OE2       -4.9240    2.6820  -18.1350 O.co2 133  GLU133     -0.2457
@<TRIPOS>BOND
     1   131   130    2
     2   130   129    1
     3   128   129    1
     4    22    23    1
     5   129   132    1
     6    24    23    1
     7    24    25    2
     8    23    26    1
     9    33    39    1
    10    33    34    1
    11    39    38    1
    12    11    10    2
    13   132   133    1
    14    28    30   ar
    15    28    27   ar
    16   123   122    2
    17    26    27    1
    18   133   134    1
    19    30    32   ar
    20    38    37    1
    21    10     9    1
    22     7     5    1
    23    27    29   ar
    24    34    37    1
    25    34    35    1
    26   108   109   ar
    27   108   106   ar
    28     1     2    1
    29   122   121    1
    30    32    31   ar
    31    43    42    2
    32   109   107   ar
    33     9     8    1
    34     9    12    1
    35   120   121    1
    36    29    31   ar
    37   121   124    1
    38   106   103   ar
    39    40    35   am
    40    40    41    1
    41    35    36    2
    42   134   136   ar
    43   134   135   ar
    44     5     2    1
    45     5     6    1
    46     2     3    1
    47    42    41    1
    48   107   105   ar
    49    41    44    1
    50   126   125    2
    51    12    13    1
    52    44    45    1
    53    44    46    1
    54   103   105   ar
    55   103   101   ar
    56   124   125    1
    57   125   127   am
    58    14    13   ar
    59    14    16   ar
    60   105   104   ar
    61     3     4    2
    62    13    15   ar
    63   100   101    1
    64   100    97    1
    65   101   102   ar
    66    98    97    1
    67    98    99    2
    68    16    17   ar
    69    97    96    1
    70   104   102   ar
    71    15    17   ar
    72    15    18   ar
    73    17    19   ar
    74    57    56    1
    75    57    58    2
    76   118   116   ar
    77   118   119   ar
    78    18    20   ar
    79    59    56    1
    80    56    55    1
    81   116   115   ar
    82    19    21   ar
    83   119   117   ar
    84    20    21   ar
    85   110   111    1
    86   115   117   ar
    87   115   114    1
    88    83    82    1
    89    94    95   ar
    90    94    92   ar
    91    95    93   ar
    92   114   111    1
    93    53    51    1
    94    73    71   ar
    95    73    72   ar
    96    84    82    1
    97   111   112    1
    98    82    81    2
    99    92    90   ar
   100    71    69   ar
   101    93    91   ar
   102    72    70   ar
   103   113   112    2
   104    51    52    1
   105    51    48    1
   106    52    54    1
   107    81    80    1
   108    90    91   ar
   109    90    89    1
   110    49    48    1
   111    49    50    2
   112    48    47    1
   113    80    79    1
   114    69    68   ar
   115    69    67   ar
   116    70    67   ar
   117    89    86    1
   118    68    66   ar
   119    67    65   ar
   120    85    86    1
   121    79    78    1
   122    86    87    1
   123    78    75    1
   124    66    65   ar
   125    65    64    1
   126    88    87    2
   127    60    61    1
   128    63    62    2
   129    75    76    1
   130    75    74    1
   131    64    61    1
   132    76    77    2
   133    61    62    1
