@<TRIPOS>MOLECULE
tmp/4xrxA01.pdb
 82 74 0 0 0
SMALL
GASTEIGER

@<TRIPOS>ATOM
      1  N         34.3380  -13.3160  -21.7820 N.3    73  THR73      -0.1218
      2  CA        35.2400  -14.3240  -22.2940 C.3    73  THR73       0.1862
      3  C         35.6130  -15.3200  -21.2230 C.2    73  THR73       0.2287
      4  O         35.8270  -14.9480  -20.0360 O.2    73  THR73      -0.2866
      5  CB        36.5430  -13.6960  -22.7810 C.3    73  THR73       0.1770
      6  OG1       36.8330  -12.5490  -21.9850 O.3    73  THR73      -0.2211
      7  CG2       36.4110  -13.2670  -24.1950 C.3    73  THR73       0.0375
      8  N         37.8780  -17.3770  -19.0270 N.3    75  THR75      -0.1218
      9  CA        39.2390  -17.3880  -18.5010 C.3    75  THR75       0.1862
     10  C         39.6330  -18.8610  -18.2700 C.2    75  THR75       0.2287
     11  O         38.8710  -19.6270  -17.6440 O.2    75  THR75      -0.2866
     12  CB        39.3800  -16.5420  -17.2240 C.3    75  THR75       0.1770
     13  OG1       39.0030  -15.1860  -17.5100 O.3    75  THR75      -0.2211
     14  CG2       40.8150  -16.5760  -16.7140 C.3    75  THR75       0.0375
     15  N         43.8500  -14.3000  -18.5250 N.3    92  SER92      -0.1217
     16  CA        42.6080  -13.5140  -18.6300 C.3    92  SER92       0.1889
     17  C         42.7120  -12.2810  -19.5440 C.2    92  SER92       0.2288
     18  O         43.5150  -11.3700  -19.2670 O.2    92  SER92      -0.2866
     19  CB        42.1620  -13.0520  -17.2340 C.3    92  SER92       0.2089
     20  OG        41.0560  -12.1630  -17.3140 O.3    92  SER92      -0.2183
     21  N         40.8630   -9.5680  -20.0130 N.3    94  ASN94      -0.1225
     22  CA        40.7810   -8.3620  -19.1950 C.3    94  ASN94       0.1785
     23  C         42.1230   -8.0130  -18.5850 C.2    94  ASN94       0.2597
     24  O         42.5640   -6.8670  -18.6770 O.2    94  ASN94      -0.2718
     25  CB        39.7630   -8.5820  -18.1020 C.3    94  ASN94       0.1169
     26  CG        38.5960   -9.3840  -18.5920 C.2    94  ASN94       0.2627
     27  OD1       37.7220   -8.8440  -19.2660 O.2    94  ASN94      -0.2716
     28  ND2       38.5980  -10.6950  -18.3130 N.am   94  ASN94      -0.0877
     29  N         42.7690   -9.0190  -17.9860 N.am   95  GLY95      -0.1957
     30  CA        44.1270   -8.9000  -17.4500 C.3    95  GLY95       0.1869
     31  C         45.0760   -8.3310  -18.4700 C.2    95  GLY95       0.2309
     32  O         45.7740   -7.3580  -18.1960 O.2    95  GLY95      -0.2863
     33  N         43.6840   -4.7060  -19.6300 N.3    98  ARG98      -0.1231
     34  CA        43.7770   -3.7470  -18.5330 C.3    98  ARG98       0.1694
     35  C         45.2200   -3.3650  -18.2360 C.2    98  ARG98       0.2592
     36  O         45.5030   -2.2400  -17.8280 O.2    98  ARG98      -0.2718
     37  CB        43.1370   -4.3300  -17.2850 C.3    98  ARG98       0.0321
     38  CG        42.6050   -3.3030  -16.3160 C.3    98  ARG98       0.0489
     39  CD        41.9640   -4.0510  -15.1750 C.3    98  ARG98       0.2205
     40  NE        40.7920   -4.7890  -15.6410 N.pl3  98  ARG98      -0.0865
     41  CZ        40.4260   -5.9850  -15.1870 C.cat  98  ARG98       0.5346
     42  NH1       41.1580   -6.6010  -14.2630 N.pl3  98  ARG98       0.1354
     43  NH2       39.3290   -6.5680  -15.6650 N.pl3  98  ARG98       0.1354
     44  N         46.1290   -4.3080  -18.4460 N.am   99  ASN99      -0.1974
     45  CA        47.5490   -4.0220  -18.3090 C.3    99  ASN99       0.1688
     46  C         48.1550   -3.3250  -19.5280 C.2    99  ASN99       0.2292
     47  O         49.3720   -3.1880  -19.6070 O.2    99  ASN99      -0.2864
     48  CB        48.3380   -5.2980  -17.9620 C.3    99  ASN99       0.1181
     49  CG        48.2840   -5.6360  -16.4760 C.2    99  ASN99       0.2629
     50  OD1       48.3710   -4.7490  -15.6190 O.2    99  ASN99      -0.2716
     51  ND2       48.1490   -6.9260  -16.1630 N.am   99  ASN99      -0.0877
     52  N         31.8370   -0.3870  -11.4760 N.3   107  ARG107     -0.1245
     53  CA        30.5820   -1.1330  -11.5320 C.3   107  ARG107      0.1563
     54  C         29.3910   -0.2710  -11.1340 C.2   107  ARG107      0.2260
     55  O         29.4320    0.4480  -10.1420 O.2   107  ARG107     -0.2867
     56  CB        30.6540   -2.3860  -10.6540 C.3   107  ARG107      0.0307
     57  CG        31.4990   -3.5100  -11.2420 C.3   107  ARG107      0.0489
     58  CD        32.2770   -4.2370  -10.1530 C.3   107  ARG107      0.2205
     59  NE        33.4790   -4.8810  -10.6790 N.pl3 107  ARG107     -0.0865
     60  CZ        33.6010   -6.1850  -10.9150 C.cat 107  ARG107      0.5346
     61  NH1       32.5910   -7.0200  -10.6630 N.pl3 107  ARG107      0.1354
     62  NH2       34.7460   -6.6580  -11.3990 N.pl3 107  ARG107      0.1354
     63  N         48.7500   -7.4890   -6.3340 N.3   133  ARG133     -0.1245
     64  CA        50.1550   -7.7610   -6.6190 C.3   133  ARG133      0.1563
     65  C         50.9670   -7.6430   -5.3180 C.2   133  ARG133      0.2260
     66  O         51.9600   -6.9150   -5.2530 O.2   133  ARG133     -0.2867
     67  CB        50.6980   -6.8000   -7.6970 C.3   133  ARG133      0.0307
     68  CG        49.6760   -5.8230   -8.2880 C.3   133  ARG133      0.0489
     69  CD        50.0920   -5.2540   -9.6450 C.3   133  ARG133      0.2205
     70  NE        49.4220   -5.9330  -10.7580 N.pl3 133  ARG133     -0.0865
     71  CZ        49.9120   -6.9850  -11.4150 C.cat 133  ARG133      0.5346
     72  NH1       51.0920   -7.5010  -11.0870 N.pl3 133  ARG133      0.1354
     73  NH2       49.2180   -7.5240  -12.4080 N.pl3 133  ARG133      0.1354
     74  N         31.7380   -3.5600  -20.5780 N.3   283  GLU283     -0.1245
     75  CA        31.4970   -5.0090  -20.5030 C.3   283  GLU283      0.1567
     76  C         30.5930   -5.3020  -19.3420 C.2   283  GLU283      0.2260
     77  O         30.6450   -4.6220  -18.3220 O.2   283  GLU283     -0.2867
     78  CB        32.7960   -5.7760  -20.2990 C.3   283  GLU283      0.0388
     79  CG        33.8100   -5.0430  -19.4240 C.3   283  GLU283      0.1160
     80  CD        34.8530   -5.9520  -18.7950 C.2   283  GLU283      0.3649
     81  OE1       35.1180   -7.0550  -19.3570 O.co2 283  GLU283     -0.2457
     82  OE2       35.4000   -5.5470  -17.7320 O.co2 283  GLU283     -0.2457
@<TRIPOS>BOND
     1     7     5    1
     2     5     2    1
     3     5     6    1
     4     2     1    1
     5     2     3    1
     6     3     4    2
     7    74    75    1
     8    75    78    1
     9    75    76    1
    10    78    79    1
    11    21    22    1
    12    33    34    1
    13    47    46    2
    14    17    18    2
    15    17    16    1
    16    46    45    1
    17    79    80    1
    18    81    80   ar
    19    76    77    2
    20    27    26    2
    21    22    23    1
    22    22    25    1
    23     8     9    1
    24    80    82   ar
    25    24    23    2
    26    16    15    1
    27    16    19    1
    28    26    28   am
    29    26    25    1
    30    23    29   am
    31    34    35    1
    32    34    37    1
    33     9    10    1
    34     9    12    1
    35    31    32    2
    36    31    30    1
    37    44    45    1
    38    44    35   am
    39    45    48    1
    40    10    11    2
    41    35    36    2
    42    29    30    1
    43    48    49    1
    44    13    12    1
    45    20    19    1
    46    37    38    1
    47    12    14    1
    48    49    51   am
    49    49    50    2
    50    38    39    1
    51    43    41    1
    52    40    41    2
    53    40    39    1
    54    41    42    1
    55    73    71    1
    56    53    52    1
    57    53    54    1
    58    53    56    1
    59    71    72    1
    60    71    70    2
    61    62    60    1
    62    57    56    1
    63    57    58    1
    64    54    55    2
    65    60    59    2
    66    60    61    1
    67    70    69    1
    68    59    58    1
    69    69    68    1
    70    68    67    1
    71    67    64    1
    72    64    63    1
    73    64    65    1
    74    65    66    2
