@<TRIPOS>MOLECULE
tmp/4xryA01.pdb
 150 140 0 0 0
SMALL
GASTEIGER

@<TRIPOS>ATOM
      1  N        -11.1150   32.1350    2.5980 N.3    87  PHE87      -0.1227
      2  CA       -11.1030   30.6900    2.7680 C.3    87  PHE87       0.1736
      3  C        -12.0460   30.2050    3.8620 C.2    87  PHE87       0.2595
      4  O        -12.8860   29.3380    3.6200 O.2    87  PHE87      -0.2718
      5  CB        -9.6810   30.2160    3.0680 C.3    87  PHE87       0.0547
      6  CG        -9.4740   28.7470    2.8520 C.ar   87  PHE87      -0.0202
      7  CD1       -9.1280   28.2620    1.6000 C.ar   87  PHE87      -0.0042
      8  CD2       -9.6210   27.8500    3.8980 C.ar   87  PHE87      -0.0042
      9  CE1       -8.9320   26.9090    1.3940 C.ar   87  PHE87      -0.0003
     10  CE2       -9.4260   26.4930    3.7020 C.ar   87  PHE87      -0.0003
     11  CZ        -9.0800   26.0220    2.4470 C.ar   87  PHE87      -0.0000
     12  N        -11.9080   30.7630    5.0620 N.am   88  LEU88      -0.1980
     13  CA       -12.7140   30.3250    6.2010 C.3    88  LEU88       0.1596
     14  C        -13.8840   31.2540    6.4770 C.2    88  LEU88       0.2287
     15  O        -14.6380   31.0370    7.4230 O.2    88  LEU88      -0.2864
     16  CB       -11.8520   30.2160    7.4580 C.3    88  LEU88       0.0297
     17  CG       -10.8540   29.0600    7.5180 C.3    88  LEU88       0.0022
     18  CD1      -10.0180   29.1590    8.7810 C.3    88  LEU88       0.0001
     19  CD2      -11.5810   27.7220    7.4540 C.3    88  LEU88       0.0001
     20  N          4.9830   28.4650    6.9170 N.3   176  ALA176     -0.1245
     21  CA         3.7370   28.1210    6.2450 C.3   176  ALA176      0.1562
     22  C          3.4470   26.6230    6.3110 C.2   176  ALA176      0.2260
     23  O          2.3020   26.2100    6.4970 O.2   176  ALA176     -0.2867
     24  CB         3.7800   28.5830    4.8020 C.3   176  ALA176      0.0290
     25  N          2.5640   25.6410    9.8580 N.3   179  GLY179     -0.1210
     26  CA         1.2190   26.0990   10.1480 C.3   179  GLY179      0.1956
     27  C          0.1680   25.1500    9.6120 C.2   179  GLY179      0.2611
     28  O         -0.8580   24.9210   10.2510 O.2   179  GLY179     -0.2717
     29  N          0.4290   24.5910    8.4340 N.am  180  LEU180     -0.1979
     30  CA        -0.4820   23.6310    7.8230 C.3   180  LEU180      0.1596
     31  C         -0.6520   22.4130    8.7260 C.2   180  LEU180      0.2287
     32  O         -1.7440   21.8550    8.8310 O.2   180  LEU180     -0.2864
     33  CB         0.0280   23.2120    6.4430 C.3   180  LEU180      0.0297
     34  CG        -0.8870   22.3120    5.6100 C.3   180  LEU180      0.0022
     35  CD1       -0.9280   22.8010    4.1760 C.3   180  LEU180      0.0001
     36  CD2       -0.4260   20.8640    5.6650 C.3   180  LEU180      0.0001
     37  N         -3.1730   22.9440   11.6130 N.3   183  GLU183     -0.1245
     38  CA        -4.5950   22.8390   11.3120 C.3   183  GLU183      0.1567
     39  C         -5.1030   21.4350   11.6150 C.2   183  GLU183      0.2260
     40  O         -6.2270   21.2600   12.0820 O.2   183  GLU183     -0.2867
     41  CB        -4.8800   23.2040    9.8530 C.3   183  GLU183      0.0388
     42  CG        -5.3120   24.6500    9.6580 C.3   183  GLU183      0.1160
     43  CD        -6.1420   24.8470    8.4050 C.2   183  GLU183      0.3649
     44  OE1       -6.0860   23.9790    7.5090 O.co2 183  GLU183     -0.2457
     45  OE2       -6.8580   25.8670    8.3180 O.co2 183  GLU183     -0.2457
     46  N          1.2030   29.6850   12.9640 N.3   211  GLN211     -0.1245
     47  CA         0.2680   30.5290   12.2290 C.3   211  GLN211      0.1566
     48  C          0.5630   31.9970   12.5210 C.2   211  GLN211      0.2260
     49  O          0.6750   32.8140   11.6050 O.2   211  GLN211     -0.2867
     50  CB        -1.1820   30.2010   12.5970 C.3   211  GLN211      0.0367
     51  CG        -1.5360   28.7270   12.5250 C.3   211  GLN211      0.0905
     52  CD        -2.2540   28.3520   11.2490 C.2   211  GLN211      0.2608
     53  OE1       -1.8370   27.4400   10.5400 O.2   211  GLN211     -0.2717
     54  NE2       -3.3480   29.0450   10.9550 N.am  211  GLN211     -0.0878
     55  N          3.8140   33.0950   11.0240 N.3   214  PHE214     -0.1241
     56  CA         3.6360   33.2760    9.5880 C.3   214  PHE214      0.1605
     57  C          2.9930   34.6260    9.2720 C.2   214  PHE214      0.2264
     58  O          3.4310   35.3350    8.3660 O.2   214  PHE214     -0.2867
     59  CB         2.7930   32.1340    9.0140 C.3   214  PHE214      0.0534
     60  CG         2.5340   32.2490    7.5390 C.ar  214  PHE214     -0.0203
     61  CD1        3.5480   32.0310    6.6230 C.ar  214  PHE214     -0.0042
     62  CD2        1.2700   32.5570    7.0670 C.ar  214  PHE214     -0.0042
     63  CE1        3.3120   32.1330    5.2650 C.ar  214  PHE214     -0.0003
     64  CE2        1.0280   32.6590    5.7100 C.ar  214  PHE214     -0.0003
     65  CZ         2.0510   32.4470    4.8090 C.ar  214  PHE214     -0.0000
     66  N         -2.6840   36.0600    3.3310 N.3   267  ALA267     -0.1231
     67  CA        -2.2390   34.7880    3.8900 C.3   267  ALA267      0.1694
     68  C         -3.0380   33.6150    3.3210 C.2   267  ALA267      0.2592
     69  O         -2.4870   32.5420    3.0800 O.2   267  ALA267     -0.2718
     70  CB        -2.3410   34.8100    5.4030 C.3   267  ALA267      0.0304
     71  N         -4.3350   33.8250    3.1180 N.am  268  ASP268     -0.1974
     72  CA        -5.1880   32.8270    2.4830 C.3   268  ASP268      0.1709
     73  C         -4.7150   32.5330    1.0630 C.2   268  ASP268      0.2293
     74  O         -4.5080   31.3790    0.6930 O.2   268  ASP268     -0.2864
     75  CB        -6.6430   33.2990    2.4530 C.3   268  ASP268      0.1436
     76  CG        -7.3400   33.1450    3.7900 C.2   268  ASP268      0.3671
     77  OD1       -8.5500   33.4480    3.8570 O.co2 268  ASP268     -0.2456
     78  OD2       -6.6880   32.7130    4.7640 O.co2 268  ASP268     -0.2456
     79  N         -0.9440   31.0010    0.7820 N.3   271  SER271     -0.1202
     80  CA        -0.7450   29.6290    1.2280 C.3   271  SER271      0.2020
     81  C         -1.6080   28.6080    0.4890 C.2   271  SER271      0.2618
     82  O         -1.1190   27.5370    0.1270 O.2   271  SER271     -0.2717
     83  CB        -1.0020   29.5290    2.7300 C.3   271  SER271      0.2103
     84  OG        -2.1700   30.2370    3.0840 O.3   271  SER271     -0.2182
     85  N         -2.8810   28.9310    0.2670 N.am  272  ALA272     -0.1979
     86  CA        -3.8070   27.9920   -0.3760 C.3   272  ALA272      0.1597
     87  C         -3.3350   27.5920   -1.7680 C.2   272  ALA272      0.2287
     88  O         -3.6400   26.4990   -2.2420 O.2   272  ALA272     -0.2864
     89  CB        -5.2100   28.5840   -0.4520 C.3   272  ALA272      0.0319
     90  N         -0.0580   27.4310   -2.6580 N.3   274  MET274     -0.1230
     91  CA         1.3690   27.1930   -2.5100 C.3   274  MET274      0.1702
     92  C          1.6280   25.7330   -2.2080 C.2   274  MET274      0.2592
     93  O          2.5540   25.1350   -2.7410 O.2   274  MET274     -0.2718
     94  CB         1.9560   28.0690   -1.4030 C.3   274  MET274      0.0401
     95  CG         3.3000   27.5980   -0.8780 C.3   274  MET274      0.0596
     96  SD         4.1010   28.8470    0.1440 S.3   274  MET274     -0.1393
     97  CE         2.8390   29.1620    1.3730 C.3   274  MET274      0.0692
     98  N          0.8010   25.1640   -1.3420 N.am  275  VAL275     -0.1966
     99  CA         0.9600   23.7760   -0.9440 C.3   275  VAL275      0.1727
    100  C          0.1330   22.8770   -1.8670 C.2   275  VAL275      0.2616
    101  O          0.4000   21.6840   -1.9920 O.2   275  VAL275     -0.2715
    102  CB         0.5500   23.5760    0.5340 C.3   275  VAL275      0.0290
    103  CG1       -0.9270   23.8920    0.7250 C.3   275  VAL275      0.0023
    104  CG2        0.8910   22.1660    1.0190 C.3   275  VAL275      0.0023
    105  N         -0.8600   23.4600   -2.5300 N.am  276  THR276     -0.1951
    106  CA        -1.7070   22.7000   -3.4390 C.3   276  THR276      0.1897
    107  C         -1.0630   22.5590   -4.8150 C.2   276  THR276      0.2313
    108  O         -0.8860   21.4470   -5.3120 O.2   276  THR276     -0.2863
    109  CB        -3.0950   23.3480   -3.5980 C.3   276  THR276      0.1794
    110  OG1       -2.9430   24.7550   -3.8170 O.3   276  THR276     -0.2208
    111  CG2       -3.9410   23.1180   -2.3530 C.3   276  THR276      0.0378
    112  N         -6.6060   16.7800   -2.3500 N.3   337  VAL337     -0.1245
    113  CA        -7.5390   17.1910   -1.3020 C.3   337  VAL337      0.1561
    114  C         -8.7220   16.2310   -1.2700 C.2   337  VAL337      0.2260
    115  O         -9.8210   16.5840   -1.6910 O.2   337  VAL337     -0.2867
    116  CB        -8.0630   18.6290   -1.5070 C.3   337  VAL337      0.0252
    117  CG1       -8.3760   19.2670   -0.1660 C.3   337  VAL337      0.0019
    118  CG2       -7.0550   19.4700   -2.2570 C.3   337  VAL337      0.0019
    119  N        -12.6730   20.8320    1.3750 N.3   341  VAL341     -0.1245
    120  CA       -12.7470   21.7350    2.5130 C.3   341  VAL341      0.1561
    121  C        -14.1820   21.7070    3.0270 C.2   341  VAL341      0.2260
    122  O        -15.1230   21.7330    2.2370 O.2   341  VAL341     -0.2867
    123  CB       -12.3200   23.1680    2.1280 C.3   341  VAL341      0.0252
    124  CG1      -12.4430   24.1120    3.3140 C.3   341  VAL341      0.0019
    125  CG2      -10.8980   23.1610    1.6130 C.3   341  VAL341      0.0019
    126  N        -12.7680   26.4880   -5.8020 N.3   410  CYS410     -0.1235
    127  CA       -11.4640   27.1610   -5.7750 C.3   410  CYS410      0.1677
    128  C        -11.4080   28.4160   -6.6460 C.2   410  CYS410      0.2270
    129  O        -11.5900   28.3420   -7.8570 O.2   410  CYS410     -0.2867
    130  CB       -10.3690   26.1790   -6.2080 C.3   410  CYS410      0.0956
    131  SG        -8.6660   26.7870   -6.0550 S.3   410  CYS410     -0.0801
    132  N         -4.6200   16.4950    5.5870 N.3   450  PHE450     -0.1227
    133  CA        -5.6520   17.3400    5.0010 C.3   450  PHE450      0.1736
    134  C         -5.3000   17.5480    3.5360 C.2   450  PHE450      0.2595
    135  O         -6.1670   17.7990    2.6980 O.2   450  PHE450     -0.2718
    136  CB        -5.7720   18.6800    5.7250 C.3   450  PHE450      0.0547
    137  CG        -6.8270   19.5820    5.1480 C.ar  450  PHE450     -0.0202
    138  CD1       -8.1640   19.2210    5.1970 C.ar  450  PHE450     -0.0042
    139  CD2       -6.4860   20.7870    4.5560 C.ar  450  PHE450     -0.0042
    140  CE1       -9.1410   20.0450    4.6670 C.ar  450  PHE450     -0.0003
    141  CE2       -7.4610   21.6160    4.0250 C.ar  450  PHE450     -0.0003
    142  CZ        -8.7880   21.2440    4.0790 C.ar  450  PHE450     -0.0000
    143  N         -4.0100   17.4320    3.2440 N.am  451  LEU451     -0.1980
    144  CA        -3.5090   17.4910    1.8820 C.3   451  LEU451      0.1596
    145  C         -2.5860   16.2940    1.6380 C.2   451  LEU451      0.2287
    146  O         -1.6380   16.0710    2.3900 O.2   451  LEU451     -0.2864
    147  CB        -2.7840   18.8170    1.6400 C.3   451  LEU451      0.0297
    148  CG        -2.5030   19.2320    0.1980 C.3   451  LEU451      0.0022
    149  CD1       -2.5570   20.7400    0.0820 C.3   451  LEU451      0.0001
    150  CD2       -1.1490   18.7150   -0.2610 C.3   451  LEU451      0.0001
@<TRIPOS>BOND
     1   129   128    2
     2   128   127    1
     3   130   131    1
     4   130   127    1
     5   126   127    1
     6   108   107    2
     7   107   106    1
     8   110   109    1
     9   109   106    1
    10   109   111    1
    11   106   105    1
    12    93    92    2
    13    90    91    1
    14   105   100   am
    15    91    92    1
    16    91    94    1
    17   112   113    1
    18   118   116    1
    19    88    87    2
    20    92    98   am
    21   101   100    2
    22   100    99    1
    23    87    86    1
    24   115   114    2
    25   116   113    1
    26   116   117    1
    27    94    95    1
    28    98    99    1
    29   113   114    1
    30    99   102    1
    31    95    96    1
    32    89    86    1
    33    86    85    1
    34   150   148    1
    35   149   148    1
    36    82    81    2
    37    96    97    1
    38   148   147    1
    39    85    81   am
    40    81    80    1
    41   102   103    1
    42   102   104    1
    43    74    73    2
    44    79    80    1
    45    73    72    1
    46    80    83    1
    47   119   120    1
    48     9     7   ar
    49     9    11   ar
    50     7     6   ar
    51   125   123    1
    52   145   144    1
    53   145   146    2
    54   147   144    1
    55   144   143    1
    56   123   120    1
    57   123   124    1
    58   122   121    2
    59    11    10   ar
    60    75    72    1
    61    75    76    1
    62    72    71    1
    63   120   121    1
    64     1     2    1
    65   135   134    2
    66    83    84    1
    67     2     5    1
    68     2     3    1
    69     6     5    1
    70     6     8   ar
    71    69    68    2
    72    71    68   am
    73   143   134   am
    74    68    67    1
    75    66    67    1
    76   134   133    1
    77     4     3    2
    78    10     8   ar
    79    76    77   ar
    80    76    78   ar
    81     3    12   am
    82    67    70    1
    83   141   142   ar
    84   141   139   ar
    85   142   140   ar
    86    35    34    1
    87   139   137   ar
    88   140   138   ar
    89    24    21    1
    90    65    63   ar
    91    65    64   ar
    92   133   132    1
    93   133   136    1
    94    12    13    1
    95   137   138   ar
    96   137   136    1
    97    63    61   ar
    98    34    36    1
    99    34    33    1
   100    64    62   ar
   101    13    14    1
   102    13    16    1
   103    21    22    1
   104    21    20    1
   105    22    23    2
   106    33    30    1
   107    14    15    2
   108    61    60   ar
   109    62    60   ar
   110    19    17    1
   111    16    17    1
   112    44    43   ar
   113    17    18    1
   114    60    59    1
   115    30    29    1
   116    30    31    1
   117    45    43   ar
   118    58    57    2
   119    43    42    1
   120    29    27   am
   121    31    32    2
   122    59    56    1
   123    57    56    1
   124    56    55    1
   125    27    26    1
   126    27    28    2
   127    42    41    1
   128    41    38    1
   129    25    26    1
   130    53    52    2
   131    54    52   am
   132    52    51    1
   133    38    37    1
   134    38    39    1
   135    49    48    2
   136    39    40    2
   137    47    48    1
   138    47    50    1
   139    47    46    1
   140    51    50    1
