@<TRIPOS>MOLECULE
tmp/4xs3B00.pdb
 92 89 0 0 0
SMALL
GASTEIGER

@<TRIPOS>ATOM
      1  N         13.2890  -43.8870   24.2330 N.3    72  THR72      -0.1218
      2  CA        12.6890  -45.0860   24.8080 C.3    72  THR72       0.1862
      3  C         12.2050  -46.0180   23.7020 C.2    72  THR72       0.2287
      4  O         11.6660  -45.5600   22.6940 O.2    72  THR72      -0.2866
      5  CB        11.5070  -44.7210   25.7190 C.3    72  THR72       0.1770
      6  OG1       10.6200  -43.8600   24.9990 O.3    72  THR72      -0.2211
      7  CG2       11.9680  -44.0170   26.9890 C.3    72  THR72       0.0375
      8  N         10.0390  -48.1070   21.3830 N.3    74  THR74      -0.1204
      9  CA         8.6430  -48.2200   20.9840 C.3    74  THR74       0.1979
     10  C          8.3580  -49.6480   20.5540 C.2    74  THR74       0.2459
     11  O          8.9900  -50.1370   19.6030 O.2    74  THR74      -0.2732
     12  CB         8.3190  -47.2540   19.8560 C.3    74  THR74       0.1783
     13  OG1        8.4360  -45.9100   20.3380 O.3    74  THR74      -0.2211
     14  CG2        6.9070  -47.4840   19.3570 C.3    74  THR74       0.0376
     15  N          7.4430  -50.3540   21.2170 N.am   75  PRO75      -0.2728
     16  CA         7.3430  -51.8070   21.0280 C.3    75  PRO75       0.1401
     17  C          6.6310  -52.1740   19.7320 C.2    75  PRO75       0.2269
     18  O          5.5930  -51.6020   19.3900 O.2    75  PRO75      -0.2865
     19  CB         6.5320  -52.2690   22.2470 C.3    75  PRO75       0.0296
     20  CG         6.4670  -51.0760   23.1720 C.3    75  PRO75       0.0237
     21  CD         6.5490  -49.8820   22.2830 C.3    75  PRO75       0.0939
     22  N          1.4870  -54.6110   23.5790 N.3    88  MET88      -0.1230
     23  CA         2.2510  -53.7650   22.6620 C.3    88  MET88       0.1702
     24  C          1.8870  -52.3150   22.9630 C.2    88  MET88       0.2592
     25  O          0.9810  -51.7390   22.3570 O.2    88  MET88      -0.2718
     26  CB         1.9630  -54.1490   21.2160 C.3    88  MET88       0.0401
     27  CG         3.0800  -53.8100   20.2420 C.3    88  MET88       0.0596
     28  SD         2.7350  -54.4050   18.5730 S.3    88  MET88      -0.1393
     29  CE         1.2180  -53.5230   18.2040 C.3    88  MET88       0.0692
     30  N          2.6110  -51.7190   23.9110 N.am   89  TRP89      -0.1962
     31  CA         2.2570  -50.4030   24.4280 C.3    89  TRP89       0.1771
     32  C          2.4290  -49.3270   23.3610 C.2    89  TRP89       0.2619
     33  O          3.3100  -49.4050   22.5000 O.2    89  TRP89      -0.2715
     34  CB         3.1230  -50.0450   25.6410 C.3    89  TRP89       0.0590
     35  CG         3.2780  -51.1360   26.6670 C.ar   89  TRP89       0.0006
     36  CD1        4.4090  -51.8530   26.9300 C.ar   89  TRP89       0.0946
     37  CD2        2.2770  -51.6200   27.5750 C.ar   89  TRP89       0.0152
     38  NE1        4.1750  -52.7570   27.9370 N.ar   89  TRP89      -0.2442
     39  CE2        2.8740  -52.6350   28.3510 C.ar   89  TRP89       0.0810
     40  CE3        0.9340  -51.2990   27.8030 C.ar   89  TRP89       0.0012
     41  CZ2        2.1750  -53.3310   29.3370 C.ar   89  TRP89       0.0191
     42  CZ3        0.2420  -51.9910   28.7850 C.ar   89  TRP89       0.0001
     43  CH2        0.8640  -52.9950   29.5380 C.ar   89  TRP89       0.0015
     44  N          1.5810  -48.3040   23.4360 N.am   90  LYS90      -0.1963
     45  CA         1.7310  -47.1680   22.5440 C.3    90  LYS90       0.1728
     46  C          3.0060  -46.4010   22.8690 C.2    90  LYS90       0.2616
     47  O          3.6220  -46.5740   23.9240 O.2    90  LYS90      -0.2715
     48  CB         0.5150  -46.2400   22.6040 C.3    90  LYS90       0.0311
     49  CG        -0.6970  -46.7740   21.8510 C.3    90  LYS90       0.0038
     50  CD        -1.7930  -45.7240   21.7190 C.3    90  LYS90       0.0206
     51  CE        -2.9060  -46.2000   20.7880 C.3    90  LYS90       0.1093
     52  NZ        -4.0050  -45.2020   20.6450 N.3    90  LYS90      -0.1314
     53  N          3.4050  -45.5540   21.9350 N.am   91  SER91      -0.1950
     54  CA         4.6360  -44.8070   22.1000 C.3    91  SER91       0.1924
     55  C          4.5190  -43.8520   23.2810 C.2    91  SER91       0.2314
     56  O          3.5120  -43.1350   23.4010 O.2    91  SER91      -0.2863
     57  CB         4.9660  -44.0240   20.8330 C.3    91  SER91       0.2116
     58  OG         6.0610  -43.1540   21.0580 O.3    91  SER91      -0.2180
     59  N          6.1470  -41.1330   23.6320 N.3    93  ASN93      -0.1225
     60  CA         6.0440  -39.8090   23.0280 C.3    93  ASN93       0.1785
     61  C          4.6070  -39.5200   22.6290 C.2    93  ASN93       0.2597
     62  O          4.1130  -38.4040   22.8180 O.2    93  ASN93      -0.2718
     63  CB         6.9530  -39.7160   21.8060 C.3    93  ASN93       0.1169
     64  CG         8.3550  -40.1780   22.0930 C.2    93  ASN93       0.2627
     65  OD1        9.1590  -39.4550   22.6820 O.2    93  ASN93      -0.2716
     66  ND2        8.6570  -41.4040   21.6880 N.am   93  ASN93      -0.0877
     67  N          3.9120  -40.5290   22.1010 N.am   94  GLY94      -0.1957
     68  CA         2.5160  -40.3490   21.7520 C.3    94  GLY94       0.1869
     69  C          1.6510  -40.0550   22.9610 C.2    94  GLY94       0.2309
     70  O          0.7900  -39.1730   22.9190 O.2    94  GLY94      -0.2863
     71  N          2.5170  -36.5220   24.3310 N.3    97  ARG97      -0.1245
     72  CA         1.9890  -35.4960   23.4390 C.3    97  ARG97       0.1563
     73  C          0.4720  -35.4210   23.5190 C.2    97  ARG97       0.2260
     74  O         -0.1050  -34.3300   23.4440 O.2    97  ARG97      -0.2867
     75  CB         2.4400  -35.7570   22.0040 C.3    97  ARG97       0.0307
     76  CG         3.9270  -35.5680   21.7770 C.3    97  ARG97       0.0489
     77  CD         4.2450  -35.5980   20.2990 C.3    97  ARG97       0.2205
     78  NE         5.6750  -35.7530   20.0620 N.pl3  97  ARG97      -0.0865
     79  CZ         6.1840  -36.2920   18.9610 C.cat  97  ARG97       0.5346
     80  NH1        5.3730  -36.7280   18.0060 N.pl3  97  ARG97       0.1354
     81  NH2        7.4990  -36.4000   18.8170 N.pl3  97  ARG97       0.1354
     82  N         11.8170  -29.0100   15.3970 N.3   106  ARG106     -0.1245
     83  CA        13.0760  -29.7160   15.2050 C.3   106  ARG106      0.1563
     84  C         14.1200  -28.7460   14.6740 C.2   106  ARG106      0.2260
     85  O         13.8790  -28.0420   13.6860 O.2   106  ARG106     -0.2867
     86  CB        12.9140  -30.9040   14.2500 C.3   106  ARG106      0.0307
     87  CG        12.3420  -32.1530   14.9090 C.3   106  ARG106      0.0489
     88  CD        11.9410  -33.2140   13.8940 C.3   106  ARG106      0.2205
     89  NE        10.9500  -34.1400   14.4400 N.pl3 106  ARG106     -0.0865
     90  CZ         9.6350  -33.9470   14.3970 C.cat 106  ARG106      0.5346
     91  NH1        9.1390  -32.8570   13.8270 N.pl3 106  ARG106      0.1354
     92  NH2        8.8120  -34.8470   14.9250 N.pl3 106  ARG106      0.1354
@<TRIPOS>BOND
     1    85    84    2
     2    91    90    1
     3    88    89    1
     4    88    87    1
     5    86    87    1
     6    86    83    1
     7    90    89    2
     8    90    92    1
     9    84    83    1
    10    83    82    1
    11    80    79    1
    12    29    28    1
    13    28    27    1
    14    81    79    1
    15    79    78    2
    16    14    12    1
    17    18    17    2
    18    11    10    2
    19    17    16    1
    20    12    13    1
    21    12     9    1
    22    78    77    1
    23    27    26    1
    24    77    76    1
    25    10     9    1
    26    10    15   am
    27    52    51    1
    28    51    50    1
    29    57    58    1
    30    57    54    1
    31     9     8    1
    32    16    15    1
    33    16    19    1
    34    26    23    1
    35    15    21    1
    36    66    64   am
    37    50    49    1
    38    68    67    1
    39    68    69    1
    40    76    75    1
    41    63    64    1
    42    63    60    1
    43    49    48    1
    44    53    54    1
    45    53    46   am
    46    75    72    1
    47    64    65    2
    48    54    55    1
    49    67    61   am
    50    19    20    1
    51    21    20    1
    52    25    24    2
    53    33    32    2
    54    45    48    1
    55    45    46    1
    56    45    44    1
    57    61    62    2
    58    61    60    1
    59    23    24    1
    60    23    22    1
    61     4     3    2
    62    46    47    2
    63    70    69    2
    64    24    30   am
    65    60    59    1
    66    55    56    2
    67    32    44   am
    68    32    31    1
    69    72    73    1
    70    72    71    1
    71    74    73    2
    72     3     2    1
    73    30    31    1
    74     1     2    1
    75    31    34    1
    76     2     5    1
    77     6     5    1
    78    34    35    1
    79     5     7    1
    80    35    36   ar
    81    35    37   ar
    82    36    38   ar
    83    37    40   ar
    84    37    39   ar
    85    40    42   ar
    86    38    39   ar
    87    39    41   ar
    88    42    43   ar
    89    41    43   ar
