@<TRIPOS>MOLECULE
tmp/4xs9B00.pdb
 171 158 0 0 0
SMALL
GASTEIGER

@<TRIPOS>ATOM
      1  N         33.5740  128.8190  311.8800 N.3    77  LEU77      -0.1245
      2  CA        34.8160  128.6580  312.6370 C.3    77  LEU77       0.1561
      3  C         34.6510  128.8150  314.1500 C.2    77  LEU77       0.2260
      4  O         35.6030  128.6160  314.9110 O.2    77  LEU77      -0.2867
      5  CB        35.9120  129.5910  312.1020 C.3    77  LEU77       0.0270
      6  CG        35.5430  131.0310  311.7470 C.3    77  LEU77       0.0019
      7  CD1       35.1750  131.8060  312.9880 C.3    77  LEU77       0.0001
      8  CD2       36.6990  131.7170  311.0230 C.3    77  LEU77       0.0001
      9  N         38.5790  126.3370  309.5070 N.3   108  VAL108     -0.1231
     10  CA        38.7200  127.7010  310.0140 C.3   108  VAL108      0.1692
     11  C         38.2880  128.7080  308.9330 C.2   108  VAL108      0.2592
     12  O         37.2330  128.5220  308.3120 O.2   108  VAL108     -0.2718
     13  CB        40.1350  127.9750  310.6120 C.3   108  VAL108      0.0266
     14  CG1       40.0230  128.9430  311.7750 C.3   108  VAL108      0.0020
     15  CG2       40.7670  126.6700  311.1200 C.3   108  VAL108      0.0020
     16  N         39.0740  129.7590  308.7010 N.am  109  SER109     -0.1952
     17  CA        38.6810  130.7840  307.7260 C.3   109  SER109      0.1924
     18  C         38.6650  130.3150  306.2750 C.2   109  SER109      0.2314
     19  O         38.2300  131.0590  305.3930 O.2   109  SER109     -0.2863
     20  CB        39.5390  132.0420  307.8670 C.3   109  SER109      0.2116
     21  OG        39.2110  132.7170  309.0720 O.3   109  SER109     -0.2180
     22  N         42.2510  138.2230  317.4900 N.3   151  ASP151     -0.1239
     23  CA        43.1860  137.9420  316.3940 C.3   151  ASP151      0.1674
     24  C         43.5430  139.2820  315.7610 C.2   151  ASP151      0.2266
     25  O         43.0220  139.6280  314.6990 O.2   151  ASP151     -0.2867
     26  CB        42.5150  137.0290  315.3610 C.3   151  ASP151      0.1410
     27  CG        43.4040  136.7340  314.1540 C.2   151  ASP151      0.3668
     28  OD1       44.6370  136.9360  314.2390 O.co2 151  ASP151     -0.2456
     29  OD2       42.8600  136.2800  313.1140 O.co2 151  ASP151     -0.2456
     30  N         42.8950  141.5410  312.1820 N.3   154  THR154     -0.1218
     31  CA        41.6720  141.1430  311.4890 C.3   154  THR154      0.1862
     32  C         40.4960  141.4300  312.4180 C.2   154  THR154      0.2287
     33  O         40.5450  141.1090  313.6160 O.2   154  THR154     -0.2866
     34  CB        41.7070  139.6470  311.1080 C.3   154  THR154      0.1770
     35  OG1       42.7470  139.4230  310.1430 O.3   154  THR154     -0.2211
     36  CG2       40.3650  139.1870  310.5190 C.3   154  THR154      0.0375
     37  N         36.5520  140.7510  313.1970 N.3   156  TYR156     -0.1241
     38  CA        35.5840  139.6960  312.8670 C.3   156  TYR156      0.1605
     39  C         34.1360  140.1950  312.8010 C.2   156  TYR156      0.2264
     40  O         33.6820  140.9460  313.6720 O.2   156  TYR156     -0.2867
     41  CB        35.7240  138.5060  313.8330 C.3   156  TYR156      0.0534
     42  CG        36.9630  137.6550  313.5730 C.ar  156  TYR156     -0.0201
     43  CD1       36.8550  136.3400  313.1250 C.ar  156  TYR156     -0.0009
     44  CD2       38.2410  138.1790  313.7680 C.ar  156  TYR156     -0.0009
     45  CE1       37.9890  135.5680  312.8940 C.ar  156  TYR156      0.0417
     46  CE2       39.3680  137.4310  313.5260 C.ar  156  TYR156      0.0417
     47  CZ        39.2390  136.1290  313.0950 C.ar  156  TYR156      0.1957
     48  OH        40.3820  135.4110  312.8600 O.3   156  TYR156     -0.2866
     49  N         50.4750  126.9570  315.3190 N.3   188  MET188     -0.1230
     50  CA        50.4980  128.4170  315.4240 C.3   188  MET188      0.1702
     51  C         49.2310  128.9700  316.0790 C.2   188  MET188      0.2592
     52  O         49.2340  130.0880  316.6130 O.2   188  MET188     -0.2718
     53  CB        50.6900  129.0660  314.0350 C.3   188  MET188      0.0401
     54  CG        50.9160  130.5890  314.0860 C.3   188  MET188      0.0596
     55  SD        50.9240  131.3920  312.4610 S.3   188  MET188     -0.1393
     56  CE        52.4380  130.7170  311.7710 C.3   188  MET188      0.0692
     57  N         48.1500  128.1970  316.0460 N.am  189  HIS189     -0.1976
     58  CA        46.8680  128.7020  316.5500 C.3   189  HIS189      0.1656
     59  C         46.3350  127.9960  317.7930 C.2   189  HIS189      0.2291
     60  O         45.1380  128.0910  318.0940 O.2   189  HIS189     -0.2864
     61  CB        45.8070  128.6500  315.4470 C.3   189  HIS189      0.0771
     62  CG        45.9410  129.7520  314.4410 C.ar  189  HIS189      0.0820
     63  ND1       46.9830  129.8110  313.5380 N.ar  189  HIS189     -0.2267
     64  CD2       45.1650  130.8360  314.1970 C.ar  189  HIS189      0.1154
     65  CE1       46.8450  130.8870  312.7820 C.ar  189  HIS189      0.1986
     66  NE2       45.7470  131.5240  313.1570 N.ar  189  HIS189     -0.2212
     67  N         44.6610  134.5540  319.8600 N.3   208  LEU208     -0.1245
     68  CA        45.5130  133.9520  318.8380 C.3   208  LEU208      0.1561
     69  C         46.9410  134.4930  318.8440 C.2   208  LEU208      0.2260
     70  O         47.8740  133.7910  318.4510 O.2   208  LEU208     -0.2867
     71  CB        44.8900  134.1220  317.4530 C.3   208  LEU208      0.0270
     72  CG        43.5790  133.3630  317.2640 C.3   208  LEU208      0.0019
     73  CD1       43.1530  133.3970  315.7980 C.3   208  LEU208      0.0001
     74  CD2       43.7680  131.9360  317.7310 C.3   208  LEU208      0.0001
     75  N         50.6630  132.4760  318.4400 N.3   212  LYS212     -0.1245
     76  CA        51.4840  132.7510  317.2650 C.3   212  LYS212      0.1561
     77  C         52.9060  133.0890  317.6960 C.2   212  LYS212      0.2260
     78  O         53.8820  132.5510  317.1450 O.2   212  LYS212     -0.2867
     79  CB        50.8840  133.8890  316.4370 C.3   212  LYS212      0.0271
     80  CG        51.7650  134.3300  315.2750 C.3   212  LYS212      0.0035
     81  CD        51.1510  135.5220  314.5460 C.3   212  LYS212      0.0206
     82  CE        50.8560  136.6870  315.5030 C.3   212  LYS212      0.1093
     83  NZ        52.0900  137.3200  316.0630 N.3   212  LYS212     -0.1314
     84  N         56.2950  131.0720  316.6080 N.3   216  VAL216     -0.1245
     85  CA        57.4150  131.7270  315.9360 C.3   216  VAL216      0.1561
     86  C         58.7360  131.5550  316.6940 C.2   216  VAL216      0.2260
     87  O         59.7570  131.2300  316.0890 O.2   216  VAL216     -0.2867
     88  CB        57.1130  133.2130  315.6490 C.3   216  VAL216      0.0252
     89  CG1       58.3950  133.9890  315.3750 C.3   216  VAL216      0.0019
     90  CG2       56.1410  133.3350  314.4750 C.3   216  VAL216      0.0019
     91  N         58.5200  130.1800  309.5630 N.3   224  SER224     -0.1202
     92  CA        57.0830  130.4450  309.5800 C.3   224  SER224      0.2020
     93  C         56.6350  131.3100  308.3980 C.2   224  SER224      0.2618
     94  O         55.7410  130.9210  307.6460 O.2   224  SER224     -0.2717
     95  CB        56.6750  131.1080  310.8990 C.3   224  SER224      0.2103
     96  OG        57.2140  130.4030  312.0130 O.3   224  SER224     -0.2182
     97  N         57.2510  132.4800  308.2360 N.am  225  VAL225     -0.1979
     98  CA        56.9360  133.3650  307.1130 C.3   225  VAL225      0.1595
     99  C         57.1070  132.6740  305.7560 C.2   225  VAL225      0.2287
    100  O         56.2610  132.8100  304.8720 O.2   225  VAL225     -0.2864
    101  CB        57.7970  134.6440  307.1500 C.3   225  VAL225      0.0276
    102  CG1       57.4620  135.5410  305.9810 C.3   225  VAL225      0.0022
    103  CG2       57.5730  135.3880  308.4610 C.3   225  VAL225      0.0022
    104  N         54.3490  130.0170  305.0880 N.3   228  VAL228     -0.1245
    105  CA        53.0760  130.6830  304.8230 C.3   228  VAL228      0.1561
    106  C         53.0810  131.3040  303.4250 C.2   228  VAL228      0.2260
    107  O         52.1290  131.1260  302.6650 O.2   228  VAL228     -0.2867
    108  CB        52.7540  131.7500  305.8920 C.3   228  VAL228      0.0252
    109  CG1       51.5760  132.6210  305.4520 C.3   228  VAL228      0.0019
    110  CG2       52.4450  131.0820  307.2220 C.3   228  VAL228      0.0019
    111  N         40.7060  140.9620  305.7170 N.3   258  MET258     -0.1245
    112  CA        41.6630  141.2390  306.7830 C.3   258  MET258      0.1570
    113  C         41.9580  142.7280  306.7890 C.2   258  MET258      0.2261
    114  O         41.5690  143.4450  305.8570 O.2   258  MET258     -0.2867
    115  CB        42.9540  140.4430  306.5710 C.3   258  MET258      0.0387
    116  CG        42.7250  138.9320  306.4770 C.3   258  MET258      0.0595
    117  SD        44.2410  137.9510  306.4810 S.3   258  MET258     -0.1393
    118  CE        44.7520  138.0510  304.7690 C.3   258  MET258      0.0692
    119  N         47.8100  143.3270  307.1530 N.3   262  ARG262     -0.1245
    120  CA        47.8810  141.9400  306.6910 C.3   262  ARG262      0.1563
    121  C         47.6820  141.8210  305.1770 C.2   262  ARG262      0.2260
    122  O         48.3960  141.0670  304.5070 O.2   262  ARG262     -0.2867
    123  CB        46.8930  141.0560  307.4550 C.3   262  ARG262      0.0307
    124  CG        47.3510  140.7680  308.8820 C.3   262  ARG262      0.0489
    125  CD        46.3690  139.8800  309.6290 C.3   262  ARG262      0.2205
    126  NE        46.9920  139.2970  310.8170 N.pl3 262  ARG262     -0.0865
    127  CZ        46.3240  138.7900  311.8500 C.cat 262  ARG262      0.5346
    128  NH1       44.9920  138.7990  311.8640 N.pl3 262  ARG262      0.1354
    129  NH2       46.9910  138.2860  312.8800 N.pl3 262  ARG262      0.1354
    130  N         50.5500  140.3310  302.6240 N.3   266  ALA266     -0.1245
    131  CA        50.2310  139.0840  301.9210 C.3   266  ALA266      0.1562
    132  C         50.0090  139.2400  300.4140 C.2   266  ALA266      0.2260
    133  O         50.3550  138.3430  299.6380 O.2   266  ALA266     -0.2867
    134  CB        49.0080  138.4170  302.5570 C.3   266  ALA266      0.0290
    135  N         35.5070  140.3240  308.7140 N.3   288  HIS288     -0.1241
    136  CA        35.8460  138.9630  308.3300 C.3   288  HIS288      0.1621
    137  C         34.7240  137.9900  308.7170 C.2   288  HIS288      0.2264
    138  O         34.3770  137.8440  309.9030 O.2   288  HIS288     -0.2867
    139  CB        37.1770  138.5730  308.9940 C.3   288  HIS288      0.0745
    140  CG        37.6810  137.2120  308.6230 C.ar  288  HIS288      0.0817
    141  ND1       37.7970  136.7860  307.3160 N.ar  288  HIS288     -0.2268
    142  CD2       38.1280  136.1890  309.3920 C.ar  288  HIS288      0.1154
    143  CE1       38.2820  135.5540  307.2950 C.ar  288  HIS288      0.1986
    144  NE2       38.4940  135.1700  308.5440 N.ar  288  HIS288     -0.2212
    145  N         42.1670  131.9090  302.9490 N.3   318  VAL318     -0.1231
    146  CA        43.2200  131.2760  303.7280 C.3   318  VAL318      0.1692
    147  C         42.6390  130.9310  305.0840 C.2   318  VAL318      0.2593
    148  O         41.7630  131.6460  305.5880 O.2   318  VAL318     -0.2718
    149  CB        44.4420  132.2210  303.8830 C.3   318  VAL318      0.0266
    150  CG1       44.0030  133.5870  304.4110 C.3   318  VAL318      0.0020
    151  CG2       45.5070  131.6040  304.7920 C.3   318  VAL318      0.0020
    152  N         43.0990  129.8300  305.6700 N.am  319  GLY319     -0.1942
    153  CA        42.6390  129.4620  306.9930 C.3   319  GLY319      0.2014
    154  C         43.7990  128.9420  307.8080 C.2   319  GLY319      0.2638
    155  O         44.7630  128.4010  307.2470 O.2   319  GLY319     -0.2714
    156  N         43.7120  129.1230  309.1230 N.am  320  ALA320     -0.1977
    157  CA        44.6710  128.5470  310.0520 C.3   320  ALA320      0.1597
    158  C         44.7800  127.0520  309.7920 C.2   320  ALA320      0.2287
    159  O         43.8240  126.4130  309.3200 O.2   320  ALA320     -0.2864
    160  CB        44.2270  128.8200  311.4940 C.3   320  ALA320      0.0319
    161  N         47.9870  125.3650  308.0980 N.3   322  PHE322     -0.1241
    162  CA        47.2140  126.3140  307.3000 C.3   322  PHE322      0.1605
    163  C         46.5810  125.5990  306.1120 C.2   322  PHE322      0.2264
    164  O         47.0070  124.5010  305.7080 O.2   322  PHE322     -0.2867
    165  CB        48.1370  127.4000  306.7280 C.3   322  PHE322      0.0534
    166  CG        48.3240  128.6220  307.6170 C.ar  322  PHE322     -0.0203
    167  CD1       48.6110  128.5020  308.9710 C.ar  322  PHE322     -0.0042
    168  CD2       48.2710  129.8950  307.0620 C.ar  322  PHE322     -0.0042
    169  CE1       48.8090  129.6330  309.7660 C.ar  322  PHE322     -0.0003
    170  CE2       48.4770  131.0320  307.8490 C.ar  322  PHE322     -0.0003
    171  CZ        48.7480  130.8970  309.2000 C.ar  322  PHE322     -0.0000
@<TRIPOS>BOND
     1   133   132    2
     2   132   131    1
     3   131   134    1
     4   131   130    1
     5   107   106    2
     6   145   146    1
     7   106   105    1
     8   146   149    1
     9   146   147    1
    10   149   150    1
    11   149   151    1
    12   122   121    2
    13   118   117    1
    14   105   104    1
    15   105   108    1
    16   100    99    2
    17   147   148    2
    18   147   152   am
    19   121   120    1
    20    19    18    2
    21   109   108    1
    22   152   153    1
    23   164   163    2
    24   111   112    1
    25    99    98    1
    26   114   113    2
    27   108   110    1
    28   102   101    1
    29   163   162    1
    30    18    17    1
    31   116   117    1
    32   116   115    1
    33   115   112    1
    34   120   119    1
    35   120   123    1
    36   165   162    1
    37   165   166    1
    38   112   113    1
    39   153   154    1
    40   168   166   ar
    41   168   170   ar
    42    98   101    1
    43    98    97    1
    44   101   103    1
    45   155   154    2
    46   143   141   ar
    47   143   144   ar
    48   162   161    1
    49   141   140   ar
    50   123   124    1
    51   166   167   ar
    52    94    93    2
    53    17    20    1
    54    17    16    1
    55   154   156   am
    56   170   171   ar
    57    20    21    1
    58    97    93   am
    59    12    11    2
    60   136   135    1
    61   136   137    1
    62   136   139    1
    63    93    92    1
    64   144   142   ar
    65   140   139    1
    66   140   142   ar
    67    16    11   am
    68   137   138    2
    69   124   125    1
    70    11    10    1
    71   167   169   ar
    72   156   157    1
    73   171   169   ar
    74   159   158    2
    75     9    10    1
    76    91    92    1
    77    92    95    1
    78   125   126    1
    79   158   157    1
    80    10    13    1
    81   157   160    1
    82    35    34    1
    83    36    34    1
    84    13    15    1
    85    13    14    1
    86   126   127    2
    87    95    96    1
    88     8     6    1
    89    34    31    1
    90    31    30    1
    91    31    32    1
    92     6     5    1
    93     6     7    1
    94    56    55    1
    95   127   128    1
    96   127   129    1
    97     1     2    1
    98     5     2    1
    99    32    33    2
   100    55    54    1
   101     2     3    1
   102    65    66   ar
   103    65    63   ar
   104    39    38    1
   105    39    40    2
   106    48    47    1
   107    38    37    1
   108    38    41    1
   109    45    47   ar
   110    45    43   ar
   111    47    46   ar
   112    29    27   ar
   113    43    42   ar
   114    66    64   ar
   115    46    44   ar
   116    63    62   ar
   117    42    44   ar
   118    42    41    1
   119    53    54    1
   120    53    50    1
   121     3     4    2
   122    27    28   ar
   123    27    26    1
   124    64    62   ar
   125    62    61    1
   126    90    88    1
   127    81    80    1
   128    81    82    1
   129    25    24    2
   130    80    79    1
   131    49    50    1
   132    26    23    1
   133    89    88    1
   134    50    51    1
   135    61    58    1
   136    82    83    1
   137    88    85    1
   138    24    23    1
   139    73    72    1
   140    85    84    1
   141    85    86    1
   142    57    51   am
   143    57    58    1
   144    51    52    2
   145    87    86    2
   146    23    22    1
   147    79    76    1
   148    58    59    1
   149    78    77    2
   150    72    71    1
   151    72    74    1
   152    76    77    1
   153    76    75    1
   154    71    68    1
   155    59    60    2
   156    70    69    2
   157    68    69    1
   158    68    67    1
