@<TRIPOS>MOLECULE
tmp/4xscA01.pdb
 119 115 0 0 0
SMALL
GASTEIGER

@<TRIPOS>ATOM
      1  N        -11.9210    4.7510  -80.7410 N.3    25  ARG25      -0.1231
      2  CA       -13.1540    5.4590  -80.4160 C.3    25  ARG25       0.1694
      3  C        -12.9940    6.3660  -79.1920 C.2    25  ARG25       0.2592
      4  O        -13.7400    7.3310  -79.0270 O.2    25  ARG25      -0.2718
      5  CB       -14.2750    4.4390  -80.1900 C.3    25  ARG25       0.0321
      6  CG       -15.5870    4.9940  -79.6700 C.3    25  ARG25       0.0489
      7  CD       -16.5150    3.8450  -79.3300 C.3    25  ARG25       0.2205
      8  NE       -15.7630    2.7380  -78.7480 N.pl3  25  ARG25      -0.0865
      9  CZ       -15.5380    2.5920  -77.4470 C.cat  25  ARG25       0.5346
     10  NH1      -16.0250    3.4780  -76.5870 N.pl3  25  ARG25       0.1354
     11  NH2      -14.8360    1.5560  -77.0070 N.pl3  25  ARG25       0.1354
     12  N        -12.0140    6.0630  -78.3440 N.am   26  THR26      -0.1953
     13  CA       -11.8150    6.8190  -77.1080 C.3    26  THR26       0.1897
     14  C        -10.8260    7.9790  -77.2690 C.2    26  THR26       0.2313
     15  O        -10.7330    8.8480  -76.4000 O.2    26  THR26      -0.2863
     16  CB       -11.3240    5.9080  -75.9680 C.3    26  THR26       0.1794
     17  OG1      -10.0360    5.3670  -76.2960 O.3    26  THR26      -0.2208
     18  CG2      -12.3070    4.7730  -75.7380 C.3    26  THR26       0.0378
     19  N         -8.5140  -15.1350  -68.1820 N.3    55  PHE55      -0.1241
     20  CA        -9.4890  -15.2890  -67.1020 C.3    55  PHE55       0.1605
     21  C        -10.5130  -16.3890  -67.4200 C.2    55  PHE55       0.2264
     22  O        -11.6060  -16.1110  -67.9120 O.2    55  PHE55      -0.2867
     23  CB       -10.1870  -13.9460  -66.8560 C.3    55  PHE55       0.0534
     24  CG       -10.7180  -13.7710  -65.4630 C.ar   55  PHE55      -0.0203
     25  CD1      -10.0800  -14.3460  -64.3780 C.ar   55  PHE55      -0.0042
     26  CD2      -11.8460  -13.0060  -65.2380 C.ar   55  PHE55      -0.0042
     27  CE1      -10.5730  -14.1740  -63.1050 C.ar   55  PHE55      -0.0003
     28  CE2      -12.3380  -12.8290  -63.9690 C.ar   55  PHE55      -0.0003
     29  CZ       -11.7030  -13.4130  -62.8980 C.ar   55  PHE55      -0.0000
     30  N        -19.6330  -15.9960  -68.1050 N.3    62  GLU62      -0.1245
     31  CA       -20.2610  -15.0280  -69.0000 C.3    62  GLU62       0.1567
     32  C        -21.0750  -15.7600  -70.0520 C.2    62  GLU62       0.2260
     33  O        -22.1640  -15.3230  -70.4240 O.2    62  GLU62      -0.2867
     34  CB       -19.2170  -14.1310  -69.6710 C.3    62  GLU62       0.0388
     35  CG       -19.7970  -13.0250  -70.5430 C.3    62  GLU62       0.1160
     36  CD       -18.7860  -12.4520  -71.5270 C.2    62  GLU62       0.3649
     37  OE1      -18.1600  -13.2410  -72.2680 O.co2  62  GLU62      -0.2457
     38  OE2      -18.6160  -11.2130  -71.5570 O.co2  62  GLU62      -0.2457
     39  N        -16.3140   -7.8800  -65.1410 N.3    83  ILE83      -0.1231
     40  CA       -15.8090   -7.4470  -66.4360 C.3    83  ILE83       0.1692
     41  C        -16.8510   -6.6460  -67.2050 C.2    83  ILE83       0.2592
     42  O        -16.5510   -6.0780  -68.2520 O.2    83  ILE83      -0.2718
     43  CB       -15.3480   -8.6450  -67.2920 C.3    83  ILE83       0.0266
     44  CG1      -16.4820   -9.6590  -67.4660 C.3    83  ILE83       0.0019
     45  CG2      -14.1180   -9.2970  -66.6740 C.3    83  ILE83       0.0020
     46  CD1      -16.1080  -10.8420  -68.3370 C.3    83  ILE83       0.0001
     47  N        -18.0720   -6.5930  -66.6790 N.am   84  TRP84      -0.1976
     48  CA       -19.1470   -5.8320  -67.3100 C.3    84  TRP84       0.1640
     49  C        -19.5410   -4.5970  -66.4990 C.2    84  TRP84       0.2290
     50  O        -20.5650   -3.9680  -66.7710 O.2    84  TRP84      -0.2864
     51  CB       -20.3730   -6.7190  -67.5250 C.3    84  TRP84       0.0576
     52  CG       -20.2830   -7.5920  -68.7380 C.ar   84  TRP84       0.0006
     53  CD1      -19.8440   -8.8830  -68.7910 C.ar   84  TRP84       0.0946
     54  CD2      -20.6420   -7.2350  -70.0760 C.ar   84  TRP84       0.0152
     55  NE1      -19.9120   -9.3530  -70.0800 N.ar   84  TRP84      -0.2442
     56  CE2      -20.3970   -8.3580  -70.8900 C.ar   84  TRP84       0.0810
     57  CE3      -21.1450   -6.0710  -70.6670 C.ar   84  TRP84       0.0012
     58  CZ2      -20.6390   -8.3550  -72.2600 C.ar   84  TRP84       0.0191
     59  CZ3      -21.3860   -6.0690  -72.0280 C.ar   84  TRP84       0.0001
     60  CH2      -21.1340   -7.2040  -72.8100 C.ar   84  TRP84       0.0015
     61  N        -23.0930   -1.1150  -75.0780 N.3   150  LEU150     -0.1245
     62  CA       -22.0190   -1.3630  -76.0270 C.3   150  LEU150      0.1561
     63  C        -22.5220   -2.2280  -77.1760 C.2   150  LEU150      0.2260
     64  O        -23.1210   -3.2770  -76.9460 O.2   150  LEU150     -0.2867
     65  CB       -20.8360   -2.0480  -75.3360 C.3   150  LEU150      0.0270
     66  CG       -20.1010   -1.2990  -74.2210 C.3   150  LEU150      0.0019
     67  CD1      -19.1640   -2.2380  -73.4770 C.3   150  LEU150      0.0001
     68  CD2      -19.3380   -0.1060  -74.7840 C.3   150  LEU150      0.0001
     69  N         -9.6300   -6.1970  -80.0360 N.3   176  ASP176     -0.1239
     70  CA        -8.4790   -5.7750  -79.2530 C.3   176  ASP176      0.1674
     71  C         -7.5900   -6.9810  -78.9760 C.2   176  ASP176      0.2266
     72  O         -7.9180   -7.8190  -78.1380 O.2   176  ASP176     -0.2867
     73  CB        -8.9180   -5.1290  -77.9410 C.3   176  ASP176      0.1410
     74  CG        -7.7690   -4.9370  -76.9790 C.2   176  ASP176      0.3668
     75  OD1       -6.6460   -4.6550  -77.4470 O.co2 176  ASP176     -0.2456
     76  OD2       -7.9850   -5.0650  -75.7560 O.co2 176  ASP176     -0.2456
     77  N         -6.3460   -7.6310  -75.1080 N.3   179  LEU179     -0.1231
     78  CA        -7.1800   -8.1840  -74.0470 C.3   179  LEU179      0.1693
     79  C         -8.3280   -9.0290  -74.5870 C.2   179  LEU179      0.2592
     80  O         -8.4430  -10.2130  -74.2710 O.2   179  LEU179     -0.2718
     81  CB        -7.7400   -7.0580  -73.1750 C.3   179  LEU179      0.0284
     82  CG        -6.7230   -6.2380  -72.3760 C.3   179  LEU179      0.0019
     83  CD1       -7.3900   -5.0540  -71.6810 C.3   179  LEU179      0.0001
     84  CD2       -5.9910   -7.1210  -71.3670 C.3   179  LEU179      0.0001
     85  N         -9.1770   -8.4070  -75.3970 N.am  180  GLY180     -0.1957
     86  CA       -10.4150   -9.0180  -75.8430 C.3   180  GLY180      0.1869
     87  C        -10.2710  -10.3430  -76.5650 C.2   180  GLY180      0.2309
     88  O        -10.7940  -11.3570  -76.1020 O.2   180  GLY180     -0.2863
     89  N         -9.7430  -13.6780  -74.7450 N.3   183  PHE183     -0.1227
     90  CA       -10.9470  -13.9860  -73.9820 C.3   183  PHE183      0.1736
     91  C        -12.0770  -14.4070  -74.9150 C.2   183  PHE183      0.2595
     92  O        -12.9070  -15.2500  -74.5730 O.2   183  PHE183     -0.2718
     93  CB       -11.3710  -12.7790  -73.1480 C.3   183  PHE183      0.0547
     94  CG       -12.4750  -13.0690  -72.1720 C.ar  183  PHE183     -0.0202
     95  CD1      -13.8040  -13.0000  -72.5620 C.ar  183  PHE183     -0.0042
     96  CD2      -12.1830  -13.3990  -70.8540 C.ar  183  PHE183     -0.0042
     97  CE1      -14.8200  -13.2630  -71.6590 C.ar  183  PHE183     -0.0003
     98  CE2      -13.1950  -13.6590  -69.9450 C.ar  183  PHE183     -0.0003
     99  CZ       -14.5130  -13.5930  -70.3490 C.ar  183  PHE183     -0.0000
    100  N        -12.0890  -13.8120  -76.1020 N.am  184  ASN184     -0.1974
    101  CA       -13.1250  -14.0630  -77.0920 C.3   184  ASN184      0.1688
    102  C        -12.9720  -15.4180  -77.7680 C.2   184  ASN184      0.2292
    103  O        -13.9520  -16.1260  -77.9950 O.2   184  ASN184     -0.2864
    104  CB       -13.1060  -12.9580  -78.1430 C.3   184  ASN184      0.1181
    105  CG       -13.3340  -11.5830  -77.5470 C.2   184  ASN184      0.2629
    106  OD1      -12.8040  -10.5870  -78.0350 O.2   184  ASN184     -0.2716
    107  ND2      -14.1290  -11.5230  -76.4880 N.am  184  ASN184     -0.0877
    108  N         -3.8440   -1.4000  -79.3190 N.3   216  TYR216     -0.1241
    109  CA        -3.6790   -0.0830  -78.7070 C.3   216  TYR216      0.1605
    110  C         -2.2030    0.2780  -78.5620 C.2   216  TYR216      0.2264
    111  O         -1.3610   -0.6050  -78.3850 O.2   216  TYR216     -0.2867
    112  CB        -4.3520   -0.0370  -77.3400 C.3   216  TYR216      0.0534
    113  CG        -5.8420   -0.2400  -77.3800 C.ar  216  TYR216     -0.0201
    114  CD1       -6.6840    0.7610  -77.8330 C.ar  216  TYR216     -0.0009
    115  CD2       -6.4090   -1.4310  -76.9520 C.ar  216  TYR216     -0.0009
    116  CE1       -8.0510    0.5810  -77.8660 C.ar  216  TYR216      0.0417
    117  CE2       -7.7790   -1.6220  -76.9820 C.ar  216  TYR216      0.0417
    118  CZ        -8.5950   -0.6140  -77.4400 C.ar  216  TYR216      0.1957
    119  OH        -9.9610   -0.8020  -77.4700 O.3   216  TYR216     -0.2866
@<TRIPOS>BOND
     1     1     2    1
     2     2     5    1
     3     2     3    1
     4     5     6    1
     5    69    70    1
     6     6     7    1
     7     7     8    1
     8   108   109    1
     9    70    71    1
    10    70    73    1
    11     3     4    2
    12     3    12   am
    13    71    72    2
    14     8     9    2
    15   109   110    1
    16   109   112    1
    17   110   111    2
    18    12    13    1
    19   104   105    1
    20   104   101    1
    21   106   105    2
    22   103   102    2
    23    73    74    1
    24   116   114   ar
    25   116   118   ar
    26   114   113   ar
    27   102   101    1
    28   105   107   am
    29   119   118    1
    30     9    11    1
    31     9    10    1
    32    75    74   ar
    33   118   117   ar
    34   113   112    1
    35   113   115   ar
    36    14    13    1
    37    14    15    2
    38    63    64    2
    39    63    62    1
    40    13    16    1
    41   101   100    1
    42   117   115   ar
    43    74    76   ar
    44    87    88    2
    45    87    86    1
    46    17    16    1
    47   100    91   am
    48    62    65    1
    49    62    61    1
    50    16    18    1
    51    86    85    1
    52    85    79   am
    53    65    66    1
    54    77    78    1
    55    91    92    2
    56    91    90    1
    57    68    66    1
    58    89    90    1
    59    79    80    2
    60    79    78    1
    61    66    67    1
    62    78    81    1
    63    90    93    1
    64    81    82    1
    65    93    94    1
    66    60    58   ar
    67    60    59   ar
    68    95    94   ar
    69    95    97   ar
    70    82    83    1
    71    82    84    1
    72    37    36   ar
    73    58    56   ar
    74    94    96   ar
    75    59    57   ar
    76    97    99   ar
    77    38    36   ar
    78    36    35    1
    79    56    55   ar
    80    56    54   ar
    81    96    98   ar
    82    57    54   ar
    83    35    34    1
    84    33    32    2
    85    99    98   ar
    86    55    53   ar
    87    54    52   ar
    88    32    31    1
    89    34    31    1
    90    31    30    1
    91    53    52   ar
    92    52    51    1
    93    46    44    1
    94    42    41    2
    95    19    20    1
    96    22    21    2
    97    51    48    1
    98    44    43    1
    99    21    20    1
   100    48    47    1
   101    48    49    1
   102    43    45    1
   103    43    40    1
   104    41    47   am
   105    41    40    1
   106    20    23    1
   107    23    24    1
   108    50    49    2
   109    40    39    1
   110    24    26   ar
   111    24    25   ar
   112    26    28   ar
   113    25    27   ar
   114    28    29   ar
   115    27    29   ar
