@<TRIPOS>MOLECULE
tmp/4xscB00.pdb
 172 167 0 0 0
SMALL
GASTEIGER

@<TRIPOS>ATOM
      1  N        -27.4390  -32.2020  -99.7870 N.3    26  ASP26      -0.1225
      2  CA       -27.8870  -30.8140  -99.7610 C.3    26  ASP26       0.1805
      3  C        -29.4110  -30.6910  -99.7620 C.2    26  ASP26       0.2598
      4  O        -30.1200  -31.5880 -100.2220 O.2    26  ASP26      -0.2718
      5  CB       -27.2830  -30.0610 -100.9550 C.3    26  ASP26       0.1424
      6  CG       -27.9430  -28.7160 -101.2110 C.2    26  ASP26       0.3668
      7  OD1      -28.2710  -28.0030 -100.2380 O.co2  26  ASP26      -0.2456
      8  OD2      -28.1340  -28.3740 -102.3950 O.co2  26  ASP26      -0.2456
      9  N        -29.8910  -29.5730  -99.2200 N.am   27  ARG27      -0.1966
     10  CA       -31.3020  -29.1940  -99.2280 C.3    27  ARG27       0.1729
     11  C        -31.9840  -29.3940 -100.5850 C.2    27  ARG27       0.2616
     12  O        -33.1250  -29.8530 -100.6530 O.2    27  ARG27      -0.2715
     13  CB       -31.4330  -27.7280  -98.7990 C.3    27  ARG27       0.0348
     14  CG       -32.8530  -27.1890  -98.7850 C.3    27  ARG27       0.0492
     15  CD       -32.8750  -25.7300  -98.3400 C.3    27  ARG27       0.2205
     16  NE       -32.1830  -24.8510  -99.2820 N.pl3  27  ARG27      -0.0865
     17  CZ       -32.7440  -24.3260 -100.3670 C.cat  27  ARG27       0.5346
     18  NH1      -34.0140  -24.5870 -100.6520 N.pl3  27  ARG27       0.1354
     19  NH2      -32.0370  -23.5350 -101.1650 N.pl3  27  ARG27       0.1354
     20  N        -31.2780  -29.0440 -101.6590 N.am   28  THR28      -0.1951
     21  CA       -31.8430  -29.0940 -103.0080 C.3    28  THR28       0.1897
     22  C        -31.9560  -30.5220 -103.5390 C.2    28  THR28       0.2313
     23  O        -32.5740  -30.7600 -104.5780 O.2    28  THR28      -0.2863
     24  CB       -31.0060  -28.2590 -104.0110 C.3    28  THR28       0.1794
     25  OG1      -29.7050  -28.8420 -104.1670 O.3    28  THR28      -0.2208
     26  CG2      -30.8660  -26.8170 -103.5310 C.3    28  THR28       0.0378
     27  N        -29.1070   -5.3340 -109.8900 N.3    64  GLU64      -0.1245
     28  CA       -29.5130   -5.9480 -108.6320 C.3    64  GLU64       0.1567
     29  C        -29.1300   -5.0590 -107.4520 C.2    64  GLU64       0.2260
     30  O        -29.9010   -4.9030 -106.5070 O.2    64  GLU64      -0.2867
     31  CB       -28.8860   -7.3320 -108.4610 C.3    64  GLU64       0.0388
     32  CG       -29.3980   -8.0890 -107.2370 C.3    64  GLU64       0.1160
     33  CD       -28.4240   -9.1430 -106.7470 C.2    64  GLU64       0.3649
     34  OE1      -27.2020   -8.8820 -106.7870 O.co2  64  GLU64      -0.2457
     35  OE2      -28.8800  -10.2280 -106.3240 O.co2  64  GLU64      -0.2457
     36  N        -33.9440  -13.5190 -110.2760 N.3    86  TRP86      -0.1241
     37  CA       -34.8630  -13.6620 -109.1510 C.3    86  TRP86       0.1605
     38  C        -36.2550  -14.0720 -109.5940 C.2    86  TRP86       0.2264
     39  O        -37.1720  -14.1450 -108.7750 O.2    86  TRP86      -0.2867
     40  CB       -34.9550  -12.3520 -108.3730 C.3    86  TRP86       0.0550
     41  CG       -33.8060  -12.1090 -107.4680 C.ar   86  TRP86       0.0003
     42  CD1      -32.7130  -11.3410 -107.7210 C.ar   86  TRP86       0.0946
     43  CD2      -33.6350  -12.6330 -106.1490 C.ar   86  TRP86       0.0152
     44  NE1      -31.8670  -11.3530 -106.6400 N.ar   86  TRP86      -0.2442
     45  CE2      -32.4120  -12.1410 -105.6600 C.ar   86  TRP86       0.0810
     46  CE3      -34.4000  -13.4740 -105.3330 C.ar   86  TRP86       0.0012
     47  CZ2      -31.9300  -12.4620 -104.3880 C.ar   86  TRP86       0.0191
     48  CZ3      -33.9230  -13.7950 -104.0710 C.ar   86  TRP86       0.0001
     49  CH2      -32.6990  -13.2900 -103.6110 C.ar   86  TRP86       0.0015
     50  N        -37.9060  -17.3180 -107.9340 N.3    89  TYR89      -0.1241
     51  CA       -38.4350  -17.1290 -106.5900 C.3    89  TYR89       0.1605
     52  C        -39.6350  -16.1910 -106.5890 C.2    89  TYR89       0.2264
     53  O        -40.4420  -16.2040 -105.6630 O.2    89  TYR89      -0.2867
     54  CB       -37.3450  -16.6000 -105.6590 C.3    89  TYR89       0.0534
     55  CG       -36.2030  -17.5670 -105.4790 C.ar   89  TYR89      -0.0201
     56  CD1      -36.3340  -18.6770 -104.6550 C.ar   89  TYR89      -0.0009
     57  CD2      -34.9970  -17.3770 -106.1370 C.ar   89  TYR89      -0.0009
     58  CE1      -35.2940  -19.5700 -104.4880 C.ar   89  TYR89       0.0417
     59  CE2      -33.9500  -18.2650 -105.9770 C.ar   89  TYR89       0.0417
     60  CZ       -34.1040  -19.3600 -105.1510 C.ar   89  TYR89       0.1957
     61  OH       -33.0640  -20.2470 -104.9870 O.3    89  TYR89      -0.2866
     62  N        -32.9970   -8.7710  -98.8150 N.3   112  TYR112     -0.1241
     63  CA       -31.9060   -7.7900  -98.6750 C.3   112  TYR112      0.1605
     64  C        -32.2970   -6.3110  -98.7050 C.2   112  TYR112      0.2264
     65  O        -32.1290   -5.5970  -97.7170 O.2   112  TYR112     -0.2867
     66  CB       -30.8580   -8.0180  -99.7700 C.3   112  TYR112      0.0534
     67  CG       -30.3240   -9.4260  -99.8520 C.ar  112  TYR112     -0.0201
     68  CD1      -29.3030   -9.8510  -99.0140 C.ar  112  TYR112     -0.0009
     69  CD2      -30.8260  -10.3280 -100.7850 C.ar  112  TYR112     -0.0009
     70  CE1      -28.8050  -11.1420  -99.0910 C.ar  112  TYR112      0.0417
     71  CE2      -30.3340  -11.6230 -100.8720 C.ar  112  TYR112      0.0417
     72  CZ       -29.3210  -12.0220 -100.0230 C.ar  112  TYR112      0.1957
     73  OH       -28.8210  -13.3010 -100.1000 O.3   112  TYR112     -0.2866
     74  N        -35.9430  -16.9200  -99.4730 N.3   169  LEU169     -0.1231
     75  CA       -34.6890  -17.5990  -99.1730 C.3   169  LEU169      0.1678
     76  C        -33.8320  -16.7480  -98.2400 C.2   169  LEU169      0.2434
     77  O        -33.6860  -15.5460  -98.4560 O.2   169  LEU169     -0.2733
     78  CB       -33.9270  -17.9030 -100.4640 C.3   169  LEU169      0.0284
     79  CG       -33.2260  -19.2590 -100.5340 C.3   169  LEU169      0.0019
     80  CD1      -34.2380  -20.3900 -100.3920 C.3   169  LEU169      0.0001
     81  CD2      -32.4550  -19.3940 -101.8370 C.3   169  LEU169      0.0001
     82  N        -33.2710  -17.3670  -97.1890 N.am  170  PRO170     -0.2729
     83  CA       -32.3890  -16.6730  -96.2430 C.3   170  PRO170      0.1401
     84  C        -31.1900  -16.0140  -96.9260 C.2   170  PRO170      0.2269
     85  O        -30.5980  -16.6000  -97.8380 O.2   170  PRO170     -0.2865
     86  CB       -31.9310  -17.7950  -95.3090 C.3   170  PRO170      0.0296
     87  CG       -33.0310  -18.7800  -95.3620 C.3   170  PRO170      0.0237
     88  CD       -33.5280  -18.7560  -96.7770 C.3   170  PRO170      0.0939
     89  N        -27.8770  -15.0650  -98.2380 N.3   172  CYS172     -0.1221
     90  CA       -26.5930  -15.7520  -98.3480 C.3   172  CYS172      0.1808
     91  C        -25.4500  -14.8290  -97.9650 C.2   172  CYS172      0.2601
     92  O        -24.5240  -15.2320  -97.2660 O.2   172  CYS172     -0.2717
     93  CB       -26.3880  -16.2840  -99.7620 C.3   172  CYS172      0.0970
     94  SG       -27.4660  -17.6750 -100.1300 S.3   172  CYS172     -0.0800
     95  N        -25.5050  -13.5890  -98.4310 N.am  173  HIS173     -0.1975
     96  CA       -24.5730  -12.5940  -97.9320 C.3   173  HIS173      0.1656
     97  C        -25.2520  -11.8660  -96.7780 C.2   173  HIS173      0.2291
     98  O        -25.8790  -10.8230  -96.9650 O.2   173  HIS173     -0.2864
     99  CB       -24.1170  -11.6320  -99.0380 C.3   173  HIS173      0.0771
    100  CG       -25.1800  -11.2760 -100.0330 C.ar  173  HIS173      0.0820
    101  ND1      -25.7200  -10.0120 -100.1200 N.ar  173  HIS173     -0.2267
    102  CD2      -25.7720  -12.0060 -101.0090 C.ar  173  HIS173      0.1154
    103  CE1      -26.6110   -9.9810 -101.0970 C.ar  173  HIS173      0.1986
    104  NE2      -26.6660  -11.1800 -101.6480 N.ar  173  HIS173     -0.2212
    105  N        -20.4070  -14.3440  -96.0130 N.3   191  GLN191     -0.1231
    106  CA       -21.3800  -15.1160  -96.7770 C.3   191  GLN191      0.1698
    107  C        -21.6030  -16.4970  -96.1600 C.2   191  GLN191      0.2592
    108  O        -20.7320  -17.3610  -96.2280 O.2   191  GLN191     -0.2718
    109  CB       -20.9270  -15.2460  -98.2330 C.3   191  GLN191      0.0381
    110  CG       -21.9200  -15.9700  -99.1310 C.3   191  GLN191      0.0905
    111  CD       -21.6780  -15.7090 -100.6070 C.2   191  GLN191      0.2608
    112  OE1      -20.8980  -14.8290 -100.9730 O.2   191  GLN191     -0.2717
    113  NE2      -22.3530  -16.4700 -101.4630 N.am  191  GLN191     -0.0878
    114  N        -22.7720  -16.7000  -95.5590 N.am  192  ARG192     -0.1966
    115  CA       -23.0650  -17.9340  -94.8310 C.3   192  ARG192      0.1729
    116  C        -22.9540  -19.1610  -95.7230 C.2   192  ARG192      0.2616
    117  O        -22.4180  -20.1940  -95.3240 O.2   192  ARG192     -0.2715
    118  CB       -24.4640  -17.8680  -94.2120 C.3   192  ARG192      0.0348
    119  CG       -25.5660  -17.5230  -95.2020 C.3   192  ARG192      0.0492
    120  CD       -26.9390  -17.8120  -94.6480 C.3   192  ARG192      0.2205
    121  NE       -27.9540  -17.7550  -95.6930 N.pl3 192  ARG192     -0.0865
    122  CZ       -28.3310  -18.8010  -96.4220 C.cat 192  ARG192      0.5346
    123  NH1      -27.7760  -19.9880  -96.2170 N.pl3 192  ARG192      0.1354
    124  NH2      -29.2650  -18.6590  -97.3560 N.pl3 192  ARG192      0.1354
    125  N        -23.4550  -19.0180  -96.9440 N.am  193  SER193     -0.1950
    126  CA       -23.5010  -20.0960  -97.9110 C.3   193  SER193      0.1924
    127  C        -23.0630  -19.5550  -99.2630 C.2   193  SER193      0.2314
    128  O        -23.6350  -18.5850  -99.7620 O.2   193  SER193     -0.2863
    129  CB       -24.9110  -20.6820  -97.9890 C.3   193  SER193      0.2116
    130  OG       -25.0400  -21.5750  -99.0780 O.3   193  SER193     -0.2180
    131  N        -22.1800  -20.7160 -103.2000 N.3   195  ASP195     -0.1239
    132  CA       -22.0400  -21.6020 -104.3470 C.3   195  ASP195      0.1674
    133  C        -20.9400  -21.0850 -105.2600 C.2   195  ASP195      0.2266
    134  O        -21.1110  -20.0610 -105.9230 O.2   195  ASP195     -0.2867
    135  CB       -23.3650  -21.7130 -105.1070 C.3   195  ASP195      0.1410
    136  CG       -23.2270  -22.4630 -106.4260 C.2   195  ASP195      0.3668
    137  OD1      -22.3740  -23.3740 -106.5250 O.co2 195  ASP195     -0.2456
    138  OD2      -23.9810  -22.1420 -107.3670 O.co2 195  ASP195     -0.2456
    139  N        -23.1680  -18.2240 -107.6110 N.3   199  GLY199     -0.1225
    140  CA       -23.3670  -17.0510 -106.7810 C.3   199  GLY199      0.1811
    141  C        -22.1280  -16.3010 -106.3430 C.2   199  GLY199      0.2280
    142  O        -22.0920  -15.0730 -106.4230 O.2   199  GLY199     -0.2866
    143  N        -21.6090  -12.3950 -106.3000 N.3   203  ASN203     -0.1240
    144  CA       -21.6290  -11.5990 -105.0760 C.3   203  ASN203      0.1653
    145  C        -20.3850  -10.7330 -104.9270 C.2   203  ASN203      0.2266
    146  O        -20.4800   -9.5530 -104.5930 O.2   203  ASN203     -0.2867
    147  CB       -21.7680  -12.5060 -103.8570 C.3   203  ASN203      0.1155
    148  CG       -22.8940  -13.5100 -104.0050 C.2   203  ASN203      0.2627
    149  OD1      -22.7250  -14.6960 -103.7090 O.2   203  ASN203     -0.2716
    150  ND2      -24.0520  -13.0410 -104.4710 N.am  203  ASN203     -0.0877
    151  N        -19.2450  -24.2940 -100.8330 N.3   233  HIS233     -0.1241
    152  CA       -19.5900  -25.5670 -101.4510 C.3   233  HIS233      0.1621
    153  C        -19.5370  -25.5670 -102.9740 C.2   233  HIS233      0.2264
    154  O        -19.6400  -24.5210 -103.6170 O.2   233  HIS233     -0.2867
    155  CB       -20.9810  -26.0030 -100.9940 C.3   233  HIS233      0.0745
    156  CG       -22.0490  -24.9950 -101.2750 C.ar  233  HIS233      0.0817
    157  ND1      -22.3600  -23.9800 -100.3990 N.ar  233  HIS233     -0.2268
    158  CD2      -22.8700  -24.8410 -102.3410 C.ar  233  HIS233      0.1154
    159  CE1      -23.3310  -23.2430 -100.9100 C.ar  233  HIS233      0.1986
    160  NE2      -23.6580  -23.7440 -102.0860 N.ar  233  HIS233     -0.2212
    161  N        -21.4670  -27.7720 -106.0250 N.3   235  TYR235     -0.1241
    162  CA       -22.4640  -28.7610 -106.4210 C.3   235  TYR235      0.1605
    163  C        -21.8430  -29.8500 -107.3010 C.2   235  TYR235      0.2264
    164  O        -21.0700  -29.5560 -108.2140 O.2   235  TYR235     -0.2867
    165  CB       -23.6270  -28.0740 -107.1400 C.3   235  TYR235      0.0534
    166  CG       -24.5360  -27.2990 -106.2080 C.ar  235  TYR235     -0.0201
    167  CD1      -25.6970  -27.8740 -105.7100 C.ar  235  TYR235     -0.0009
    168  CD2      -24.2290  -25.9990 -105.8170 C.ar  235  TYR235     -0.0009
    169  CE1      -26.5290  -27.1790 -104.8540 C.ar  235  TYR235      0.0417
    170  CE2      -25.0600  -25.2930 -104.9590 C.ar  235  TYR235      0.0417
    171  CZ       -26.2090  -25.8920 -104.4820 C.ar  235  TYR235      0.1957
    172  OH       -27.0460  -25.2080 -103.6300 O.3   235  TYR235     -0.2866
@<TRIPOS>BOND
     1    36    37    1
     2    27    28    1
     3    38    37    1
     4    38    39    2
     5    37    40    1
     6    28    31    1
     7    28    29    1
     8    31    32    1
     9    40    41    1
    10   164   163    2
    11    50    51    1
    12    42    41   ar
    13    42    44   ar
    14   139   140    1
    15    41    43   ar
    16    29    30    2
    17   138   136   ar
    18   163   162    1
    19    32    33    1
    20   165   162    1
    21   165   166    1
    22    34    33   ar
    23   140   141    1
    24    33    35   ar
    25    44    45   ar
    26    51    52    1
    27    51    54    1
    28    52    53    2
    29   137   136   ar
    30   136   135    1
    31   142   141    2
    32   162   161    1
    33   143   144    1
    34   166   168   ar
    35   166   167   ar
    36    43    45   ar
    37    43    46   ar
    38    57    59   ar
    39    57    55   ar
    40    59    60   ar
    41   134   133    2
    42   168   170   ar
    43   167   169   ar
    44    45    47   ar
    45    54    55    1
    46    55    56   ar
    47    46    48   ar
    48   133   132    1
    49    60    61    1
    50    60    58   ar
    51   135   132    1
    52   144   145    1
    53   144   147    1
    54   170   171   ar
    55   145   146    2
    56   169   171   ar
    57    56    58   ar
    58    23    22    2
    59   171   172    1
    60   150   148   am
    61    47    49   ar
    62   132   131    1
    63    25    24    1
    64    48    49   ar
    65    24    26    1
    66    24    21    1
    67   148   147    1
    68   148   149    2
    69   154   153    2
    70    22    21    1
    71    21    20    1
    72   153   152    1
    73     8     6   ar
    74   158   160   ar
    75   158   156   ar
    76   160   159   ar
    77    81    79    1
    78    20    11   am
    79   104   103   ar
    80   104   102   ar
    81   113   111   am
    82   152   155    1
    83   152   151    1
    84   156   155    1
    85   156   157   ar
    86     6     5    1
    87     6     7   ar
    88    19    17    1
    89   103   101   ar
    90   102   100   ar
    91   112   111    2
    92     5     2    1
    93   159   157   ar
    94    71    69   ar
    95    71    72   ar
    96    69    67   ar
    97    12    11    2
    98    18    17    1
    99   111   110    1
   100    11    10    1
   101    79    78    1
   102    79    80    1
   103    78    75    1
   104    17    16    2
   105     4     3    2
   106    94    93    1
   107   101   100   ar
   108    73    72    1
   109   100    99    1
   110    72    70   ar
   111    67    66    1
   112    67    68   ar
   113     1     2    1
   114    66    63    1
   115     3     2    1
   116     3     9   am
   117    93    90    1
   118   128   127    2
   119    74    75    1
   120    16    15    1
   121   127   126    1
   122    10     9    1
   123    10    13    1
   124    75    76    1
   125   110   109    1
   126    70    68   ar
   127   130   129    1
   128    99    96    1
   129    62    63    1
   130    13    14    1
   131    14    15    1
   132    64    63    1
   133    64    65    2
   134    77    76    2
   135    95    91   am
   136    95    96    1
   137    90    89    1
   138    90    91    1
   139    76    82   am
   140   109   106    1
   141   129   126    1
   142    91    92    2
   143    96    97    1
   144   126   125    1
   145    85    84    2
   146   124   122    1
   147    82    88    1
   148    82    83    1
   149    98    97    2
   150   125   116   am
   151    84    83    1
   152    88    87    1
   153   106   107    1
   154   106   105    1
   155   122   123    1
   156   122   121    2
   157    83    86    1
   158   108   107    2
   159   107   114   am
   160   116   117    2
   161   116   115    1
   162   121   120    1
   163   114   115    1
   164    87    86    1
   165   119   120    1
   166   119   118    1
   167   115   118    1
