@<TRIPOS>MOLECULE
tmp/4xsgA00.pdb
 159 155 0 0 0
SMALL
GASTEIGER

@<TRIPOS>ATOM
      1  N         -7.2300    0.0210  -24.0010 N.3    11  GLY11      -0.1210
      2  CA        -8.0940   -0.8270  -23.1800 C.3    11  GLY11       0.1956
      3  C         -9.3950   -1.1160  -23.9150 C.2    11  GLY11       0.2612
      4  O         -9.9460   -0.2630  -24.6000 O.2    11  GLY11      -0.2717
      5  N         -9.8310   -2.3560  -23.8090 N.am   12  ALA12      -0.1965
      6  CA       -11.0880   -2.8540  -24.3670 C.3    12  ALA12       0.1728
      7  C        -11.1620   -2.9320  -25.8940 C.2    12  ALA12       0.2616
      8  O        -12.2420   -3.1680  -26.4360 O.2    12  ALA12      -0.2715
      9  CB       -12.2600   -2.0760  -23.7920 C.3    12  ALA12       0.0334
     10  N        -10.0330   -2.7900  -26.5950 N.am   13  CYS13      -0.1954
     11  CA       -10.0550   -2.7970  -28.0590 C.3    13  CYS13       0.1843
     12  C        -10.0720   -4.2290  -28.6400 C.2    13  CYS13       0.2626
     13  O        -10.1260   -4.3820  -29.8490 O.2    13  CYS13      -0.2714
     14  CB        -8.9160   -1.9650  -28.6560 C.3    13  CYS13       0.0997
     15  SG        -7.2920   -2.7580  -28.6440 S.3    13  CYS13      -0.0797
     16  N        -10.0290   -5.2530  -27.7810 N.am   14  GLY14      -0.1940
     17  CA       -10.1750   -6.6540  -28.1980 C.3    14  GLY14       0.2014
     18  C         -8.9190   -7.5060  -28.2360 C.2    14  GLY14       0.2639
     19  O         -8.9210   -8.5930  -28.8280 O.2    14  GLY14      -0.2714
     20  N         -7.8380   -7.0430  -27.6140 N.am   15  LYS15      -0.1963
     21  CA        -6.5670   -7.7870  -27.6380 C.3    15  LYS15       0.1728
     22  C         -6.6820   -9.2150  -27.0960 C.2    15  LYS15       0.2617
     23  O         -6.3450  -10.1870  -27.7740 O.2    15  LYS15      -0.2715
     24  CB        -5.4970   -7.0250  -26.8480 C.3    15  LYS15       0.0311
     25  CG        -5.1690   -5.6550  -27.4080 C.3    15  LYS15       0.0038
     26  CD        -4.0520   -4.9380  -26.6400 C.3    15  LYS15       0.0206
     27  CE        -4.4160   -4.6520  -25.1900 C.3    15  LYS15       0.1093
     28  NZ        -5.5780   -3.7260  -25.0380 N.3    15  LYS15      -0.1314
     29  N         -7.1730   -9.3340  -25.8840 N.am   16  THR16      -0.1937
     30  CA        -7.2600  -10.6410  -25.2100 C.3    16  THR16       0.2028
     31  C         -8.1870  -11.6070  -25.9480 C.2    16  THR16       0.2642
     32  O         -7.8270  -12.7600  -26.1960 O.2    16  THR16      -0.2714
     33  CB        -7.6960  -10.4630  -23.7600 C.3    16  THR16       0.1808
     34  OG1       -6.7300   -9.6500  -23.0930 O.3    16  THR16      -0.2208
     35  CG2       -7.8300  -11.7930  -23.0320 C.3    16  THR16       0.0379
     36  N         -9.3700  -11.1290  -26.3220 N.am   17  CYS17      -0.1967
     37  CA       -10.2860  -11.9500  -27.1140 C.3    17  CYS17       0.1712
     38  C         -9.6650  -12.4220  -28.4330 C.2    17  CYS17       0.2296
     39  O         -9.9060  -13.5570  -28.8590 O.2    17  CYS17      -0.2864
     40  CB       -11.6160  -11.2260  -27.3450 C.3    17  CYS17       0.0983
     41  SG       -12.6330  -11.0830  -25.8650 S.3    17  CYS17      -0.0798
     42  N        -15.0530  -17.7120  -28.5540 N.3    27  PHE27      -0.1228
     43  CA       -15.1070  -16.3250  -28.1270 C.3    27  PHE27       0.1721
     44  C        -15.6550  -16.3020  -26.6880 C.2    27  PHE27       0.2437
     45  O        -16.6940  -16.9110  -26.4190 O.2    27  PHE27      -0.2733
     46  CB       -15.9840  -15.5210  -29.1000 C.3    27  PHE27       0.0547
     47  CG       -16.0950  -14.0630  -28.7660 C.ar   27  PHE27      -0.0202
     48  CD1      -15.0520  -13.1850  -29.0640 C.ar   27  PHE27      -0.0042
     49  CD2      -17.2410  -13.5590  -28.1740 C.ar   27  PHE27      -0.0042
     50  CE1      -15.1490  -11.8360  -28.7510 C.ar   27  PHE27      -0.0003
     51  CE2      -17.3450  -12.2050  -27.8610 C.ar   27  PHE27      -0.0003
     52  CZ       -16.2960  -11.3420  -28.1800 C.ar   27  PHE27      -0.0000
     53  N        -14.9410  -15.6490  -25.7510 N.am   28  PRO28      -0.2729
     54  CA       -15.3870  -15.6440  -24.3600 C.3    28  PRO28       0.1401
     55  C        -16.5550  -14.7020  -24.0960 C.2    28  PRO28       0.2269
     56  O        -16.4790  -13.5170  -24.4370 O.2    28  PRO28      -0.2865
     57  CB       -14.1420  -15.1730  -23.5950 C.3    28  PRO28       0.0296
     58  CG       -13.3890  -14.3430  -24.5780 C.3    28  PRO28       0.0237
     59  CD       -13.6100  -15.0210  -25.9000 C.3    28  PRO28       0.0939
     60  N        -13.9660  -13.4700  -19.0590 N.3    32  VAL32      -0.1231
     61  CA       -13.0130  -12.7700  -19.9280 C.3    32  VAL32       0.1678
     62  C        -11.7570  -12.3960  -19.1340 C.2    32  VAL32       0.2434
     63  O        -11.8070  -11.4820  -18.3280 O.2    32  VAL32      -0.2733
     64  CB       -13.6480  -11.4880  -20.5240 C.3    32  VAL32       0.0265
     65  CG1      -12.7820  -10.9290  -21.6460 C.3    32  VAL32       0.0020
     66  CG2      -15.0780  -11.7740  -21.0060 C.3    32  VAL32       0.0020
     67  N        -10.6320  -13.1120  -19.3390 N.am   33  PRO33      -0.2718
     68  CA        -9.3660  -12.7480  -18.6890 C.3    33  PRO33       0.1535
     69  C         -8.9580  -11.3060  -19.0160 C.2    33  PRO33       0.2599
     70  O         -9.2300  -10.8240  -20.1250 O.2    33  PRO33      -0.2715
     71  CB        -8.3420  -13.6910  -19.3450 C.3    33  PRO33       0.0310
     72  CG        -9.1190  -14.7800  -19.9670 C.3    33  PRO33       0.0237
     73  CD       -10.4660  -14.2300  -20.2900 C.3    33  PRO33       0.0939
     74  N         -8.2970  -10.6380  -18.0770 N.am   34  THR34      -0.1937
     75  CA        -7.7760   -9.3230  -18.3190 C.3    34  THR34       0.2028
     76  C         -6.5440   -9.3820  -19.2450 C.2    34  THR34       0.2642
     77  O         -6.4230   -8.6140  -20.2060 O.2    34  THR34      -0.2714
     78  CB        -7.4820   -8.5700  -17.0090 C.3    34  THR34       0.1808
     79  OG1       -6.5350   -9.3120  -16.2270 O.3    34  THR34      -0.2208
     80  CG2       -8.7710   -8.4120  -16.2080 C.3    34  THR34       0.0379
     81  N         -5.6460  -10.3250  -18.9620 N.am   35  VAL35      -0.1977
     82  CA        -4.4730  -10.5610  -19.7870 C.3    35  VAL35       0.1596
     83  C         -4.3500  -12.0690  -19.9570 C.2    35  VAL35       0.2287
     84  O         -4.4140  -12.7990  -18.9890 O.2    35  VAL35      -0.2864
     85  CB        -3.2070   -9.9920  -19.1360 C.3    35  VAL35       0.0276
     86  CG1       -1.9780  -10.2550  -19.9760 C.3    35  VAL35       0.0022
     87  CG2       -3.3500   -8.4930  -18.9350 C.3    35  VAL35       0.0022
     88  N         -0.8630   -7.5950  -23.3510 N.3    57  THR57      -0.1203
     89  CA        -0.5420   -6.4440  -22.4800 C.3    57  THR57       0.1994
     90  C         -1.8090   -5.7590  -22.0380 C.2    57  THR57       0.2618
     91  O         -2.8280   -5.8640  -22.6930 O.2    57  THR57      -0.2717
     92  CB         0.3630   -5.3860  -23.1870 C.3    57  THR57       0.1784
     93  OG1       -0.3200   -4.7880  -24.2970 O.3    57  THR57      -0.2211
     94  CG2        1.6830   -5.9630  -23.6580 C.3    57  THR57       0.0376
     95  N         -1.7110   -5.0260  -20.9240 N.am   58  ALA58      -0.1965
     96  CA        -2.8320   -4.2170  -20.4320 C.3    58  ALA58       0.1728
     97  C         -2.7530   -2.8570  -21.1500 C.2    58  ALA58       0.2617
     98  O         -1.7680   -2.1590  -21.0460 O.2    58  ALA58      -0.2715
     99  CB        -2.6950   -4.0280  -18.9400 C.3    58  ALA58       0.0334
    100  N         -3.8130   -2.5180  -21.8560 N.am   59  GLY59      -0.1940
    101  CA        -3.8860   -1.3030  -22.6530 C.3    59  GLY59       0.2014
    102  C         -4.1490   -0.0070  -21.9170 C.2    59  GLY59       0.2638
    103  O         -3.8820    1.0530  -22.4580 O.2    59  GLY59      -0.2714
    104  N         -4.6790   -0.0810  -20.6970 N.am   60  GLN60      -0.1977
    105  CA        -5.0320    1.1330  -19.9500 C.3    60  GLN60       0.1601
    106  C         -3.8020    1.9210  -19.5160 C.2    60  GLN60       0.2287
    107  O         -2.7600    1.3530  -19.1800 O.2    60  GLN60      -0.2864
    108  CB        -5.9360    0.7960  -18.7640 C.3    60  GLN60       0.0394
    109  CG        -7.3260    0.3650  -19.2120 C.3    60  GLN60       0.0908
    110  CD        -8.1420   -0.3060  -18.1160 C.2    60  GLN60       0.2608
    111  OE1       -7.6150   -1.0260  -17.2780 O.2    60  GLN60      -0.2717
    112  NE2       -9.4490   -0.1410  -18.1830 N.am   60  GLN60      -0.0878
    113  N         -9.6250   -4.2770  -34.9540 N.3   114  ASN114     -0.1225
    114  CA       -10.4320   -5.3190  -34.3200 C.3   114  ASN114      0.1785
    115  C        -11.9280   -5.0320  -34.4220 C.2   114  ASN114      0.2597
    116  O        -12.3540   -3.9230  -34.7700 O.2   114  ASN114     -0.2718
    117  CB       -10.0810   -5.4980  -32.8380 C.3   114  ASN114      0.1169
    118  CG        -8.7350   -6.1830  -32.6130 C.2   114  ASN114      0.2627
    119  OD1       -8.2700   -6.9410  -33.4540 O.2   114  ASN114     -0.2716
    120  ND2       -8.1190   -5.9260  -31.4570 N.am  114  ASN114     -0.0877
    121  N        -12.7010   -6.0500  -34.0820 N.am  115  LYS115     -0.1980
    122  CA       -14.1650   -5.9810  -33.9790 C.3   115  LYS115      0.1596
    123  C        -14.7730   -5.5520  -35.3200 C.2   115  LYS115      0.2287
    124  O        -15.7500   -4.7790  -35.3610 O.2   115  LYS115     -0.2864
    125  CB       -14.6000   -5.0190  -32.8630 C.3   115  LYS115      0.0298
    126  CG       -13.8120   -5.1340  -31.5600 C.3   115  LYS115      0.0038
    127  CD       -14.5770   -4.5520  -30.3790 C.3   115  LYS115      0.0206
    128  CE       -13.7230   -4.4540  -29.1300 C.3   115  LYS115      0.1093
    129  NZ       -14.4180   -3.7300  -28.0320 N.3   115  LYS115     -0.1314
    130  N        -16.7410   -7.0660  -37.1550 N.3   117  ASP117     -0.1225
    131  CA       -18.1850   -7.3470  -37.1170 C.3   117  ASP117      0.1805
    132  C        -19.0580   -6.1500  -36.7470 C.2   117  ASP117      0.2597
    133  O        -20.2550   -6.1590  -37.0150 O.2   117  ASP117     -0.2718
    134  CB       -18.5240   -8.5080  -36.1790 C.3   117  ASP117      0.1424
    135  CG       -18.0750   -8.2660  -34.7600 C.2   117  ASP117      0.3668
    136  OD1      -16.8430   -8.2700  -34.5320 O.co2 117  ASP117     -0.2456
    137  OD2      -18.9420   -8.1010  -33.8690 O.co2 117  ASP117     -0.2456
    138  N        -18.4800   -5.1470  -36.0950 N.am  118  LEU118     -0.1979
    139  CA       -19.2280   -3.9770  -35.6950 C.3   118  LEU118      0.1596
    140  C        -19.3060   -2.8710  -36.7370 C.2   118  LEU118      0.2287
    141  O        -20.0190   -1.8830  -36.5260 O.2   118  LEU118     -0.2864
    142  CB       -18.6830   -3.4200  -34.3820 C.3   118  LEU118      0.0297
    143  CG       -18.7610   -4.3870  -33.2030 C.3   118  LEU118      0.0022
    144  CD1      -18.1230   -3.7600  -31.9760 C.3   118  LEU118      0.0001
    145  CD2      -20.1730   -4.8430  -32.8850 C.3   118  LEU118      0.0001
    146  N        -12.6690  -11.1670  -33.6860 N.3   158  ALA158     -0.1231
    147  CA       -12.5940  -12.2890  -32.7550 C.3   158  ALA158      0.1694
    148  C        -13.9600  -12.9680  -32.5940 C.2   158  ALA158      0.2591
    149  O        -14.0480  -14.1940  -32.5170 O.2   158  ALA158     -0.2718
    150  CB       -12.0910  -11.8110  -31.4050 C.3   158  ALA158      0.0304
    151  N        -15.0100  -12.1730  -32.5790 N.am  159  LYS159     -0.1980
    152  CA       -16.3610  -12.6960  -32.3810 C.3   159  LYS159      0.1596
    153  C        -16.7770  -13.6870  -33.4850 C.2   159  LYS159      0.2287
    154  O        -17.2970  -14.7570  -33.1790 O.2   159  LYS159     -0.2864
    155  CB       -17.3590  -11.5590  -32.2550 C.3   159  LYS159      0.0298
    156  CG       -18.7850  -12.0270  -31.9950 C.3   159  LYS159      0.0038
    157  CD       -19.6480  -10.8820  -31.5100 C.3   159  LYS159      0.0206
    158  CE       -21.0300  -11.3970  -31.1210 C.3   159  LYS159      0.1093
    159  NZ       -21.7600  -10.3120  -30.3790 N.3   159  LYS159     -0.1314
@<TRIPOS>BOND
     1   130   131    1
     2   131   132    1
     3   131   134    1
     4   133   132    2
     5   132   138   am
     6   140   141    2
     7   140   139    1
     8   134   135    1
     9   138   139    1
    10   139   142    1
    11   124   123    2
    12   123   122    1
    13   113   114    1
    14   116   115    2
    15   135   136   ar
    16   135   137   ar
    17   115   114    1
    18   115   121   am
    19   142   143    1
    20   114   117    1
    21   121   122    1
    22   122   125    1
    23   146   147    1
    24   153   154    2
    25   153   152    1
    26   119   118    2
    27   143   145    1
    28   143   144    1
    29   125   126    1
    30   117   118    1
    31   147   148    1
    32   147   150    1
    33   118   120   am
    34   148   151   am
    35   148   149    2
    36   151   152    1
    37   152   155    1
    38   155   156    1
    39   156   157    1
    40   126   127    1
    41   157   158    1
    42   158   159    1
    43   127   128    1
    44    13    12    2
    45   128   129    1
    46    46    47    1
    47    46    43    1
    48    48    47   ar
    49    48    50   ar
    50    39    38    2
    51    19    18    2
    52    47    49   ar
    53    50    52   ar
    54    14    15    1
    55    14    11    1
    56    12    11    1
    57    12    16   am
    58    42    43    1
    59    38    37    1
    60    18    17    1
    61    18    20   am
    62    17    16    1
    63    52    51   ar
    64    49    51   ar
    65    43    44    1
    66    11    10    1
    67    23    22    2
    68    21    20    1
    69    21    22    1
    70    21    24    1
    71    25    24    1
    72    25    26    1
    73    40    37    1
    74    40    41    1
    75    37    36    1
    76    22    29   am
    77    44    45    2
    78    44    53   am
    79    26    27    1
    80    10     7   am
    81     8     7    2
    82    36    31   am
    83    32    31    2
    84    31    30    1
    85    59    53    1
    86    59    58    1
    87     7     6    1
    88    29    30    1
    89    53    54    1
    90    30    33    1
    91    27    28    1
    92     4     3    2
    93    58    57    1
    94    56    55    2
    95     6     5    1
    96     6     9    1
    97    54    55    1
    98    54    57    1
    99    93    92    1
   100     1     2    1
   101     3     5   am
   102     3     2    1
   103    33    34    1
   104    33    35    1
   105    94    92    1
   106    88    89    1
   107    92    89    1
   108    91    90    2
   109   101   102    1
   110   101   100    1
   111    89    90    1
   112   103   102    2
   113    90    95   am
   114   102   104   am
   115   100    97   am
   116    65    64    1
   117    97    98    2
   118    97    96    1
   119    66    64    1
   120    95    96    1
   121   104   105    1
   122    64    61    1
   123    96    99    1
   124    73    72    1
   125    73    67    1
   126    77    76    2
   127    70    69    2
   128    86    85    1
   129    72    71    1
   130    83    82    1
   131    83    84    2
   132   105   106    1
   133   105   108    1
   134    61    62    1
   135    61    60    1
   136    82    85    1
   137    82    81    1
   138   106   107    2
   139    71    68    1
   140    67    62   am
   141    67    68    1
   142    76    81   am
   143    76    75    1
   144   109   108    1
   145   109   110    1
   146    85    87    1
   147    62    63    2
   148    69    68    1
   149    69    74   am
   150    75    74    1
   151    75    78    1
   152   112   110   am
   153   110   111    2
   154    78    79    1
   155    78    80    1
