@<TRIPOS>MOLECULE
tmp/4xshB00.pdb
 235 227 0 0 0
SMALL
GASTEIGER

@<TRIPOS>ATOM
      1  N        -26.3550   22.0160   20.1940 N.3    33  TYR33      -0.1227
      2  CA       -25.4730   21.2960   19.2980 C.3    33  TYR33       0.1736
      3  C        -24.0190   21.7490   19.4800 C.2    33  TYR33       0.2596
      4  O        -23.0950   20.9290   19.5250 O.2    33  TYR33      -0.2718
      5  CB       -25.9170   21.4890   17.8460 C.3    33  TYR33       0.0548
      6  CG       -24.9100   20.9980   16.8060 C.ar   33  TYR33      -0.0200
      7  CD1      -23.8960   21.8250   16.3510 C.ar   33  TYR33      -0.0009
      8  CD2      -24.9830   19.7130   16.2830 C.ar   33  TYR33      -0.0009
      9  CE1      -22.9800   21.3990   15.4150 C.ar   33  TYR33       0.0417
     10  CE2      -24.0680   19.2710   15.3480 C.ar   33  TYR33       0.0417
     11  CZ       -23.0680   20.1220   14.9170 C.ar   33  TYR33       0.1957
     12  OH       -22.1560   19.6880   13.9780 O.3    33  TYR33      -0.2866
     13  N        -23.8210   23.0610   19.5760 N.am   34  THR34      -0.1953
     14  CA       -22.4750   23.6020   19.7080 C.3    34  THR34       0.1897
     15  C        -21.8260   23.1330   21.0160 C.2    34  THR34       0.2313
     16  O        -20.6040   23.0050   21.0930 O.2    34  THR34      -0.2863
     17  CB       -22.4600   25.1480   19.6760 C.3    34  THR34       0.1794
     18  OG1      -22.9870   25.6530   20.9040 O.3    34  THR34      -0.2208
     19  CG2      -23.2740   25.6910   18.5170 C.3    34  THR34       0.0378
     20  N        -20.9720   18.2030   19.9130 N.3    37  ALA37      -0.1231
     21  CA       -21.5490   17.7920   18.6410 C.3    37  ALA37       0.1694
     22  C        -21.3210   16.3170   18.3890 C.2    37  ALA37       0.2591
     23  O        -21.9180   15.7350   17.4890 O.2    37  ALA37      -0.2718
     24  CB       -20.9710   18.6160   17.5250 C.3    37  ALA37       0.0304
     25  N        -20.4340   15.7260   19.1790 N.am   38  ARG38      -0.1980
     26  CA       -20.1980   14.2870   19.1480 C.3    38  ARG38       0.1597
     27  C        -21.5150   13.5130   19.2930 C.2    38  ARG38       0.2287
     28  O        -21.7850   12.5950   18.5320 O.2    38  ARG38      -0.2864
     29  CB       -19.1990   13.9080   20.2540 C.3    38  ARG38       0.0334
     30  CG       -18.6900   12.4580   20.2490 C.3    38  ARG38       0.0492
     31  CD       -17.3600   12.3070   19.5100 C.3    38  ARG38       0.2205
     32  NE       -17.5460   11.9700   18.1010 N.pl3  38  ARG38      -0.0865
     33  CZ       -16.5560   11.7970   17.2260 C.cat  38  ARG38       0.5346
     34  NH1      -15.2890   11.9260   17.6060 N.pl3  38  ARG38       0.1354
     35  NH2      -16.8400   11.4920   15.9630 N.pl3  38  ARG38       0.1354
     36  N        -23.6650   14.0540   15.8150 N.3    41  ASN41      -0.1240
     37  CA       -23.0230   13.5630   14.6120 C.3    41  ASN41       0.1653
     38  C        -22.5840   12.1030   14.6860 C.2    41  ASN41       0.2266
     39  O        -22.6520   11.3890   13.6850 O.2    41  ASN41      -0.2867
     40  CB       -21.8240   14.4470   14.2730 C.3    41  ASN41       0.1155
     41  CG       -22.2170   15.8800   13.9560 C.2    41  ASN41       0.2627
     42  OD1      -23.3370   16.1510   13.5470 O.2    41  ASN41      -0.2716
     43  ND2      -21.2800   16.7980   14.1290 N.am   41  ASN41      -0.0877
     44  N        -24.0220    9.0980   12.1890 N.3    45  ARG45      -0.1245
     45  CA       -23.1360    8.3060   11.3550 C.3    45  ARG45       0.1563
     46  C        -23.2780    6.8340   11.7140 C.2    45  ARG45       0.2260
     47  O        -23.5250    6.0100   10.8390 O.2    45  ARG45      -0.2867
     48  CB       -21.6920    8.7800   11.4920 C.3    45  ARG45       0.0307
     49  CG       -21.5180   10.2310   11.0770 C.3    45  ARG45       0.0489
     50  CD       -20.0660   10.7040   11.1050 C.3    45  ARG45       0.2205
     51  NE       -19.9870   12.1360   10.8360 N.pl3  45  ARG45      -0.0865
     52  CZ       -19.6100   13.0530   11.7280 C.cat  45  ARG45       0.5346
     53  NH1      -19.2420   12.6920   12.9530 N.pl3  45  ARG45       0.1354
     54  NH2      -19.5810   14.3360   11.3950 N.pl3  45  ARG45       0.1354
     55  N        -14.8240   26.9580    5.6710 N.3    82  TYR82      -0.1227
     56  CA       -13.6820   26.0920    5.9640 C.3    82  TYR82       0.1736
     57  C        -13.8770   25.2650    7.2180 C.2    82  TYR82       0.2595
     58  O        -14.5950   25.6580    8.1470 O.2    82  TYR82      -0.2718
     59  CB       -12.3830   26.9290    6.0920 C.3    82  TYR82       0.0548
     60  CG       -12.1260   27.7390    4.8430 C.ar   82  TYR82      -0.0200
     61  CD1      -11.3810   27.2140    3.7900 C.ar   82  TYR82      -0.0009
     62  CD2      -12.6810   29.0030    4.6840 C.ar   82  TYR82      -0.0009
     63  CE1      -11.1720   27.9330    2.6350 C.ar   82  TYR82       0.0417
     64  CE2      -12.4880   29.7240    3.5150 C.ar   82  TYR82       0.0417
     65  CZ       -11.7300   29.1820    2.5010 C.ar   82  TYR82       0.1957
     66  OH       -11.5100   29.8800    1.3400 O.3    82  TYR82      -0.2866
     67  N        -13.2040   24.1230    7.2300 N.am   83  ARG83      -0.1966
     68  CA       -13.0660   23.3250    8.4350 C.3    83  ARG83       0.1729
     69  C        -11.8180   22.4510    8.3580 C.2    83  ARG83       0.2617
     70  O        -11.3670   22.0950    7.2750 O.2    83  ARG83      -0.2715
     71  CB       -14.2980   22.4570    8.6300 C.3    83  ARG83       0.0348
     72  CG       -14.2280   21.1540    7.8850 C.3    83  ARG83       0.0492
     73  CD       -15.4990   20.3980    8.0620 C.3    83  ARG83       0.2205
     74  NE       -15.3420   19.1560    8.8100 N.pl3  83  ARG83      -0.0865
     75  CZ       -15.8070   18.9580   10.0340 C.cat  83  ARG83       0.5346
     76  NH1      -16.4500   19.9240   10.6700 N.pl3  83  ARG83       0.1354
     77  NH2      -15.6190   17.8000   10.6350 N.pl3  83  ARG83       0.1354
     78  N        -11.2500   22.1270    9.5050 N.am   84  GLY84      -0.1940
     79  CA       -10.1590   21.1760    9.5790 C.3    84  GLY84       0.2014
     80  C        -10.6320   19.8280   10.1050 C.2    84  GLY84       0.2639
     81  O        -11.6130   19.7310   10.8500 O.2    84  GLY84      -0.2714
     82  N         -9.9240   18.7810    9.7050 N.am   85  ASP85      -0.1957
     83  CA       -10.2470   17.4370   10.1260 C.3    85  ASP85       0.1840
     84  C         -9.0220   16.6270   10.4460 C.2    85  ASP85       0.2622
     85  O         -7.9230   16.9030    9.9650 O.2    85  ASP85      -0.2715
     86  CB       -11.0390   16.7150    9.0530 C.3    85  ASP85       0.1450
     87  CG       -12.5070   16.9650    9.1650 C.2    85  ASP85       0.3671
     88  OD1      -13.0910   16.5490   10.1860 O.co2  85  ASP85      -0.2456
     89  OD2      -13.0720   17.5780    8.2390 O.co2  85  ASP85      -0.2456
     90  N         -9.2230   15.6080   11.2610 N.am   86  ASP86      -0.1971
     91  CA        -8.1500   14.7020   11.5800 C.3    86  ASP86       0.1709
     92  C         -8.0960   13.6460   10.4930 C.2    86  ASP86       0.2293
     93  O         -9.0530   13.4880    9.7330 O.2    86  ASP86      -0.2864
     94  CB        -8.3520   14.1130   12.9670 C.3    86  ASP86       0.1436
     95  CG        -8.1790   15.1540   14.0480 C.2    86  ASP86       0.3671
     96  OD1       -7.1510   15.8630   14.0030 O.co2  86  ASP86      -0.2456
     97  OD2       -9.0760   15.2840   14.9200 O.co2  86  ASP86      -0.2456
     98  N         -8.2970   10.6090   10.2330 N.3    88  TRP88      -0.1227
     99  CA        -9.2230    9.4820   10.1920 C.3    88  TRP88       0.1737
    100  C        -10.5960    9.8420    9.5950 C.2    88  TRP88       0.2595
    101  O        -11.5070    9.0220    9.5810 O.2    88  TRP88      -0.2718
    102  CB        -9.3910    8.8800   11.5870 C.3    88  TRP88       0.0564
    103  CG        -9.5900    9.8700   12.6800 C.ar   88  TRP88       0.0003
    104  CD1      -10.7590   10.4440   13.0500 C.ar   88  TRP88       0.0946
    105  CD2       -8.5910   10.3730   13.5760 C.ar   88  TRP88       0.0152
    106  NE1      -10.5470   11.3030   14.1050 N.ar   88  TRP88      -0.2442
    107  CE2       -9.2230   11.2700   14.4490 C.ar   88  TRP88       0.0810
    108  CE3       -7.2090   10.1520   13.7160 C.ar   88  TRP88       0.0012
    109  CZ2       -8.5320   11.9520   15.4600 C.ar   88  TRP88       0.0191
    110  CZ3       -6.5260   10.8270   14.7180 C.ar   88  TRP88       0.0001
    111  CH2       -7.1870   11.7170   15.5770 C.ar   88  TRP88       0.0015
    112  N        -10.7300   11.0600    9.0850 N.am   89  ILE89      -0.1980
    113  CA       -11.9040   11.4380    8.3140 C.3    89  ILE89       0.1595
    114  C        -11.9550   10.6150    7.0260 C.2    89  ILE89       0.2287
    115  O        -13.0240   10.4400    6.4120 O.2    89  ILE89      -0.2864
    116  CB       -11.8810   12.9320    7.9590 C.3    89  ILE89       0.0276
    117  CG1      -13.1020   13.3220    7.1200 C.3    89  ILE89       0.0022
    118  CG2      -10.6270   13.2510    7.1650 C.3    89  ILE89       0.0022
    119  CD1      -14.3130   13.7310    7.9300 C.3    89  ILE89       0.0001
    120  N        -23.2350   13.2380    3.8600 N.3   123  GLU123     -0.1245
    121  CA       -22.8350   13.1510    5.2640 C.3   123  GLU123      0.1567
    122  C        -24.0370   13.0790    6.2030 C.2   123  GLU123      0.2260
    123  O        -24.9880   13.8380    6.0860 O.2   123  GLU123     -0.2867
    124  CB       -21.9310   14.3110    5.6300 C.3   123  GLU123      0.0388
    125  CG       -21.7050   14.4980    7.1260 C.3   123  GLU123      0.1160
    126  CD       -20.9180   13.3670    7.7160 C.2   123  GLU123      0.3649
    127  OE1      -19.8940   12.9920    7.1040 O.co2 123  GLU123     -0.2457
    128  OE2      -21.3290   12.8400    8.7770 O.co2 123  GLU123     -0.2457
    129  N        -24.3430   16.6060   11.0830 N.3   126  TYR126     -0.1241
    130  CA       -24.3420   17.9800   10.6040 C.3   126  TYR126      0.1605
    131  C        -22.9520   18.3500   10.1510 C.2   126  TYR126      0.2264
    132  O        -21.9760   17.6320   10.4340 O.2   126  TYR126     -0.2867
    133  CB       -24.8250   18.9310   11.6790 C.3   126  TYR126      0.0534
    134  CG       -26.2500   18.6670   12.0540 C.ar  126  TYR126     -0.0201
    135  CD1      -26.5680   17.6840   12.9780 C.ar  126  TYR126     -0.0009
    136  CD2      -27.2840   19.3980   11.4830 C.ar  126  TYR126     -0.0009
    137  CE1      -27.8690   17.4340   13.3210 C.ar  126  TYR126      0.0417
    138  CE2      -28.5820   19.1590   11.8240 C.ar  126  TYR126      0.0417
    139  CZ       -28.8700   18.1740   12.7400 C.ar  126  TYR126      0.1957
    140  OH       -30.1720   17.9380   13.0810 O.3   126  TYR126     -0.2866
    141  N        -20.1490   21.3170   10.3710 N.3   128  SER128     -0.1202
    142  CA       -19.6770   22.5500   10.9880 C.3   128  SER128      0.2020
    143  C        -18.5670   23.2240   10.1880 C.2   128  SER128      0.2619
    144  O        -17.5400   22.6210    9.8790 O.2   128  SER128     -0.2717
    145  CB       -19.1760   22.2700   12.4090 C.3   128  SER128      0.2103
    146  OG       -20.2480   22.0450   13.3050 O.3   128  SER128     -0.2182
    147  N        -18.7630   24.4960    9.8770 N.am  129  THR129     -0.1938
    148  CA       -17.7300   25.2540    9.1870 C.3   129  THR129      0.2028
    149  C        -17.4980   26.6600    9.7660 C.2   129  THR129      0.2642
    150  O        -18.2710   27.1630   10.5930 O.2   129  THR129     -0.2714
    151  CB       -18.0750   25.3810    7.6930 C.3   129  THR129      0.1808
    152  OG1      -19.0580   26.4160    7.5110 O.3   129  THR129     -0.2208
    153  CG2      -18.6130   24.0330    7.1640 C.3   129  THR129      0.0379
    154  N        -16.4070   27.2820    9.3360 N.am  130  SER130     -0.1949
    155  CA       -16.2020   28.6870    9.6120 C.3   130  SER130      0.1924
    156  C        -16.1490   29.4690    8.3170 C.2   130  SER130      0.2314
    157  O        -15.6440   28.9800    7.3140 O.2   130  SER130     -0.2863
    158  CB       -14.9220   28.9160   10.3980 C.3   130  SER130      0.2116
    159  OG       -14.9750   30.2050   10.9490 O.3   130  SER130     -0.2180
    160  N        -12.0230   28.5050   13.8090 N.3   136  GLY136     -0.1210
    161  CA       -12.2600   27.0740   13.8620 C.3   136  GLY136      0.1956
    162  C        -10.9400   26.3320   13.8970 C.2   136  GLY136      0.2611
    163  O         -9.9630   26.8060   14.4880 O.2   136  GLY136     -0.2717
    164  N        -10.9030   25.1830   13.2280 N.am  137  TYR137     -0.1976
    165  CA        -9.7670   24.2650   13.3480 C.3   137  TYR137      0.1639
    166  C         -8.9990   24.0270   12.0350 C.2   137  TYR137      0.2290
    167  O         -8.2190   23.0810   11.9490 O.2   137  TYR137     -0.2864
    168  CB       -10.2510   22.9130   13.8930 C.3   137  TYR137      0.0560
    169  CG       -11.0210   22.9710   15.2050 C.ar  137  TYR137     -0.0198
    170  CD1      -12.2460   23.6250   15.3000 C.ar  137  TYR137     -0.0009
    171  CD2      -10.5370   22.3300   16.3440 C.ar  137  TYR137     -0.0009
    172  CE1      -12.9510   23.6750   16.4960 C.ar  137  TYR137      0.0417
    173  CE2      -11.2320   22.3650   17.5460 C.ar  137  TYR137      0.0417
    174  CZ       -12.4360   23.0400   17.6230 C.ar  137  TYR137      0.1957
    175  OH       -13.1320   23.0780   18.8140 O.3   137  TYR137     -0.2866
    176  N         -5.5030   21.2780   12.1020 N.3   141  ARG141     -0.1245
    177  CA        -5.7750   19.8760   11.7920 C.3   141  ARG141      0.1563
    178  C         -5.0680   19.4470   10.4910 C.2   141  ARG141      0.2260
    179  O         -4.7720   20.2760    9.6520 O.2   141  ARG141     -0.2867
    180  CB        -7.2940   19.6410   11.7390 C.3   141  ARG141      0.0307
    181  CG        -7.9490   19.8420   13.1000 C.3   141  ARG141      0.0489
    182  CD        -9.2610   19.0920   13.2580 C.3   141  ARG141      0.2205
    183  NE        -9.7980   19.2050   14.6190 N.pl3 141  ARG141     -0.0865
    184  CZ       -11.1060   19.2760   14.9140 C.cat 141  ARG141      0.5346
    185  NH1      -12.0240   19.2530   13.9520 N.pl3 141  ARG141      0.1354
    186  NH2      -11.5120   19.3900   16.1790 N.pl3 141  ARG141      0.1354
    187  N        -24.4790   29.9530   20.1510 N.3   164  THR164     -0.1218
    188  CA       -23.3810   28.9910   20.3550 C.3   164  THR164      0.1862
    189  C        -22.6820   29.1240   21.7130 C.2   164  THR164      0.2287
    190  O        -22.4850   30.2310   22.2130 O.2   164  THR164     -0.2866
    191  CB       -22.3020   29.1260   19.2420 C.3   164  THR164      0.1770
    192  OG1      -21.1830   28.2700   19.5270 O.3   164  THR164     -0.2211
    193  CG2      -21.8210   30.5610   19.1290 C.3   164  THR164      0.0375
    194  N        -19.7450   28.5210   21.9730 N.3   166  TYR166     -0.1241
    195  CA       -18.3990   28.9140   21.5690 C.3   166  TYR166      0.1605
    196  C        -18.4350   30.0580   20.5640 C.2   166  TYR166      0.2264
    197  O        -18.1960   29.8520   19.3800 O.2   166  TYR166     -0.2867
    198  CB       -17.6470   27.7280   20.9680 C.3   166  TYR166      0.0534
    199  CG       -17.2650   26.6570   21.9530 C.ar  166  TYR166     -0.0201
    200  CD1      -18.2400   25.8600   22.5630 C.ar  166  TYR166     -0.0009
    201  CD2      -15.9300   26.4140   22.2580 C.ar  166  TYR166     -0.0009
    202  CE1      -17.9030   24.8730   23.4540 C.ar  166  TYR166      0.0417
    203  CE2      -15.5740   25.3970   23.1280 C.ar  166  TYR166      0.0417
    204  CZ       -16.5730   24.6530   23.7560 C.ar  166  TYR166      0.1957
    205  OH       -16.2220   23.6590   24.6500 O.3   166  TYR166     -0.2866
    206  N        -16.0650   31.8270   16.8180 N.3   169  GLN169     -0.1245
    207  CA       -15.7250   30.7950   15.8320 C.3   169  GLN169      0.1566
    208  C        -16.2370   31.0490   14.3990 C.2   169  GLN169      0.2260
    209  O        -15.8420   30.3290   13.4590 O.2   169  GLN169     -0.2867
    210  CB       -16.2540   29.4400   16.2920 C.3   169  GLN169      0.0367
    211  CG       -15.3990   28.7440   17.3270 C.3   169  GLN169      0.0905
    212  CD       -15.9450   27.3660   17.6740 C.2   169  GLN169      0.2608
    213  OE1      -17.0940   27.0510   17.3940 O.2   169  GLN169     -0.2717
    214  NE2      -15.1150   26.5420   18.2940 N.am  169  GLN169     -0.0878
    215  N        -19.1930   30.6000   12.8410 N.3   171  GLU171     -0.1245
    216  CA       -19.6560   29.3130   12.3610 C.3   171  GLU171      0.1567
    217  C        -20.8600   29.3570   11.4050 C.2   171  GLU171      0.2260
    218  O        -21.8530   30.0590   11.6210 O.2   171  GLU171     -0.2867
    219  CB       -19.9930   28.4230   13.5470 C.3   171  GLU171      0.0388
    220  CG       -20.4770   27.0600   13.1130 C.3   171  GLU171      0.1160
    221  CD       -20.5450   26.0710   14.2380 C.2   171  GLU171      0.3649
    222  OE1      -20.2270   26.4270   15.3840 O.co2 171  GLU171     -0.2457
    223  OE2      -20.8880   24.9180   13.9640 O.co2 171  GLU171     -0.2457
    224  N        -22.1240   16.3920   -0.9770 N.3   180  TYR180     -0.1241
    225  CA       -21.1020   17.2410   -1.5530 C.3   180  TYR180      0.1605
    226  C        -20.1620   16.4110   -2.4080 C.2   180  TYR180      0.2264
    227  O        -20.0490   15.2030   -2.2400 O.2   180  TYR180     -0.2867
    228  CB       -20.3390   18.0000   -0.4590 C.3   180  TYR180      0.0534
    229  CG       -19.5800   17.1370    0.5040 C.ar  180  TYR180     -0.0201
    230  CD1      -18.2770   16.7490    0.2260 C.ar  180  TYR180     -0.0009
    231  CD2      -20.1460   16.7120    1.7000 C.ar  180  TYR180     -0.0009
    232  CE1      -17.5500   15.9520    1.1120 C.ar  180  TYR180      0.0417
    233  CE2      -19.4240   15.9110    2.5850 C.ar  180  TYR180      0.0417
    234  CZ       -18.1210   15.5410    2.2730 C.ar  180  TYR180      0.1957
    235  OH       -17.3940   14.7580    3.1270 O.3   180  TYR180     -0.2866
@<TRIPOS>BOND
     1   226   227    2
     2   226   225    1
     3   225   224    1
     4   225   228    1
     5   228   229    1
     6   230   229   ar
     7   230   232   ar
     8   229   231   ar
     9   232   234   ar
    10    66    65    1
    11   231   233   ar
    12   234   233   ar
    13   234   235    1
    14    65    63   ar
    15    65    64   ar
    16    63    61   ar
    17    64    62   ar
    18    61    60   ar
    19   120   121    1
    20    62    60   ar
    21    60    59    1
    22   121   124    1
    23   121   122    1
    24   124   125    1
    25    55    56    1
    26    56    59    1
    27    56    57    1
    28   123   122    2
    29   115   114    2
    30   114   113    1
    31   127   126   ar
    32   117   119    1
    33   117   116    1
    34   125   126    1
    35   153   151    1
    36   118   116    1
    37    57    67   am
    38    57    58    2
    39    67    68    1
    40    70    69    2
    41   157   156    2
    42   152   151    1
    43   151   148    1
    44   126   128   ar
    45    72    73    1
    46    72    71    1
    47   116   113    1
    48    73    74    1
    49    89    87   ar
    50   113   112    1
    51   156   155    1
    52    69    68    1
    53    69    78   am
    54    68    71    1
    55    74    75    2
    56    86    87    1
    57    86    83    1
    58   112   100   am
    59    87    88   ar
    60   148   149    1
    61   148   147    1
    62   154   155    1
    63   154   149   am
    64    78    79    1
    65    79    80    1
    66   101   100    2
    67   100    99    1
    68   155   158    1
    69   179   178    2
    70    82    80   am
    71    82    83    1
    72    93    92    2
    73   149   150    2
    74   147   143   am
    75   144   143    2
    76    85    84    2
    77    75    77    1
    78    75    76    1
    79    80    81    2
    80    83    84    1
    81   131   132    2
    82   131   130    1
    83   143   142    1
    84    99    98    1
    85    99   102    1
    86   141   142    1
    87   158   159    1
    88    84    90   am
    89   178   177    1
    90    92    91    1
    91   130   129    1
    92   130   133    1
    93    51    50    1
    94    51    52    2
    95    47    46    2
    96   142   145    1
    97    49    50    1
    98    49    48    1
    99    90    91    1
   100    45    48    1
   101    45    46    1
   102    45    44    1
   103    54    52    1
   104   217   218    2
   105   217   216    1
   106   136   138   ar
   107   136   134   ar
   108    91    94    1
   109   102   103    1
   110   133   134    1
   111    52    53    1
   112   180   177    1
   113   180   181    1
   114   177   176    1
   115   138   139   ar
   116   167   166    2
   117   166   165    1
   118   134   135   ar
   119   216   215    1
   120   216   219    1
   121   145   146    1
   122   103   104   ar
   123   103   105   ar
   124   139   140    1
   125   139   137   ar
   126    94    95    1
   127   135   137   ar
   128   104   106   ar
   129   181   182    1
   130   220   219    1
   131   220   221    1
   132   164   165    1
   133   164   162   am
   134   182   183    1
   135   165   168    1
   136   209   208    2
   137    42    41    2
   138   105   108   ar
   139   105   107   ar
   140    39    38    2
   141   108   110   ar
   142   160   161    1
   143   161   162    1
   144   168   169    1
   145   162   163    2
   146   185   184    1
   147    41    43   am
   148    41    40    1
   149   223   221   ar
   150    12    11    1
   151    96    95   ar
   152    95    97   ar
   153   106   107   ar
   154   221   222   ar
   155    40    37    1
   156   208   207    1
   157   107   109   ar
   158    37    38    1
   159    37    36    1
   160   183   184    2
   161   110   111   ar
   162   184   186    1
   163    11    10   ar
   164    11     9   ar
   165   169   170   ar
   166   169   171   ar
   167   170   172   ar
   168    10     8   ar
   169     9     7   ar
   170   109   111   ar
   171   207   210    1
   172   207   206    1
   173    35    33    1
   174     8     6   ar
   175   210   211    1
   176   171   173   ar
   177     7     6   ar
   178   172   174   ar
   179     6     5    1
   180    33    34    1
   181    33    32    2
   182   211   212    1
   183   213   212    2
   184    23    22    2
   185    24    21    1
   186   173   174   ar
   187   174   175    1
   188   212   214   am
   189     5     2    1
   190    32    31    1
   191    22    21    1
   192    22    25   am
   193    19    17    1
   194    28    27    2
   195    21    20    1
   196   193   191    1
   197    26    25    1
   198    26    27    1
   199    26    29    1
   200   191   192    1
   201   191   188    1
   202     2     3    1
   203     2     1    1
   204   197   196    2
   205     3     4    2
   206     3    13   am
   207    31    30    1
   208    13    14    1
   209    17    14    1
   210    17    18    1
   211    14    15    1
   212   187   188    1
   213    30    29    1
   214   188   189    1
   215   196   195    1
   216   198   195    1
   217   198   199    1
   218    15    16    2
   219   195   194    1
   220   189   190    2
   221   199   201   ar
   222   199   200   ar
   223   201   203   ar
   224   200   202   ar
   225   203   204   ar
   226   202   204   ar
   227   204   205    1
