@<TRIPOS>MOLECULE
tmp/4xsrA01.pdb
 225 220 0 0 0
SMALL
GASTEIGER

@<TRIPOS>ATOM
      1  N         47.6390  -68.1870   18.2600 N.3    13  PRO13      -0.2102
      2  CA        46.5980  -68.7360   17.3850 C.3    13  PRO13       0.1504
      3  C         45.1390  -68.3770   17.7910 C.2    13  PRO13       0.2576
      4  O         44.3500  -69.2340   18.2150 O.2    13  PRO13      -0.2718
      5  CB        46.8290  -70.2380   17.5090 C.3    13  PRO13       0.0282
      6  CG        47.2290  -70.4030   18.9360 C.3    13  PRO13       0.0208
      7  CD        48.1500  -69.2280   19.1730 C.3    13  PRO13       0.0893
      8  N         44.7950  -67.1070   17.6470 N.am   14  GLY14      -0.1943
      9  CA        43.4350  -66.6480   17.7710 C.3    14  GLY14       0.2014
     10  C         42.6770  -67.0580   16.5210 C.2    14  GLY14       0.2639
     11  O         43.2620  -67.6730   15.5920 O.2    14  GLY14      -0.2714
     12  N         41.3880  -66.7120   16.4690 N.am   15  GLY15      -0.1939
     13  CA        40.5650  -67.1080   15.3210 C.3    15  GLY15       0.2014
     14  C         41.0430  -66.6160   13.9660 C.2    15  GLY15       0.2638
     15  O         41.0240  -67.3440   12.9700 O.2    15  GLY15      -0.2714
     16  N         41.4730  -65.3730   13.9210 N.am   16  ALA16      -0.1977
     17  CA        41.9190  -64.7740   12.6570 C.3    16  ALA16       0.1597
     18  C         43.1360  -65.4920   12.1160 C.2    16  ALA16       0.2287
     19  O         43.2810  -65.7070   10.9160 O.2    16  ALA16      -0.2864
     20  CB        42.2280  -63.3060   12.8970 C.3    16  ALA16       0.0319
     21  N         44.0610  -68.7280   12.9430 N.3    18  LEU18      -0.1245
     22  CA        43.6990  -70.0870   12.4710 C.3    18  LEU18       0.1561
     23  C         43.0310  -69.9700   11.1320 C.2    18  LEU18       0.2260
     24  O         43.3000  -70.7630   10.2300 O.2    18  LEU18      -0.2867
     25  CB        42.7870  -70.8120   13.4590 C.3    18  LEU18       0.0270
     26  CG        43.4510  -70.9650   14.8280 C.3    18  LEU18       0.0019
     27  CD1       42.4170  -71.3510   15.8550 C.3    18  LEU18       0.0001
     28  CD2       44.5830  -71.9740   14.7790 C.3    18  LEU18       0.0001
     29  N         38.3110  -59.4470   10.1670 N.3   107  HIS107     -0.1226
     30  CA        37.7690  -60.4640   11.0830 C.3   107  HIS107      0.1752
     31  C         37.1050  -59.8460   12.2950 C.2   107  HIS107      0.2596
     32  O         36.6610  -60.5680   13.1810 O.2   107  HIS107     -0.2718
     33  CB        38.8790  -61.3640   11.6060 C.3   107  HIS107      0.0759
     34  CG        39.5890  -62.1430   10.5470 C.ar  107  HIS107      0.0818
     35  ND1       39.1580  -63.3840   10.1230 N.ar  107  HIS107     -0.2268
     36  CD2       40.7170  -61.8790    9.8550 C.ar  107  HIS107      0.1154
     37  CE1       39.9780  -63.8400    9.1920 C.ar  107  HIS107      0.1986
     38  NE2       40.9470  -62.9530    9.0230 N.ar  107  HIS107     -0.2212
     39  N         37.0140  -58.5170   12.3310 N.am  108  ASP108     -0.1974
     40  CA        36.4490  -57.8120   13.4710 C.3   108  ASP108      0.1709
     41  C         35.1870  -57.1050   13.0630 C.2   108  ASP108      0.2293
     42  O         34.9330  -56.8810   11.8880 O.2   108  ASP108     -0.2864
     43  CB        37.4260  -56.7410   14.0220 C.3   108  ASP108      0.1436
     44  CG        38.7810  -57.3110   14.4680 C.2   108  ASP108      0.3671
     45  OD1       38.8230  -58.3560   15.1540 O.co2 108  ASP108     -0.2456
     46  OD2       39.8150  -56.6750   14.1490 O.co2 108  ASP108     -0.2456
     47  N         34.4650  -61.2490    7.0870 N.3   137  ASN137     -0.1240
     48  CA        34.1970  -62.6480    7.4360 C.3   137  ASN137      0.1653
     49  C         32.7080  -62.8900    7.6760 C.2   137  ASN137      0.2266
     50  O         32.3100  -63.9960    7.9220 O.2   137  ASN137     -0.2867
     51  CB        35.0000  -63.0580    8.6620 C.3   137  ASN137      0.1155
     52  CG        34.6600  -62.2520    9.8690 C.2   137  ASN137      0.2627
     53  OD1       33.9030  -61.2590    9.7970 O.2   137  ASN137     -0.2716
     54  ND2       35.2060  -62.6740   11.0200 N.am  137  ASN137     -0.0877
     55  N         34.6830  -67.9890    6.9390 N.3   160  ASN160     -0.1240
     56  CA        35.7840  -68.9030    7.2000 C.3   160  ASN160      0.1653
     57  C         35.4920  -70.2630    6.5990 C.2   160  ASN160      0.2266
     58  O         34.3360  -70.6990    6.5550 O.2   160  ASN160     -0.2867
     59  CB        35.9640  -69.1290    8.6630 C.3   160  ASN160      0.1155
     60  CG        36.4950  -67.9360    9.3930 C.2   160  ASN160      0.2627
     61  OD1       36.3210  -66.7670    9.0050 O.2   160  ASN160     -0.2716
     62  ND2       37.0940  -68.2200   10.5130 N.am  160  ASN160     -0.0877
     63  N         34.2830  -73.0650   23.9230 N.3   192  PHE192     -0.1227
     64  CA        35.5630  -73.1390   23.2090 C.3   192  PHE192      0.1736
     65  C         36.1480  -71.7840   22.7830 C.2   192  PHE192      0.2596
     66  O         37.0040  -71.7180   21.8890 O.2   192  PHE192     -0.2718
     67  CB        35.4100  -74.0540   22.0130 C.3   192  PHE192      0.0547
     68  CG        35.1370  -75.4750   22.4000 C.ar  192  PHE192     -0.0202
     69  CD1       33.8470  -75.9020   22.6450 C.ar  192  PHE192     -0.0042
     70  CD2       36.1810  -76.3700   22.5520 C.ar  192  PHE192     -0.0042
     71  CE1       33.5990  -77.2140   23.0000 C.ar  192  PHE192     -0.0003
     72  CE2       35.9450  -77.6680   22.9410 C.ar  192  PHE192     -0.0003
     73  CZ        34.6470  -78.1030   23.1510 C.ar  192  PHE192     -0.0000
     74  N         35.7220  -70.7340   23.4700 N.am  193  SER193     -0.1938
     75  CA        36.2200  -69.3930   23.2430 C.3   193  SER193      0.2055
     76  C         37.4230  -69.1010   24.1680 C.2   193  SER193      0.2642
     77  O         37.4400  -69.5190   25.3420 O.2   193  SER193     -0.2714
     78  CB        35.1130  -68.3760   23.5340 C.3   193  SER193      0.2130
     79  OG        33.9650  -68.6220   22.7190 O.3   193  SER193     -0.2179
     80  N         38.3980  -68.3530   23.6540 N.am  194  ARG194     -0.1977
     81  CA        39.4410  -67.7870   24.5090 C.3   194  ARG194      0.1597
     82  C         38.7850  -67.0780   25.6980 C.2   194  ARG194      0.2287
     83  O         37.6660  -66.6090   25.5940 O.2   194  ARG194     -0.2864
     84  CB        40.3700  -66.8320   23.7250 C.3   194  ARG194      0.0334
     85  CG        40.0040  -65.3350   23.7640 C.3   194  ARG194      0.0492
     86  CD        40.7070  -64.5310   22.6540 C.3   194  ARG194      0.2205
     87  NE        40.1740  -63.1750   22.3940 N.pl3 194  ARG194     -0.0865
     88  CZ        39.8220  -62.6880   21.1870 C.cat 194  ARG194      0.5346
     89  NH1       39.3650  -61.4320   21.0820 N.pl3 194  ARG194      0.1354
     90  NH2       39.9170  -63.4250   20.0730 N.pl3 194  ARG194      0.1354
     91  N         34.2810  -60.5390   27.0690 N.3   198  TRP198     -0.1227
     92  CA        33.2860  -60.4240   26.0150 C.3   198  TRP198      0.1737
     93  C         32.9340  -61.7760   25.4070 C.2   198  TRP198      0.2595
     94  O         31.8830  -61.9070   24.7640 O.2   198  TRP198     -0.2718
     95  CB        33.7140  -59.4120   24.9380 C.3   198  TRP198      0.0564
     96  CG        34.6120  -59.9060   23.8700 C.ar  198  TRP198      0.0003
     97  CD1       35.9880  -59.8950   23.8680 C.ar  198  TRP198      0.0946
     98  CD2       34.2140  -60.4720   22.6210 C.ar  198  TRP198      0.0152
     99  NE1       36.4660  -60.4480   22.6870 N.ar  198  TRP198     -0.2442
    100  CE2       35.3980  -60.7900   21.9020 C.ar  198  TRP198      0.0810
    101  CE3       32.9700  -60.7250   22.0220 C.ar  198  TRP198      0.0012
    102  CZ2       35.3640  -61.3300   20.6270 C.ar  198  TRP198      0.0191
    103  CZ3       32.9450  -61.2840   20.7670 C.ar  198  TRP198      0.0001
    104  CH2       34.1310  -61.5910   20.0820 C.ar  198  TRP198      0.0015
    105  N         33.7690  -62.7910   25.6170 N.am  199  LYS199     -0.1980
    106  CA        33.3890  -64.1470   25.2050 C.3   199  LYS199      0.1596
    107  C         32.3910  -64.8290   26.1870 C.2   199  LYS199      0.2287
    108  O         31.8580  -65.8950   25.8990 O.2   199  LYS199     -0.2864
    109  CB        34.6050  -65.0290   24.9790 C.3   199  LYS199      0.0298
    110  CG        35.4910  -64.6240   23.8270 C.3   199  LYS199      0.0038
    111  CD        34.7950  -64.6810   22.4860 C.3   199  LYS199      0.0206
    112  CE        35.8200  -64.6320   21.3610 C.3   199  LYS199      0.1093
    113  NZ        35.3140  -65.0790   20.0400 N.3   199  LYS199     -0.1314
    114  N         37.2180  -74.5320   27.4210 N.3   220  VAL220     -0.1231
    115  CA        38.4220  -74.7640   26.6540 C.3   220  VAL220      0.1692
    116  C         38.9570  -73.4570   26.0290 C.2   220  VAL220      0.2592
    117  O         38.2470  -72.7720   25.2780 O.2   220  VAL220     -0.2718
    118  CB        38.1520  -75.7910   25.5620 C.3   220  VAL220      0.0266
    119  CG1       39.4360  -76.2310   24.8800 C.3   220  VAL220      0.0020
    120  CG2       37.4270  -76.9970   26.1470 C.3   220  VAL220      0.0020
    121  N         40.2210  -73.1510   26.3210 N.am  221  GLY221     -0.1957
    122  CA        40.8910  -71.9280   25.8600 C.3   221  GLY221      0.1869
    123  C         41.6520  -71.3040   27.0120 C.2   221  GLY221      0.2309
    124  O         41.3710  -71.6260   28.1610 O.2   221  GLY221     -0.2863
    125  N         44.1450  -65.3190   26.3230 N.3   224  LEU224     -0.1245
    126  CA        45.1280  -65.1270   25.2190 C.3   224  LEU224      0.1561
    127  C         45.8910  -63.7920   25.3280 C.2   224  LEU224      0.2260
    128  O         46.9720  -63.6550   24.7320 O.2   224  LEU224     -0.2867
    129  CB        44.4750  -65.2430   23.7930 C.3   224  LEU224      0.0270
    130  CG        44.1670  -66.6030   23.0990 C.3   224  LEU224      0.0019
    131  CD1       43.4370  -66.4640   21.7640 C.3   224  LEU224      0.0001
    132  CD2       45.4300  -67.4230   22.8870 C.3   224  LEU224      0.0001
    133  N         44.3580  -74.0130   26.6360 N.3   252  PHE252     -0.1227
    134  CA        44.3330  -74.0680   25.2050 C.3   252  PHE252      0.1736
    135  C         44.5800  -75.4740   24.7950 C.2   252  PHE252      0.2595
    136  O         45.5160  -76.0840   25.2370 O.2   252  PHE252     -0.2718
    137  CB        45.3760  -73.1690   24.5460 C.3   252  PHE252      0.0547
    138  CG        45.0940  -72.9030   23.0780 C.ar  252  PHE252     -0.0202
    139  CD1       44.2300  -71.8740   22.6930 C.ar  252  PHE252     -0.0042
    140  CD2       45.6700  -73.7000   22.0820 C.ar  252  PHE252     -0.0042
    141  CE1       43.9650  -71.6210   21.3490 C.ar  252  PHE252     -0.0003
    142  CE2       45.4130  -73.4620   20.7310 C.ar  252  PHE252     -0.0003
    143  CZ        44.5480  -72.4280   20.3610 C.ar  252  PHE252     -0.0000
    144  N         43.7380  -75.9710   23.9080 N.am  253  ARG253     -0.1966
    145  CA        43.8160  -77.3300   23.4240 C.3   253  ARG253      0.1729
    146  C         43.8390  -77.3680   21.8930 C.2   253  ARG253      0.2616
    147  O         43.2820  -76.4860   21.2260 O.2   253  ARG253     -0.2715
    148  CB        42.5900  -78.0660   23.9410 C.3   253  ARG253      0.0348
    149  CG        42.7260  -78.5310   25.3860 C.3   253  ARG253      0.0492
    150  CD        43.4840  -79.8550   25.4050 C.3   253  ARG253      0.2205
    151  NE        43.1700  -80.6130   26.6020 N.pl3 253  ARG253     -0.0865
    152  CZ        42.6280  -81.8310   26.6580 C.cat 253  ARG253      0.5346
    153  NH1       42.3230  -82.5580   25.5750 N.pl3 253  ARG253      0.1354
    154  NH2       42.4110  -82.3360   27.8590 N.pl3 253  ARG253      0.1354
    155  N         44.4480  -78.4170   21.3530 N.am  254  ALA254     -0.1977
    156  CA        44.5120  -78.6560   19.9140 C.3   254  ALA254      0.1597
    157  C         43.5060  -79.6850   19.3980 C.2   254  ALA254      0.2287
    158  O         43.2650  -79.7710   18.1990 O.2   254  ALA254     -0.2864
    159  CB        45.9160  -79.1330   19.5520 C.3   254  ALA254      0.0319
    160  N         40.2540  -80.0530   19.2700 N.3   256  ILE256     -0.1245
    161  CA        38.9320  -79.4170   19.4010 C.3   256  ILE256      0.1561
    162  C         37.7880  -80.2800   18.8280 C.2   256  ILE256      0.2260
    163  O         36.7780  -80.4940   19.4930 O.2   256  ILE256     -0.2867
    164  CB        38.9090  -77.9970   18.8010 C.3   256  ILE256      0.0252
    165  CG1       39.9370  -77.0960   19.5060 C.3   256  ILE256      0.0019
    166  CG2       37.5320  -77.3610   18.9560 C.3   256  ILE256      0.0019
    167  CD1       39.7920  -77.0360   21.0130 C.3   256  ILE256      0.0001
    168  N         29.4870  -61.2900   17.9610 N.3   274  GLU274     -0.1231
    169  CA        30.5190  -62.0780   17.3900 C.3   274  GLU274      0.1684
    170  C         30.6000  -61.8230   15.9220 C.2   274  GLU274      0.2434
    171  O         29.6240  -61.8790   15.2220 O.2   274  GLU274     -0.2733
    172  CB        30.2680  -63.5440   17.6550 C.3   274  GLU274      0.0402
    173  CG        31.3980  -64.4600   17.2910 C.3   274  GLU274      0.1161
    174  CD        32.5290  -64.4190   18.2760 C.2   274  GLU274      0.3649
    175  OE1       32.2760  -64.4030   19.4530 O.co2 274  GLU274     -0.2457
    176  OE2       33.6740  -64.4150   17.8820 O.co2 274  GLU274     -0.2457
    177  N         31.7810  -61.5410   15.4360 N.am  275  PRO275     -0.2718
    178  CA        31.9520  -61.2880   14.0240 C.3   275  PRO275      0.1535
    179  C         31.6510  -62.4840   13.1790 C.2   275  PRO275      0.2599
    180  O         30.9550  -62.3500   12.2410 O.2   275  PRO275     -0.2715
    181  CB        33.4240  -60.9600   13.9270 C.3   275  PRO275      0.0310
    182  CG        33.7190  -60.3240   15.1940 C.3   275  PRO275      0.0237
    183  CD        32.8910  -61.0080   16.2160 C.3   275  PRO275      0.0939
    184  N         32.1450  -63.6440   13.5340 N.am  276  PHE276     -0.1960
    185  CA        31.8070  -64.8230   12.7800 C.3   276  PHE276      0.1771
    186  C         31.3800  -65.9680   13.6750 C.2   276  PHE276      0.2620
    187  O         30.2300  -66.3050   13.7200 O.2   276  PHE276     -0.2715
    188  CB        32.9410  -65.2310   11.8830 C.3   276  PHE276      0.0574
    189  CG        32.6640  -66.4500   11.0810 C.ar  276  PHE276     -0.0200
    190  CD1       31.8810  -66.3830    9.9750 C.ar  276  PHE276     -0.0042
    191  CD2       33.1930  -67.6590   11.4280 C.ar  276  PHE276     -0.0042
    192  CE1       31.6320  -67.4890    9.2290 C.ar  276  PHE276     -0.0003
    193  CE2       32.9460  -68.7720   10.6860 C.ar  276  PHE276     -0.0003
    194  CZ        32.1640  -68.6870    9.5780 C.ar  276  PHE276     -0.0000
    195  N         32.3140  -66.4980   14.4400 N.am  277  GLY277     -0.1940
    196  CA        32.0960  -67.6100   15.3360 C.3   277  GLY277      0.2014
    197  C         32.5110  -68.9670   14.8260 C.2   277  GLY277      0.2639
    198  O         31.7300  -69.7370   14.3530 O.2   277  GLY277     -0.2714
    199  N         33.7910  -69.2340   14.9270 N.am  278  ARG278     -0.1963
    200  CA        34.3310  -70.4660   14.4530 C.3   278  ARG278      0.1729
    201  C         33.8120  -71.6350   15.2340 C.2   278  ARG278      0.2616
    202  O         33.5320  -72.6570   14.6920 O.2   278  ARG278     -0.2715
    203  CB        35.8360  -70.4310   14.4880 C.3   278  ARG278      0.0348
    204  CG        36.4250  -69.7020   13.3260 C.3   278  ARG278      0.0492
    205  CD        37.8980  -69.4910   13.4970 C.3   278  ARG278      0.2205
    206  NE        38.6200  -70.7010   13.2080 N.pl3 278  ARG278     -0.0865
    207  CZ        38.8830  -71.1330   12.0010 C.cat 278  ARG278      0.5346
    208  NH1       38.5100  -70.4480   10.9630 N.pl3 278  ARG278      0.1354
    209  NH2       39.5320  -72.2370   11.8400 N.pl3 278  ARG278      0.1354
    210  N         33.7000  -71.4580   16.5310 N.am  279  VAL279     -0.1977
    211  CA        33.3610  -72.6020   17.3400 C.3   279  VAL279      0.1596
    212  C         31.9620  -73.0860   16.9420 C.2   279  VAL279      0.2287
    213  O         31.6950  -74.2810   17.0220 O.2   279  VAL279     -0.2864
    214  CB        33.4680  -72.3380   18.8450 C.3   279  VAL279      0.0276
    215  CG1       34.8090  -71.6760   19.1650 C.3   279  VAL279      0.0022
    216  CG2       32.3040  -71.5080   19.3440 C.3   279  VAL279      0.0022
    217  N         32.2320  -75.1620   13.8660 N.3   282  GLU282     -0.1245
    218  CA        32.9860  -76.3540   14.2220 C.3   282  GLU282      0.1567
    219  C         32.0480  -77.3810   14.8990 C.2   282  GLU282      0.2260
    220  O         32.0730  -78.5600   14.5630 O.2   282  GLU282     -0.2867
    221  CB        34.2000  -75.9690   15.0920 C.3   282  GLU282      0.0388
    222  CG        35.3630  -75.3300   14.2760 C.3   282  GLU282      0.1160
    223  CD        36.4240  -74.5980   15.1230 C.2   282  GLU282      0.3649
    224  OE1       37.4630  -74.1750   14.5770 O.co2 282  GLU282     -0.2457
    225  OE2       36.2390  -74.4370   16.3430 O.co2 282  GLU282     -0.2457
@<TRIPOS>BOND
     1    58    57    2
     2    57    56    1
     3    55    56    1
     4    47    48    1
     5    56    59    1
     6    48    49    1
     7    48    51    1
     8    49    50    2
     9    51    52    1
    10    59    60    1
    11    61    60    2
    12    38    37   ar
    13    38    36   ar
    14    37    35   ar
    15   192   194   ar
    16   192   190   ar
    17    60    62   am
    18   194   193   ar
    19    53    52    2
    20    36    34   ar
    21    52    54   am
    22   190   189   ar
    23    35    34   ar
    24    29    30    1
    25    24    23    2
    26    34    33    1
    27   193   191   ar
    28    19    18    2
    29   208   207    1
    30   189   191   ar
    31   189   188    1
    32    30    33    1
    33    30    31    1
    34    23    22    1
    35   209   207    1
    36   188   185    1
    37    42    41    2
    38   207   206    2
    39    18    17    1
    40   180   179    2
    41    31    39   am
    42    31    32    2
    43    39    40    1
    44    22    21    1
    45    22    25    1
    46    17    20    1
    47    17    16    1
    48   185   184    1
    49   185   186    1
    50    15    14    2
    51    41    40    1
    52   179   184   am
    53   179   178    1
    54   206   205    1
    55   204   205    1
    56   204   203    1
    57    25    26    1
    58    40    43    1
    59   186   187    2
    60   186   195   am
    61   217   218    1
    62    16    14   am
    63   181   178    1
    64   181   182    1
    65    14    13    1
    66    43    44    1
    67   178   177    1
    68    46    44   ar
    69   218   219    1
    70   218   221    1
    71   222   221    1
    72   222   223    1
    73   198   197    2
    74   195   196    1
    75   200   203    1
    76   200   199    1
    77   200   201    1
    78    44    45   ar
    79   220   219    2
    80   224   223   ar
    81   202   201    2
    82    28    26    1
    83   197   199   am
    84   197   196    1
    85    26    27    1
    86   223   225   ar
    87   182   183    1
    88   171   170    2
    89   201   210   am
    90    13    12    1
    91   177   170   am
    92   177   183    1
    93    11    10    2
    94   170   169    1
    95    12    10   am
    96    10     9    1
    97   210   211    1
    98   212   213    2
    99   212   211    1
   100   173   172    1
   101   173   174    1
   102   211   214    1
   103     2     5    1
   104     2     3    1
   105     2     1    1
   106   169   172    1
   107   169   168    1
   108     5     6    1
   109     8     9    1
   110     8     3   am
   111     3     4    2
   112   176   174   ar
   113   158   157    2
   114     1     7    1
   115   174   175   ar
   116   164   166    1
   117   164   161    1
   118   164   165    1
   119   162   161    1
   120   162   163    2
   121   214   215    1
   122   214   216    1
   123     6     7    1
   124   160   161    1
   125   157   156    1
   126   165   167    1
   127   159   156    1
   128   156   155    1
   129   113   112    1
   130    90    88    1
   131   104   102   ar
   132   104   103   ar
   133   143   142   ar
   134   143   141   ar
   135   102   100   ar
   136   142   140   ar
   137   103   101   ar
   138    89    88    1
   139    88    87    2
   140   147   146    2
   141   141   139   ar
   142   155   146   am
   143   112   111    1
   144   131   130    1
   145    66    65    2
   146   146   145    1
   147   100    98   ar
   148   100    99   ar
   149    67    68    1
   150    67    64    1
   151   101    98   ar
   152   140   138   ar
   153    87    86    1
   154    68    70   ar
   155    68    69   ar
   156   111   110    1
   157    70    72   ar
   158    98    96   ar
   159    69    71   ar
   160    86    85    1
   161    99    97   ar
   162   139   138   ar
   163    79    78    1
   164    65    64    1
   165    65    74   am
   166   132   130    1
   167    72    73   ar
   168    71    73   ar
   169   138   137    1
   170   130   129    1
   171    64    63    1
   172    75    74    1
   173    75    78    1
   174    75    76    1
   175   145   144    1
   176   145   148    1
   177    80    76   am
   178    80    81    1
   179    84    85    1
   180    84    81    1
   181   129   126    1
   182   110   109    1
   183    97    96   ar
   184    96    95    1
   185   144   135   am
   186   148   149    1
   187    76    77    2
   188    81    82    1
   189   137   134    1
   190   128   127    2
   191    94    93    2
   192   135   134    1
   193   135   136    2
   194   119   118    1
   195    95    92    1
   196   109   106    1
   197   106   105    1
   198   106   107    1
   199   134   133    1
   200   126   127    1
   201   126   125    1
   202   117   116    2
   203   149   150    1
   204   150   151    1
   205    93   105   am
   206    93    92    1
   207   118   120    1
   208   118   115    1
   209   153   152    1
   210    83    82    2
   211   122   121    1
   212   122   123    1
   213   108   107    2
   214    92    91    1
   215   116   121   am
   216   116   115    1
   217   151   152    2
   218   115   114    1
   219   152   154    1
   220   123   124    2
