@<TRIPOS>MOLECULE
tmp/4xsuB00.pdb
 119 117 0 0 0
SMALL
GASTEIGER

@<TRIPOS>ATOM
      1  N         78.7460  -38.8250   16.0500 N.3    15  GLY15      -0.1210
      2  CA        79.4110  -40.0110   16.6250 C.3    15  GLY15       0.1956
      3  C         78.8060  -41.3200   16.1740 C.2    15  GLY15       0.2611
      4  O         79.4820  -42.1740   15.5370 O.2    15  GLY15      -0.2717
      5  N         77.5080  -41.4420   16.4680 N.am   16  ALA16      -0.1979
      6  CA        76.7540  -42.6710   16.2410 C.3    16  ALA16       0.1597
      7  C         76.8560  -43.0440   14.8100 C.2    16  ALA16       0.2287
      8  O         77.0770  -44.2020   14.4480 O.2    16  ALA16      -0.2864
      9  CB        75.2930  -42.4660   16.6250 C.3    16  ALA16       0.0319
     10  N         73.9280  -45.7880   21.7190 N.3   111  HIS111     -0.1226
     11  CA        75.0690  -44.8620   21.7580 C.3   111  HIS111      0.1752
     12  C         74.7880  -43.7470   22.7350 C.2   111  HIS111      0.2596
     13  O         75.5360  -42.7890   22.8000 O.2   111  HIS111     -0.2718
     14  CB        75.3390  -44.2420   20.3800 C.3   111  HIS111      0.0759
     15  CG        75.7100  -45.2290   19.3220 C.ar  111  HIS111      0.0818
     16  ND1       76.9400  -45.8560   19.2780 N.ar  111  HIS111     -0.2268
     17  CD2       75.0190  -45.6850   18.2520 C.ar  111  HIS111      0.1154
     18  CE1       76.9890  -46.6560   18.2230 C.ar  111  HIS111      0.1986
     19  NE2       75.8330  -46.5680   17.5820 N.ar  111  HIS111     -0.2212
     20  N         73.7100  -43.8510   23.5110 N.am  112  ASP112     -0.1974
     21  CA        73.3300  -42.7730   24.4080 C.3   112  ASP112      0.1709
     22  C         73.3420  -43.2690   25.8480 C.2   112  ASP112      0.2293
     23  O         73.3140  -44.4820   26.1240 O.2   112  ASP112     -0.2864
     24  CB        71.9170  -42.2380   24.0720 C.3   112  ASP112      0.1436
     25  CG        71.7240  -41.8630   22.5890 C.2   112  ASP112      0.3671
     26  OD1       72.6050  -41.2100   21.9990 O.co2 112  ASP112     -0.2456
     27  OD2       70.6530  -42.2000   22.0200 O.co2 112  ASP112     -0.2456
     28  N         77.5370  -48.9730   23.9630 N.3   141  ASN141     -0.1240
     29  CA        78.8270  -48.5020   23.4820 C.3   141  ASN141      0.1653
     30  C         79.7760  -48.3730   24.6510 C.2   141  ASN141      0.2266
     31  O         80.9470  -48.1650   24.4530 O.2   141  ASN141     -0.2867
     32  CB        78.7210  -47.2010   22.7070 C.3   141  ASN141      0.1155
     33  CG        78.1740  -46.0640   23.5330 C.2   141  ASN141      0.2627
     34  OD1       77.6310  -46.2660   24.6160 O.2   141  ASN141     -0.2716
     35  ND2       78.2990  -44.8450   23.0100 N.am  141  ASN141     -0.0877
     36  N         83.4530  -48.6450   20.5190 N.3   164  ASN164     -0.1240
     37  CA        83.6400  -48.2500   19.1110 C.3   164  ASN164      0.1653
     38  C         84.9810  -48.7540   18.6540 C.2   164  ASN164      0.2266
     39  O         85.9260  -48.7780   19.4310 O.2   164  ASN164     -0.2867
     40  CB        83.6200  -46.7310   18.9250 C.3   164  ASN164      0.1155
     41  CG        82.2690  -46.1190   19.1990 C.2   164  ASN164      0.2627
     42  OD1       81.5400  -45.8030   18.2870 O.2   164  ASN164     -0.2716
     43  ND2       81.9390  -45.9370   20.4600 N.am  164  ASN164     -0.0877
     44  N         81.2890  -31.4910   18.4630 N.3   198  ARG198     -0.1245
     45  CA        80.2500  -30.6070   17.9120 C.3   198  ARG198      0.1563
     46  C         79.8760  -29.5530   18.9640 C.2   198  ARG198      0.2260
     47  O         80.0150  -29.7760   20.1530 O.2   198  ARG198     -0.2867
     48  CB        79.0280  -31.4180   17.4740 C.3   198  ARG198      0.0307
     49  CG        78.2510  -32.0310   18.6470 C.3   198  ARG198      0.0489
     50  CD        77.3760  -33.2260   18.2470 C.3   198  ARG198      0.2205
     51  NE        76.2540  -33.3830   19.1870 N.pl3 198  ARG198     -0.0865
     52  CZ        76.1710  -34.2770   20.1750 C.cat 198  ARG198      0.5346
     53  NH1       77.1410  -35.1420   20.3720 N.pl3 198  ARG198      0.1354
     54  NH2       75.1020  -34.3120   20.9690 N.pl3 198  ARG198      0.1354
     55  N         76.6460  -28.8160   26.3860 N.3   202  TRP202     -0.1227
     56  CA        77.0240  -29.9240   27.2590 C.3   202  TRP202      0.1737
     57  C         78.3620  -30.5170   26.8810 C.2   202  TRP202      0.2595
     58  O         78.9240  -31.2810   27.6490 O.2   202  TRP202     -0.2718
     59  CB        75.9400  -31.0080   27.3350 C.3   202  TRP202      0.0564
     60  CG        75.8870  -32.0040   26.2230 C.ar  202  TRP202      0.0003
     61  CD1       75.1430  -31.9110   25.1050 C.ar  202  TRP202      0.0946
     62  CD2       76.5610  -33.2750   26.1540 C.ar  202  TRP202      0.0152
     63  NE1       75.3150  -33.0270   24.3200 N.ar  202  TRP202     -0.2442
     64  CE2       76.1720  -33.8860   24.9520 C.ar  202  TRP202      0.0810
     65  CE3       77.4600  -33.9490   26.9910 C.ar  202  TRP202      0.0012
     66  CZ2       76.6540  -35.1460   24.5480 C.ar  202  TRP202      0.0191
     67  CZ3       77.9530  -35.2060   26.5880 C.ar  202  TRP202      0.0001
     68  CH2       77.5480  -35.7830   25.3760 C.ar  202  TRP202      0.0015
     69  N         78.8550  -30.1640   25.6990 N.am  203  LYS203     -0.1980
     70  CA        80.1980  -30.5270   25.2910 C.3   203  LYS203      0.1596
     71  C         81.2390  -29.5980   25.8990 C.2   203  LYS203      0.2287
     72  O         82.4210  -29.8500   25.7790 O.2   203  LYS203     -0.2864
     73  CB        80.2960  -30.5120   23.7840 C.3   203  LYS203      0.0298
     74  CG        79.4640  -31.5850   23.1370 C.3   203  LYS203      0.0038
     75  CD        79.9930  -32.9640   23.4740 C.3   203  LYS203      0.0206
     76  CE        79.4210  -33.9780   22.5250 C.3   203  LYS203      0.1093
     77  NZ        79.9970  -35.3340   22.6700 N.3   203  LYS203     -0.1314
     78  N         79.5830  -38.3310   29.2980 N.3   278  GLU278     -0.1231
     79  CA        79.7750  -38.7070   27.9390 C.3   278  GLU278      0.1684
     80  C         79.5770  -40.1640   27.7980 C.2   278  GLU278      0.2434
     81  O         80.1550  -40.9060   28.5340 O.2   278  GLU278     -0.2733
     82  CB        81.1940  -38.4010   27.5350 C.3   278  GLU278      0.0402
     83  CG        81.5030  -38.7230   26.0980 C.3   278  GLU278      0.1161
     84  CD        81.0850  -37.6230   25.1760 C.2   278  GLU278      0.3649
     85  OE1       81.2070  -36.4590   25.5390 O.co2 278  GLU278     -0.2457
     86  OE2       80.6360  -37.9240   24.0860 O.co2 278  GLU278     -0.2457
     87  N         78.7720  -40.6030   26.8500 N.am  279  PRO279     -0.2718
     88  CA        78.5570  -42.0280   26.6790 C.3   279  PRO279      0.1535
     89  C         79.7830  -42.7580   26.2850 C.2   279  PRO279      0.2599
     90  O         80.0910  -43.7250   26.8860 O.2   279  PRO279     -0.2715
     91  CB        77.6060  -42.0830   25.5050 C.3   279  PRO279      0.0310
     92  CG        76.8400  -40.8670   25.6220 C.3   279  PRO279      0.0237
     93  CD        77.7930  -39.8290   26.0910 C.3   279  PRO279      0.0939
     94  N         80.5110  -42.2660   25.3150 N.am  280  PHE280     -0.1960
     95  CA        81.7340  -42.9150   24.9330 C.3   280  PHE280      0.1771
     96  C         82.8640  -41.9300   24.8250 C.2   280  PHE280      0.2620
     97  O         83.6890  -41.8430   25.6850 O.2   280  PHE280     -0.2715
     98  CB        81.5760  -43.6070   23.6180 C.3   280  PHE280      0.0574
     99  CG        82.7430  -44.4290   23.2440 C.ar  280  PHE280     -0.0200
    100  CD1       83.0290  -45.5720   23.9290 C.ar  280  PHE280     -0.0042
    101  CD2       83.5570  -44.0640   22.2270 C.ar  280  PHE280     -0.0042
    102  CE1       84.1020  -46.3440   23.5940 C.ar  280  PHE280     -0.0003
    103  CE2       84.6310  -44.8320   21.8820 C.ar  280  PHE280     -0.0003
    104  CZ        84.9020  -45.9770   22.5620 C.ar  280  PHE280     -0.0000
    105  N         82.8310  -41.1420   23.7740 N.am  281  GLY281     -0.1940
    106  CA        83.8410  -40.1530   23.4900 C.3   281  GLY281      0.2014
    107  C         84.8550  -40.6330   22.4990 C.2   281  GLY281      0.2638
    108  O         85.9260  -41.0170   22.8400 O.2   281  GLY281     -0.2714
    109  N         84.5010  -40.5640   21.2390 N.am  282  ARG282     -0.1977
    110  CA        85.3390  -41.0170   20.1610 C.3   282  ARG282      0.1597
    111  C         86.6080  -40.2290   20.0910 C.2   282  ARG282      0.2287
    112  O         87.6280  -40.7350   19.7140 O.2   282  ARG282     -0.2864
    113  CB        84.6130  -40.8990   18.8460 C.3   282  ARG282      0.0334
    114  CG        83.7760  -42.0870   18.5150 C.3   282  ARG282      0.0492
    115  CD        82.8450  -41.7940   17.3810 C.3   282  ARG282      0.2205
    116  NE        83.4790  -42.0760   16.1310 N.pl3 282  ARG282     -0.0865
    117  CZ        83.5980  -43.2780   15.6330 C.cat 282  ARG282      0.5346
    118  NH1       83.1040  -44.2980   16.2820 N.pl3 282  ARG282      0.1354
    119  NH2       84.2110  -43.4540   14.5000 N.pl3 282  ARG282      0.1354
@<TRIPOS>BOND
     1     8     7    2
     2   119   117    1
     3     7     6    1
     4     4     3    2
     5   117   116    2
     6   117   118    1
     7     1     2    1
     8   116   115    1
     9     3     5   am
    10     3     2    1
    11     6     5    1
    12     6     9    1
    13   115   114    1
    14    48    45    1
    15    48    49    1
    16    19    18   ar
    17    19    17   ar
    18    45    44    1
    19    45    46    1
    20    18    16   ar
    21    50    49    1
    22    50    51    1
    23    17    15   ar
    24    42    41    2
    25   114   113    1
    26    38    37    1
    27    38    39    2
    28   113   110    1
    29    40    37    1
    30    40    41    1
    31    46    47    2
    32    37    36    1
    33    51    52    2
    34    41    43   am
    35    16    15   ar
    36    15    14    1
    37   112   111    2
    38   111   110    1
    39   110   109    1
    40    52    53    1
    41    52    54    1
    42    14    11    1
    43   109   107   am
    44    10    11    1
    45    11    12    1
    46   103   101   ar
    47   103   104   ar
    48    26    25   ar
    49    27    25   ar
    50   101    99   ar
    51   107   108    2
    52   107   106    1
    53    76    77    1
    54    76    75    1
    55   104   102   ar
    56    25    24    1
    57    32    29    1
    58    32    33    1
    59    12    13    2
    60    12    20   am
    61    35    33   am
    62    74    75    1
    63    74    73    1
    64    99    98    1
    65    99   100   ar
    66    29    28    1
    67    29    30    1
    68   106   105    1
    69    20    21    1
    70    33    34    2
    71   102   100   ar
    72    98    95    1
    73   105    96   am
    74    73    70    1
    75    24    21    1
    76    86    84   ar
    77    63    64   ar
    78    63    61   ar
    79    21    22    1
    80    31    30    2
    81    66    64   ar
    82    66    68   ar
    83    96    95    1
    84    96    97    2
    85    95    94    1
    86    64    62   ar
    87    61    60   ar
    88    84    85   ar
    89    84    83    1
    90    70    69    1
    91    70    71    1
    92    94    89   am
    93    68    67   ar
    94    91    92    1
    95    91    88    1
    96    92    93    1
    97    69    57   am
    98    72    71    2
    99    22    23    2
   100    93    87    1
   101    83    82    1
   102    62    60   ar
   103    62    65   ar
   104    60    59    1
   105    89    88    1
   106    89    90    2
   107    55    56    1
   108    67    65   ar
   109    88    87    1
   110    87    80   am
   111    57    56    1
   112    57    58    2
   113    56    59    1
   114    82    79    1
   115    80    79    1
   116    80    81    2
   117    79    78    1
