@<TRIPOS>MOLECULE
tmp/4xsuB01.pdb
 183 181 0 0 0
SMALL
GASTEIGER

@<TRIPOS>ATOM
      1  N         76.7950  -36.4780   10.0600 N.3    13  PRO13      -0.2102
      2  CA        77.8070  -37.4310   10.5320 C.3    13  PRO13       0.1504
      3  C         78.2650  -37.2370   11.9990 C.2    13  PRO13       0.2576
      4  O         79.4220  -36.9070   12.2700 O.2    13  PRO13      -0.2718
      5  CB        78.9610  -37.2200    9.5490 C.3    13  PRO13       0.0282
      6  CG        78.6850  -35.9210    8.8580 C.3    13  PRO13       0.0208
      7  CD        77.4370  -35.3220    9.4250 C.3    13  PRO13       0.0893
      8  N         77.3520  -37.4640   12.9360 N.am   14  GLY14      -0.1943
      9  CA        77.6920  -37.4770   14.3450 C.3    14  GLY14       0.2014
     10  C         78.4260  -38.7510   14.7610 C.2    14  GLY14       0.2639
     11  O         78.6820  -39.6640   13.9460 O.2    14  GLY14      -0.2714
     12  N         78.7460  -38.8250   16.0500 N.am   15  GLY15      -0.1939
     13  CA        79.4110  -40.0110   16.6250 C.3    15  GLY15       0.2014
     14  C         78.8060  -41.3200   16.1740 C.2    15  GLY15       0.2638
     15  O         79.4820  -42.1740   15.5370 O.2    15  GLY15      -0.2714
     16  N         77.5080  -41.4420   16.4680 N.am   16  ALA16      -0.1977
     17  CA        76.7540  -42.6710   16.2410 C.3    16  ALA16       0.1597
     18  C         76.8560  -43.0440   14.8100 C.2    16  ALA16       0.2287
     19  O         77.0770  -44.2020   14.4480 O.2    16  ALA16      -0.2864
     20  CB        75.2930  -42.4660   16.6250 C.3    16  ALA16       0.0319
     21  N         79.1130  -41.8940   12.5410 N.3    18  LEU18      -0.1245
     22  CA        80.5090  -42.2840   12.2410 C.3    18  LEU18       0.1561
     23  C         80.7880  -43.7250   12.6670 C.2    18  LEU18       0.2260
     24  O         81.3450  -44.5070   11.9030 O.2    18  LEU18      -0.2867
     25  CB        81.5110  -41.3190   12.8640 C.3    18  LEU18       0.0270
     26  CG        81.4760  -40.0060   12.1070 C.3    18  LEU18       0.0019
     27  CD1       82.2760  -38.9450   12.8370 C.3    18  LEU18       0.0001
     28  CD2       81.9840  -40.2240   10.6980 C.3    18  LEU18       0.0001
     29  N         87.4680  -31.2300   19.9400 N.3   196  PHE196     -0.1227
     30  CA        86.9190  -31.7980   18.7060 C.3   196  PHE196      0.1736
     31  C         85.4840  -32.2960   18.8140 C.2   196  PHE196      0.2596
     32  O         85.1160  -33.2430   18.1460 O.2   196  PHE196     -0.2718
     33  CB        87.8080  -32.9300   18.2210 C.3   196  PHE196      0.0547
     34  CG        89.1690  -32.4840   17.8110 C.ar  196  PHE196     -0.0202
     35  CD1       90.1440  -32.2230   18.7650 C.ar  196  PHE196     -0.0042
     36  CD2       89.4800  -32.3110   16.4730 C.ar  196  PHE196     -0.0042
     37  CE1       91.4010  -31.7980   18.3920 C.ar  196  PHE196     -0.0003
     38  CE2       90.7370  -31.8840   16.0910 C.ar  196  PHE196     -0.0003
     39  CZ        91.7010  -31.6300   17.0510 C.ar  196  PHE196     -0.0000
     40  N         84.6770  -31.6480   19.6390 N.am  197  SER197     -0.1938
     41  CA        83.2620  -31.9930   19.7810 C.3   197  SER197      0.2055
     42  C         82.3810  -31.0000   19.0310 C.2   197  SER197      0.2642
     43  O         82.6670  -29.8010   18.9950 O.2   197  SER197     -0.2714
     44  CB        82.8530  -31.9830   21.2640 C.3   197  SER197      0.2130
     45  OG        83.5730  -32.9480   22.0330 O.3   197  SER197     -0.2179
     46  N         81.2890  -31.4910   18.4630 N.am  198  ARG198     -0.1977
     47  CA        80.2500  -30.6070   17.9120 C.3   198  ARG198      0.1597
     48  C         79.8760  -29.5530   18.9640 C.2   198  ARG198      0.2287
     49  O         80.0150  -29.7760   20.1530 O.2   198  ARG198     -0.2864
     50  CB        79.0280  -31.4180   17.4740 C.3   198  ARG198      0.0334
     51  CG        78.2510  -32.0310   18.6470 C.3   198  ARG198      0.0492
     52  CD        77.3760  -33.2260   18.2470 C.3   198  ARG198      0.2205
     53  NE        76.2540  -33.3830   19.1870 N.pl3 198  ARG198     -0.0865
     54  CZ        76.1710  -34.2770   20.1750 C.cat 198  ARG198      0.5346
     55  NH1       77.1410  -35.1420   20.3720 N.pl3 198  ARG198      0.1354
     56  NH2       75.1020  -34.3120   20.9690 N.pl3 198  ARG198      0.1354
     57  N         76.6460  -28.8160   26.3860 N.3   202  TRP202     -0.1227
     58  CA        77.0240  -29.9240   27.2590 C.3   202  TRP202      0.1737
     59  C         78.3620  -30.5170   26.8810 C.2   202  TRP202      0.2595
     60  O         78.9240  -31.2810   27.6490 O.2   202  TRP202     -0.2718
     61  CB        75.9400  -31.0080   27.3350 C.3   202  TRP202      0.0564
     62  CG        75.8870  -32.0040   26.2230 C.ar  202  TRP202      0.0003
     63  CD1       75.1430  -31.9110   25.1050 C.ar  202  TRP202      0.0946
     64  CD2       76.5610  -33.2750   26.1540 C.ar  202  TRP202      0.0152
     65  NE1       75.3150  -33.0270   24.3200 N.ar  202  TRP202     -0.2442
     66  CE2       76.1720  -33.8860   24.9520 C.ar  202  TRP202      0.0810
     67  CE3       77.4600  -33.9490   26.9910 C.ar  202  TRP202      0.0012
     68  CZ2       76.6540  -35.1460   24.5480 C.ar  202  TRP202      0.0191
     69  CZ3       77.9530  -35.2060   26.5880 C.ar  202  TRP202      0.0001
     70  CH2       77.5480  -35.7830   25.3760 C.ar  202  TRP202      0.0015
     71  N         78.8550  -30.1640   25.6990 N.am  203  LYS203     -0.1980
     72  CA        80.1980  -30.5270   25.2910 C.3   203  LYS203      0.1596
     73  C         81.2390  -29.5980   25.8990 C.2   203  LYS203      0.2287
     74  O         82.4210  -29.8500   25.7790 O.2   203  LYS203     -0.2864
     75  CB        80.2960  -30.5120   23.7840 C.3   203  LYS203      0.0298
     76  CG        79.4640  -31.5850   23.1370 C.3   203  LYS203      0.0038
     77  CD        79.9930  -32.9640   23.4740 C.3   203  LYS203      0.0206
     78  CE        79.4210  -33.9780   22.5250 C.3   203  LYS203      0.1093
     79  NZ        79.9970  -35.3340   22.6700 N.3   203  LYS203     -0.1314
     80  N         87.1710  -27.4700   16.9250 N.3   224  VAL224     -0.1231
     81  CA        86.7290  -28.1020   15.7030 C.3   224  VAL224      0.1692
     82  C         85.3710  -28.7730   15.9130 C.2   224  VAL224      0.2592
     83  O         85.0920  -29.3490   16.9850 O.2   224  VAL224     -0.2718
     84  CB        87.7240  -29.1420   15.2560 C.3   224  VAL224      0.0266
     85  CG1       87.3560  -29.6790   13.8910 C.3   224  VAL224      0.0020
     86  CG2       89.1210  -28.5510   15.2270 C.3   224  VAL224      0.0020
     87  N         84.5490  -28.7070   14.8670 N.am  225  GLY225     -0.1957
     88  CA        83.1550  -29.1160   14.9220 C.3   225  GLY225      0.1869
     89  C         82.1530  -28.0230   14.5610 C.2   225  GLY225      0.2309
     90  O         82.4510  -26.8330   14.6000 O.2   225  GLY225     -0.2863
     91  N         83.3670  -27.6940   10.8390 N.3   256  PHE256     -0.1227
     92  CA        83.3650  -29.1120   10.7120 C.3   256  PHE256      0.1736
     93  C         84.4150  -29.5390    9.7280 C.2   256  PHE256      0.2595
     94  O         84.4080  -29.1130    8.5770 O.2   256  PHE256     -0.2718
     95  CB        82.0080  -29.6660   10.2810 C.3   256  PHE256      0.0547
     96  CG        81.9060  -31.1630   10.4430 C.ar  256  PHE256     -0.0202
     97  CD1       81.5800  -31.7180   11.6760 C.ar  256  PHE256     -0.0042
     98  CD2       82.1850  -32.0140    9.3790 C.ar  256  PHE256     -0.0042
     99  CE1       81.5070  -33.0900   11.8320 C.ar  256  PHE256     -0.0003
    100  CE2       82.1060  -33.3920    9.5260 C.ar  256  PHE256     -0.0003
    101  CZ        81.7570  -33.9290   10.7530 C.ar  256  PHE256     -0.0000
    102  N         85.2960  -30.4220   10.1940 N.am  257  ARG257     -0.1966
    103  CA        86.4320  -30.8960    9.4180 C.3   257  ARG257      0.1729
    104  C         86.3750  -32.4040    9.2750 C.2   257  ARG257      0.2616
    105  O         85.9730  -33.1100   10.2140 O.2   257  ARG257     -0.2715
    106  CB        87.7110  -30.5050   10.1400 C.3   257  ARG257      0.0348
    107  CG        87.8930  -28.9990   10.3170 C.3   257  ARG257      0.0492
    108  CD        88.2500  -28.3390    8.9980 C.3   257  ARG257      0.2205
    109  NE        89.5920  -28.6860    8.5420 N.pl3 257  ARG257     -0.0865
    110  CZ        90.6290  -27.8470    8.5160 C.cat 257  ARG257      0.5346
    111  NH1       91.8120  -28.2680    8.1020 N.pl3 257  ARG257      0.1354
    112  NH2       90.5000  -26.5960    8.9230 N.pl3 257  ARG257      0.1354
    113  N         86.7450  -32.8790    8.0880 N.am  258  ALA258     -0.1977
    114  CA        86.9870  -34.2860    7.8150 C.3   258  ALA258      0.1597
    115  C         88.4260  -34.7980    8.1400 C.2   258  ALA258      0.2287
    116  O         88.6670  -36.0050    8.0960 O.2   258  ALA258     -0.2864
    117  CB        86.6890  -34.5660    6.3560 C.3   258  ALA258      0.0319
    118  N         90.4670  -35.0270   10.8280 N.3   260  ILE260     -0.1245
    119  CA        90.6400  -35.0100   12.2890 C.3   260  ILE260      0.1561
    120  C         91.9750  -35.6200   12.7690 C.2   260  ILE260      0.2260
    121  O         92.6030  -35.1000   13.7060 O.2   260  ILE260     -0.2867
    122  CB        89.4460  -35.6940   13.0030 C.3   260  ILE260      0.0252
    123  CG1       88.1440  -35.0200   12.5790 C.3   260  ILE260      0.0019
    124  CG2       89.5760  -35.5710   14.5220 C.3   260  ILE260      0.0019
    125  CD1       88.0430  -33.5470   12.9570 C.3   260  ILE260      0.0001
    126  N         79.5830  -38.3310   29.2980 N.3   278  GLU278     -0.1231
    127  CA        79.7750  -38.7070   27.9390 C.3   278  GLU278      0.1684
    128  C         79.5770  -40.1640   27.7980 C.2   278  GLU278      0.2434
    129  O         80.1550  -40.9060   28.5340 O.2   278  GLU278     -0.2733
    130  CB        81.1940  -38.4010   27.5350 C.3   278  GLU278      0.0402
    131  CG        81.5030  -38.7230   26.0980 C.3   278  GLU278      0.1161
    132  CD        81.0850  -37.6230   25.1760 C.2   278  GLU278      0.3649
    133  OE1       81.2070  -36.4590   25.5390 O.co2 278  GLU278     -0.2457
    134  OE2       80.6360  -37.9240   24.0860 O.co2 278  GLU278     -0.2457
    135  N         78.7720  -40.6030   26.8500 N.am  279  PRO279     -0.2718
    136  CA        78.5570  -42.0280   26.6790 C.3   279  PRO279      0.1535
    137  C         79.7830  -42.7580   26.2850 C.2   279  PRO279      0.2599
    138  O         80.0910  -43.7250   26.8860 O.2   279  PRO279     -0.2715
    139  CB        77.6060  -42.0830   25.5050 C.3   279  PRO279      0.0310
    140  CG        76.8400  -40.8670   25.6220 C.3   279  PRO279      0.0237
    141  CD        77.7930  -39.8290   26.0910 C.3   279  PRO279      0.0939
    142  N         80.5110  -42.2660   25.3150 N.am  280  PHE280     -0.1960
    143  CA        81.7340  -42.9150   24.9330 C.3   280  PHE280      0.1771
    144  C         82.8640  -41.9300   24.8250 C.2   280  PHE280      0.2620
    145  O         83.6890  -41.8430   25.6850 O.2   280  PHE280     -0.2715
    146  CB        81.5760  -43.6070   23.6180 C.3   280  PHE280      0.0574
    147  CG        82.7430  -44.4290   23.2440 C.ar  280  PHE280     -0.0200
    148  CD1       83.0290  -45.5720   23.9290 C.ar  280  PHE280     -0.0042
    149  CD2       83.5570  -44.0640   22.2270 C.ar  280  PHE280     -0.0042
    150  CE1       84.1020  -46.3440   23.5940 C.ar  280  PHE280     -0.0003
    151  CE2       84.6310  -44.8320   21.8820 C.ar  280  PHE280     -0.0003
    152  CZ        84.9020  -45.9770   22.5620 C.ar  280  PHE280     -0.0000
    153  N         82.8310  -41.1420   23.7740 N.am  281  GLY281     -0.1940
    154  CA        83.8410  -40.1530   23.4900 C.3   281  GLY281      0.2014
    155  C         84.8550  -40.6330   22.4990 C.2   281  GLY281      0.2639
    156  O         85.9260  -41.0170   22.8400 O.2   281  GLY281     -0.2714
    157  N         84.5010  -40.5640   21.2390 N.am  282  ARG282     -0.1963
    158  CA        85.3390  -41.0170   20.1610 C.3   282  ARG282      0.1729
    159  C         86.6080  -40.2290   20.0910 C.2   282  ARG282      0.2616
    160  O         87.6280  -40.7350   19.7140 O.2   282  ARG282     -0.2715
    161  CB        84.6130  -40.8990   18.8460 C.3   282  ARG282      0.0348
    162  CG        83.7760  -42.0870   18.5150 C.3   282  ARG282      0.0492
    163  CD        82.8450  -41.7940   17.3810 C.3   282  ARG282      0.2205
    164  NE        83.4790  -42.0760   16.1310 N.pl3 282  ARG282     -0.0865
    165  CZ        83.5980  -43.2780   15.6330 C.cat 282  ARG282      0.5346
    166  NH1       83.1040  -44.2980   16.2820 N.pl3 282  ARG282      0.1354
    167  NH2       84.2110  -43.4540   14.5000 N.pl3 282  ARG282      0.1354
    168  N         86.5000  -38.9550   20.3800 N.am  283  VAL283     -0.1977
    169  CA        87.6210  -38.0470   20.2540 C.3   283  VAL283      0.1596
    170  C         88.7310  -38.4430   21.2220 C.2   283  VAL283      0.2287
    171  O         89.9170  -38.3700   20.8660 O.2   283  VAL283     -0.2864
    172  CB        87.2350  -36.5770   20.4830 C.3   283  VAL283      0.0276
    173  CG1       86.4160  -36.0620   19.3130 C.3   283  VAL283      0.0022
    174  CG2       86.4940  -36.3750   21.7980 C.3   283  VAL283      0.0022
    175  N         90.4780  -41.2900   19.8370 N.3   286  GLU286     -0.1245
    176  CA        91.1290  -40.8620   18.6010 C.3   286  GLU286      0.1567
    177  C         92.4950  -40.1450   18.8750 C.2   286  GLU286      0.2260
    178  O         93.4680  -40.3770   18.2110 O.2   286  GLU286     -0.2867
    179  CB        90.1470  -39.9690   17.8170 C.3   286  GLU286      0.0388
    180  CG        89.1470  -40.7510   16.9570 C.3   286  GLU286      0.1160
    181  CD        87.9990  -39.9000   16.3570 C.2   286  GLU286      0.3649
    182  OE1       87.3270  -40.4040   15.4020 O.co2 286  GLU286     -0.2457
    183  OE2       87.7670  -38.7550   16.8430 O.co2 286  GLU286     -0.2457
@<TRIPOS>BOND
     1   117   114    1
     2   114   113    1
     3   114   115    1
     4   113   104   am
     5   116   115    2
     6   111   110    1
     7   110   109    2
     8   110   112    1
     9   109   108    1
    10    94    93    2
    11     6     7    1
    12     6     5    1
    13   108   107    1
    14   104   103    1
    15   104   105    2
    16    98   100   ar
    17    98    96   ar
    18   103   106    1
    19   103   102    1
    20     7     1    1
    21   100   101   ar
    22     5     2    1
    23    93   102   am
    24    93    92    1
    25     1     2    1
    26   106   107    1
    27    95    96    1
    28    95    92    1
    29    96    97   ar
    30     2     3    1
    31    28    26    1
    32    92    91    1
    33   101    99   ar
    34   118   119    1
    35    97    99   ar
    36    24    23    2
    37     3     4    2
    38     3     8   am
    39    26    27    1
    40    26    25    1
    41    22    21    1
    42    22    23    1
    43    22    25    1
    44   119   120    1
    45   119   122    1
    46   123   125    1
    47   123   122    1
    48   120   121    2
    49     8     9    1
    50   122   124    1
    51    85    84    1
    52    11    10    2
    53     9    10    1
    54    19    18    2
    55   167   165    1
    56    89    90    2
    57    89    88    1
    58    10    12   am
    59    18    17    1
    60    87    88    1
    61    87    82   am
    62    86    84    1
    63    84    81    1
    64   182   181   ar
    65    15    14    2
    66   165   164    2
    67   165   166    1
    68    81    82    1
    69    81    80    1
    70    82    83    2
    71    12    13    1
    72    38    36   ar
    73    38    39   ar
    74   164   163    1
    75    14    16   am
    76    14    13    1
    77    17    16    1
    78    17    20    1
    79   181   183   ar
    80   181   180    1
    81    36    34   ar
    82   180   179    1
    83    39    37   ar
    84   163   162    1
    85    50    47    1
    86    50    51    1
    87    34    33    1
    88    34    35   ar
    89   179   176    1
    90    47    46    1
    91    47    48    1
    92    32    31    2
    93   178   177    2
    94    33    30    1
    95    52    51    1
    96    52    53    1
    97    37    35   ar
    98    46    42   am
    99   162   161    1
   100   176   177    1
   101   176   175    1
   102    30    31    1
   103    30    29    1
   104    31    40   am
   105   161   158    1
   106    48    49    2
   107    43    42    2
   108    42    41    1
   109    53    54    2
   110   173   172    1
   111    40    41    1
   112   160   159    2
   113    41    44    1
   114   159   158    1
   115   159   168   am
   116   158   157    1
   117    54    55    1
   118    54    56    1
   119   169   168    1
   120   169   172    1
   121   169   170    1
   122   172   174    1
   123   171   170    2
   124   157   155   am
   125    44    45    1
   126   151   149   ar
   127   151   152   ar
   128   149   147   ar
   129   155   156    2
   130   155   154    1
   131    78    79    1
   132    78    77    1
   133   152   150   ar
   134    76    77    1
   135    76    75    1
   136   147   146    1
   137   147   148   ar
   138   154   153    1
   139   150   148   ar
   140   146   143    1
   141   153   144   am
   142    75    72    1
   143   134   132   ar
   144    65    66   ar
   145    65    63   ar
   146    68    66   ar
   147    68    70   ar
   148   144   143    1
   149   144   145    2
   150   143   142    1
   151    66    64   ar
   152    63    62   ar
   153   132   133   ar
   154   132   131    1
   155    72    71    1
   156    72    73    1
   157   142   137   am
   158    70    69   ar
   159   139   140    1
   160   139   136    1
   161   140   141    1
   162    71    59   am
   163    74    73    2
   164   141   135    1
   165   131   130    1
   166    64    62   ar
   167    64    67   ar
   168    62    61    1
   169   137   136    1
   170   137   138    2
   171    57    58    1
   172    69    67   ar
   173   136   135    1
   174   135   128   am
   175    59    58    1
   176    59    60    2
   177    58    61    1
   178   130   127    1
   179   128   127    1
   180   128   129    2
   181   127   126    1
