@<TRIPOS>MOLECULE
tmp/4xsvA00.pdb
 158 156 0 0 0
SMALL
GASTEIGER

@<TRIPOS>ATOM
      1  N        -19.3600  -10.0320  -15.7490 N.3   173  ALA173     -0.1231
      2  CA       -18.4020   -9.6470  -14.7120 C.3   173  ALA173      0.1694
      3  C        -18.4070   -8.1570  -14.3540 C.2   173  ALA173      0.2593
      4  O        -18.7580   -7.3130  -15.1480 O.2   173  ALA173     -0.2718
      5  CB       -17.0020  -10.0430  -15.1470 C.3   173  ALA173      0.0304
      6  N        -17.9760   -7.8390  -13.1380 N.am  174  GLY174     -0.1942
      7  CA       -17.7250   -6.4660  -12.7580 C.3   174  GLY174      0.2014
      8  C        -17.7080   -6.2510  -11.2650 C.2   174  GLY174      0.2639
      9  O        -17.5190   -7.1810  -10.4990 O.2   174  GLY174     -0.2714
     10  N        -17.9130   -5.0050  -10.8610 N.am  175  ALA175     -0.1963
     11  CA       -17.9420   -4.6580   -9.4560 C.3   175  ALA175      0.1728
     12  C        -19.2470   -5.0950   -8.7760 C.2   175  ALA175      0.2616
     13  O        -19.2130   -5.6220   -7.6790 O.2   175  ALA175     -0.2715
     14  CB       -17.7500   -3.1520   -9.2850 C.3   175  ALA175      0.0334
     15  N        -20.3880   -4.8460   -9.4030 N.am  176  PHE176     -0.1960
     16  CA       -21.6940   -5.1340   -8.7860 C.3   176  PHE176      0.1771
     17  C        -21.8660   -4.5380   -7.3600 C.2   176  PHE176      0.2619
     18  O        -22.5650   -5.1140   -6.5110 O.2   176  PHE176     -0.2715
     19  CB       -21.9910   -6.6550   -8.8200 C.3   176  PHE176      0.0574
     20  CG       -22.1950   -7.1950  -10.2110 C.ar  176  PHE176     -0.0200
     21  CD1      -23.3870   -6.9300  -10.9080 C.ar  176  PHE176     -0.0042
     22  CD2      -21.1900   -7.9200  -10.8530 C.ar  176  PHE176     -0.0042
     23  CE1      -23.5720   -7.4040  -12.1940 C.ar  176  PHE176     -0.0003
     24  CE2      -21.3730   -8.3850  -12.1580 C.ar  176  PHE176     -0.0003
     25  CZ       -22.5580   -8.1220  -12.8260 C.ar  176  PHE176     -0.0000
     26  N        -21.2490   -3.3650   -7.1470 N.am  177  ASP177     -0.1971
     27  CA       -21.2780   -2.6140   -5.8730 C.3   177  ASP177      0.1709
     28  C        -22.6400   -1.8890   -5.6990 C.2   177  ASP177      0.2293
     29  O        -23.1210   -1.2020   -6.6110 O.2   177  ASP177     -0.2864
     30  CB       -20.1310   -1.5850   -5.8690 C.3   177  ASP177      0.1436
     31  CG       -19.7030   -1.1320   -4.4580 C.2   177  ASP177      0.3671
     32  OD1      -20.1350   -1.7440   -3.4600 O.co2 177  ASP177     -0.2456
     33  OD2      -18.8840   -0.1600   -4.3570 O.co2 177  ASP177     -0.2456
     34  N        -28.0600   -2.8100   -7.8390 N.3   180  HIS180     -0.1241
     35  CA       -29.1480   -1.8710   -8.1130 C.3   180  HIS180      0.1621
     36  C        -29.8550   -2.1860   -9.4260 C.2   180  HIS180      0.2264
     37  O        -29.4540   -3.0400  -10.2200 O.2   180  HIS180     -0.2867
     38  CB       -28.6150   -0.4200   -8.1670 C.3   180  HIS180      0.0745
     39  CG       -27.4380   -0.2270   -9.0730 C.ar  180  HIS180      0.0817
     40  ND1      -27.5580   -0.1480  -10.4420 N.ar  180  HIS180     -0.2268
     41  CD2      -26.1180   -0.0810   -8.8020 C.ar  180  HIS180      0.1154
     42  CE1      -26.3660    0.0410  -10.9770 C.ar  180  HIS180      0.1986
     43  NE2      -25.4710    0.0720  -10.0050 N.ar  180  HIS180     -0.2212
     44  N        -30.0420   -0.9530  -12.2490 N.3   182  GLY182     -0.1210
     45  CA       -29.2350   -0.9750  -13.4670 C.3   182  GLY182      0.1956
     46  C        -28.6380   -2.3330  -13.7580 C.2   182  GLY182      0.2611
     47  O        -28.6780   -2.8010  -14.8970 O.2   182  GLY182     -0.2717
     48  N        -28.0840   -2.9670  -12.7280 N.am  183  HIS183     -0.1975
     49  CA       -27.5830   -4.3410  -12.8310 C.3   183  HIS183      0.1656
     50  C        -28.7140   -5.3180  -13.0610 C.2   183  HIS183      0.2291
     51  O        -28.5510   -6.3030  -13.7520 O.2   183  HIS183     -0.2864
     52  CB       -26.9020   -4.8050  -11.5400 C.3   183  HIS183      0.0771
     53  CG       -25.7120   -4.0010  -11.1400 C.ar  183  HIS183      0.0820
     54  ND1      -25.5620   -3.4920   -9.8710 N.ar  183  HIS183     -0.2267
     55  CD2      -24.6030   -3.6490  -11.8230 C.ar  183  HIS183      0.1154
     56  CE1      -24.4150   -2.8530   -9.7890 C.ar  183  HIS183      0.1986
     57  NE2      -23.8250   -2.9160  -10.9660 N.ar  183  HIS183     -0.2212
     58  N        -29.7600   -4.9460  -16.7050 N.3   186  PHE186     -0.1241
     59  CA       -28.7220   -5.5920  -17.5210 C.3   186  PHE186      0.1605
     60  C        -28.8420   -7.1160  -17.5300 C.2   186  PHE186      0.2264
     61  O        -28.8630   -7.7640  -18.5850 O.2   186  PHE186     -0.2867
     62  CB       -27.3460   -5.2320  -16.9690 C.3   186  PHE186      0.0534
     63  CG       -26.2220   -6.0820  -17.5240 C.ar  186  PHE186     -0.0203
     64  CD1      -25.9990   -6.1520  -18.8840 C.ar  186  PHE186     -0.0042
     65  CD2      -25.3660   -6.7720  -16.6770 C.ar  186  PHE186     -0.0042
     66  CE1      -24.9660   -6.9010  -19.3880 C.ar  186  PHE186     -0.0003
     67  CE2      -24.3190   -7.5090  -17.1840 C.ar  186  PHE186     -0.0003
     68  CZ       -24.1250   -7.5790  -18.5410 C.ar  186  PHE186     -0.0000
     69  N         -9.2510    0.3220   -9.9100 N.3   212  TYR212     -0.1241
     70  CA        -9.8750    0.8810  -11.1170 C.3   212  TYR212      0.1605
     71  C        -11.0270    1.8960  -10.8360 C.2   212  TYR212      0.2264
     72  O        -11.5430    2.5290  -11.7550 O.2   212  TYR212     -0.2867
     73  CB       -10.2570   -0.2590  -12.1260 C.3   212  TYR212      0.0534
     74  CG       -11.5200   -1.1380  -11.8770 C.ar  212  TYR212     -0.0201
     75  CD1      -12.8010   -0.6200  -12.0340 C.ar  212  TYR212     -0.0009
     76  CD2      -11.4130   -2.5110  -11.5930 C.ar  212  TYR212     -0.0009
     77  CE1      -13.9240   -1.4110  -11.8560 C.ar  212  TYR212      0.0417
     78  CE2      -12.5390   -3.3060  -11.4040 C.ar  212  TYR212      0.0417
     79  CZ       -13.7890   -2.7460  -11.5420 C.ar  212  TYR212      0.1957
     80  OH       -14.9310   -3.4750  -11.3890 O.3   212  TYR212     -0.2866
     81  N        -21.1630  -11.3240  -21.9320 N.3   260  CYS260     -0.1221
     82  CA       -21.7470  -10.0120  -22.1380 C.3   260  CYS260      0.1808
     83  C        -21.1860   -8.9570  -21.2490 C.2   260  CYS260      0.2601
     84  O        -20.7250   -9.2310  -20.1620 O.2   260  CYS260     -0.2717
     85  CB       -23.2330  -10.0540  -21.8740 C.3   260  CYS260      0.0970
     86  SG       -24.0770  -11.3520  -22.7690 S.3   260  CYS260     -0.0800
     87  N        -21.2650   -7.7290  -21.7360 N.am  261  HIS261     -0.1961
     88  CA       -21.0310   -6.5150  -20.9480 C.3   261  HIS261      0.1787
     89  C        -22.1090   -5.5400  -21.3960 C.2   261  HIS261      0.2621
     90  O        -22.6410   -5.6570  -22.5120 O.2   261  HIS261     -0.2715
     91  CB       -19.6150   -5.9500  -21.1990 C.3   261  HIS261      0.0785
     92  CG       -19.2820   -4.7490  -20.3700 C.ar  261  HIS261      0.0821
     93  ND1      -18.6030   -4.8380  -19.1700 N.ar  261  HIS261     -0.2267
     94  CD2      -19.5420   -3.4300  -20.5610 C.ar  261  HIS261      0.1154
     95  CE1      -18.4630   -3.6250  -18.6570 C.ar  261  HIS261      0.1986
     96  NE2      -19.0260   -2.7540  -19.4770 N.ar  261  HIS261     -0.2212
     97  N        -22.4550   -4.6060  -20.5160 N.am  262  GLY262     -0.1940
     98  CA       -23.4680   -3.6000  -20.8090 C.3   262  GLY262      0.2014
     99  C        -22.8910   -2.3940  -21.5340 C.2   262  GLY262      0.2639
    100  O        -21.8020   -2.4570  -22.0810 O.2   262  GLY262     -0.2714
    101  N        -23.6100   -1.2750  -21.5200 N.am  263  LYS263     -0.1963
    102  CA       -23.1950   -0.1180  -22.2930 C.3   263  LYS263      0.1728
    103  C        -22.2910    0.8210  -21.5140 C.2   263  LYS263      0.2616
    104  O        -21.9880    1.8860  -21.9900 O.2   263  LYS263     -0.2715
    105  CB       -24.4100    0.6390  -22.8160 C.3   263  LYS263      0.0311
    106  CG       -24.2540    1.1000  -24.2540 C.3   263  LYS263      0.0038
    107  CD       -24.4460   -0.0750  -25.2110 C.3   263  LYS263      0.0206
    108  CE       -24.3630    0.3440  -26.6800 C.3   263  LYS263      0.1093
    109  NZ       -25.1690   -0.5600  -27.5590 N.3   263  LYS263     -0.1314
    110  N        -21.8580    0.4290  -20.3240 N.am  264  THR264     -0.1951
    111  CA       -20.9170    1.2290  -19.5470 C.3   264  THR264      0.1897
    112  C        -19.5240    1.1410  -20.1400 C.2   264  THR264      0.2313
    113  O        -19.2430    0.2610  -20.9480 O.2   264  THR264     -0.2863
    114  CB       -20.8000    0.7450  -18.0960 C.3   264  THR264      0.1794
    115  OG1      -20.3190   -0.6040  -18.0690 O.3   264  THR264     -0.2208
    116  CG2      -22.1240    0.8370  -17.4100 C.3   264  THR264      0.0378
    117  N        -28.7870   -2.1820  -21.1880 N.3   290  SER290     -0.1217
    118  CA       -29.7150   -2.3050  -20.0450 C.3   290  SER290      0.1889
    119  C        -30.9020   -1.3830  -20.1790 C.2   290  SER290      0.2288
    120  O        -31.9960   -1.7060  -19.7200 O.2   290  SER290     -0.2866
    121  CB       -29.0130   -2.0290  -18.6980 C.3   290  SER290      0.2089
    122  OG       -28.3890   -0.7470  -18.6080 O.3   290  SER290     -0.2183
    123  N        -30.6960    1.3750  -18.5470 N.3   292  SER292     -0.1202
    124  CA       -30.5060    2.2180  -17.3620 C.3   292  SER292      0.2020
    125  C        -29.2040    2.9480  -17.4190 C.2   292  SER292      0.2619
    126  O        -28.2050    2.4380  -17.9230 O.2   292  SER292     -0.2717
    127  CB       -30.5260    1.4080  -16.0600 C.3   292  SER292      0.2103
    128  OG       -30.5630    2.2700  -14.9140 O.3   292  SER292     -0.2182
    129  N        -29.1990    4.1250  -16.8280 N.am  293  ASN293     -0.1960
    130  CA       -27.9760    4.9330  -16.7140 C.3   293  ASN293      0.1819
    131  C        -27.4000    4.9160  -15.2860 C.2   293  ASN293      0.2621
    132  O        -26.3750    5.5430  -15.0130 O.2   293  ASN293     -0.2715
    133  CB       -28.2460    6.3650  -17.1930 C.3   293  ASN293      0.1195
    134  CG       -29.5200    6.9520  -16.6080 C.2   293  ASN293      0.2630
    135  OD1      -30.2010    6.3290  -15.7900 O.2   293  ASN293     -0.2716
    136  ND2      -29.8500    8.1550  -17.0280 N.am  293  ASN293     -0.0877
    137  N        -28.0400    4.1510  -14.4040 N.am  294  LEU294     -0.1963
    138  CA       -27.7100    4.1490  -12.9780 C.3   294  LEU294      0.1728
    139  C        -26.3710    3.4770  -12.6580 C.2   294  LEU294      0.2617
    140  O        -26.0740    2.3980  -13.1450 O.2   294  LEU294     -0.2715
    141  CB       -28.8310    3.4600  -12.2120 C.3   294  LEU294      0.0311
    142  CG       -28.8890    3.6620  -10.7020 C.3   294  LEU294      0.0022
    143  CD1      -29.0490    5.1400  -10.3440 C.3   294  LEU294      0.0001
    144  CD2      -30.0240    2.8160  -10.1290 C.3   294  LEU294      0.0001
    145  N        -25.5650    4.1270  -11.8350 N.am  295  THR295     -0.1937
    146  CA       -24.2650    3.6040  -11.4390 C.3   295  THR295      0.2028
    147  C        -24.1050    3.7800   -9.9520 C.2   295  THR295      0.2642
    148  O        -24.8470    4.5100   -9.3160 O.2   295  THR295     -0.2714
    149  CB       -23.1210    4.3870  -12.0980 C.3   295  THR295      0.1808
    150  OG1      -23.2230    5.7710  -11.7540 O.3   295  THR295     -0.2208
    151  CG2      -23.1840    4.2580  -13.6140 C.3   295  THR295      0.0379
    152  N        -23.1000    3.1330   -9.3980 N.am  296  THR296     -0.1950
    153  CA       -22.8070    3.2750   -7.9890 C.3   296  THR296      0.1897
    154  C        -22.5440    4.7390   -7.6380 C.2   296  THR296      0.2313
    155  O        -22.9850    5.1960   -6.5890 O.2   296  THR296     -0.2863
    156  CB       -21.6350    2.3510   -7.5900 C.3   296  THR296      0.1794
    157  OG1      -21.8850    1.0330   -8.0950 O.3   296  THR296     -0.2208
    158  CG2      -21.4910    2.2510   -6.1080 C.3   296  THR296      0.0378
@<TRIPOS>BOND
     1   109   108    1
     2   108   107    1
     3   107   106    1
     4   106   105    1
     5   105   102    1
     6    86    85    1
     7    90    89    2
     8   102   101    1
     9   102   103    1
    10    82    81    1
    11    82    85    1
    12    82    83    1
    13   100    99    2
    14   104   103    2
    15    87    83   am
    16    87    88    1
    17    99   101   am
    18    99    98    1
    19   103   110   am
    20    89    88    1
    21    89    97   am
    22    83    84    2
    23    91    88    1
    24    91    92    1
    25   117   118    1
    26   113   112    2
    27    98    97    1
    28    94    92   ar
    29    94    96   ar
    30    92    93   ar
    31   110   111    1
    32   119   118    1
    33   119   120    2
    34   112   111    1
    35   118   121    1
    36   111   114    1
    37    96    95   ar
    38    66    64   ar
    39    66    68   ar
    40    93    95   ar
    41    64    63   ar
    42   121   122    1
    43    61    60    2
    44   123   124    1
    45    68    67   ar
    46   114   115    1
    47   114   116    1
    48   126   125    2
    49    60    59    1
    50    63    62    1
    51    63    65   ar
    52    59    62    1
    53    59    58    1
    54   125   124    1
    55   125   129   am
    56   124   127    1
    57   133   130    1
    58   133   134    1
    59    67    65   ar
    60   136   134   am
    61   129   130    1
    62   130   131    1
    63   134   135    2
    64   127   128    1
    65     1     2    1
    66   131   132    2
    67   131   137   am
    68     4     3    2
    69     5     2    1
    70    47    46    2
    71     2     3    1
    72   137   138    1
    73     3     6   am
    74    46    45    1
    75    46    48   am
    76    51    50    2
    77   151   149    1
    78    45    44    1
    79   140   139    2
    80     6     7    1
    81    50    49    1
    82   138   139    1
    83   138   141    1
    84    49    48    1
    85    49    52    1
    86    25    23   ar
    87    25    24   ar
    88     7     8    1
    89   139   145   am
    90   141   142    1
    91    23    21   ar
    92    24    22   ar
    93    73    74    1
    94    73    70    1
    95   149   150    1
    96   149   146    1
    97    75    74   ar
    98    75    77   ar
    99    74    76   ar
   100    77    79   ar
   101   145   146    1
   102    55    53   ar
   103    55    57   ar
   104    72    71    2
   105    76    78   ar
   106    79    78   ar
   107    79    80    1
   108    52    53    1
   109   146   147    1
   110     8    10   am
   111     8     9    2
   112    53    54   ar
   113    70    71    1
   114    70    69    1
   115    42    40   ar
   116    42    43   ar
   117    57    56   ar
   118    21    20   ar
   119    10    11    1
   120    22    20   ar
   121   142   143    1
   122   142   144    1
   123    40    39   ar
   124    37    36    2
   125    20    19    1
   126    43    41   ar
   127   147   152   am
   128   147   148    2
   129    54    56   ar
   130    11    14    1
   131    11    12    1
   132    36    35    1
   133    15    16    1
   134    15    12   am
   135   152   153    1
   136    39    41   ar
   137    39    38    1
   138    19    16    1
   139    16    17    1
   140    12    13    2
   141    38    35    1
   142    35    34    1
   143   157   156    1
   144   153   154    1
   145   153   156    1
   146   154   155    2
   147   156   158    1
   148    17    26   am
   149    17    18    2
   150    26    27    1
   151    29    28    2
   152    27    30    1
   153    27    28    1
   154    30    31    1
   155    31    33   ar
   156    31    32   ar
