@<TRIPOS>MOLECULE
tmp/4xsvA01.pdb
 164 160 0 0 0
SMALL
GASTEIGER

@<TRIPOS>ATOM
      1  N        -44.3540   -6.0530    3.9950 N.3    10  ASP10      -0.1225
      2  CA       -44.3080   -4.7310    3.3640 C.3    10  ASP10       0.1805
      3  C        -43.2560   -3.7910    3.9310 C.2    10  ASP10       0.2598
      4  O        -42.7370   -4.0170    5.0050 O.2    10  ASP10      -0.2718
      5  CB       -45.6950   -4.0550    3.3620 C.3    10  ASP10       0.1424
      6  CG       -46.3030   -3.9300    4.7320 C.2    10  ASP10       0.3668
      7  OD1      -45.7110   -3.2800    5.6100 O.co2  10  ASP10      -0.2456
      8  OD2      -47.4160   -4.4460    4.9200 O.co2  10  ASP10      -0.2456
      9  N        -42.9770   -2.7140    3.2000 N.am   11  GLY11      -0.1942
     10  CA       -41.9720   -1.7380    3.5920 C.3    11  GLY11       0.2014
     11  C        -41.6790   -0.7880    2.4470 C.2    11  GLY11       0.2639
     12  O        -42.3370   -0.8510    1.4060 O.2    11  GLY11      -0.2714
     13  N        -40.6900    0.0940    2.6400 N.am   12  CYS12      -0.1953
     14  CA       -40.2900    1.0750    1.6240 C.3    12  CYS12       0.1843
     15  C        -39.3230    0.4420    0.6580 C.2    12  CYS12       0.2625
     16  O        -39.3620    0.7520   -0.5210 O.2    12  CYS12      -0.2714
     17  CB       -39.6060    2.2890    2.2420 C.3    12  CYS12       0.0997
     18  SG       -40.5120    3.1120    3.5660 S.3    12  CYS12      -0.0797
     19  N        -38.4520   -0.4370    1.1560 N.am   13  TYR13      -0.1960
     20  CA       -37.4980   -1.1180    0.3190 C.3    13  TYR13       0.1771
     21  C        -36.7440   -0.0860   -0.5100 C.2    13  TYR13       0.2619
     22  O        -36.6190   -0.1820   -1.7310 O.2    13  TYR13      -0.2715
     23  CB       -38.2180   -2.1790   -0.5310 C.3    13  TYR13       0.0574
     24  CG       -38.8210   -3.2820    0.3180 C.ar   13  TYR13      -0.0198
     25  CD1      -38.0110   -4.2950    0.8560 C.ar   13  TYR13      -0.0009
     26  CD2      -40.1870   -3.3060    0.6050 C.ar   13  TYR13      -0.0009
     27  CE1      -38.5430   -5.2820    1.6600 C.ar   13  TYR13       0.0417
     28  CE2      -40.7300   -4.2990    1.4030 C.ar   13  TYR13       0.0417
     29  CZ       -39.9020   -5.2820    1.9240 C.ar   13  TYR13       0.1957
     30  OH       -40.4250   -6.2660    2.7130 O.3    13  TYR13      -0.2866
     31  N        -36.2390    0.9190    0.1970 N.am   14  ASP14      -0.1971
     32  CA       -35.6230    2.1080   -0.4090 C.3    14  ASP14       0.1709
     33  C        -34.1200    1.9330   -0.3820 C.2    14  ASP14       0.2293
     34  O        -33.5020    2.1550    0.6350 O.2    14  ASP14      -0.2864
     35  CB       -36.0460    3.3660    0.3700 C.3    14  ASP14       0.1436
     36  CG       -35.6350    4.6800   -0.3120 C.2    14  ASP14       0.3671
     37  OD1      -35.2480    4.7000   -1.5160 O.co2  14  ASP14      -0.2456
     38  OD2      -35.7320    5.7140    0.3910 O.co2  14  ASP14      -0.2456
     39  N        -30.7470   -3.8260   -0.0850 N.3    17  HIS17      -0.1241
     40  CA       -29.4820   -4.4520    0.2540 C.3    17  HIS17       0.1621
     41  C        -29.7710   -5.8650    0.7580 C.2    17  HIS17       0.2264
     42  O        -30.9160   -6.2150    0.9670 O.2    17  HIS17      -0.2867
     43  CB       -28.7480   -3.6190    1.3030 C.3    17  HIS17       0.0745
     44  CG       -29.5730   -3.2890    2.5160 C.ar   17  HIS17       0.0817
     45  ND1      -29.9350   -4.2320    3.4580 N.ar   17  HIS17      -0.2268
     46  CD2      -30.0600   -2.1080    2.9670 C.ar   17  HIS17       0.1154
     47  CE1      -30.6140   -3.6500    4.4280 C.ar   17  HIS17       0.1986
     48  NE2      -30.6970   -2.3590    4.1590 N.ar   17  HIS17      -0.2212
     49  N        -29.7750   -7.3480    3.5160 N.3    19  GLY19      -0.1210
     50  CA       -30.6890   -7.4600    4.6400 C.3    19  GLY19       0.1956
     51  C        -32.1590   -7.4810    4.2130 C.2    19  GLY19       0.2611
     52  O        -32.9860   -8.2760    4.7160 O.2    19  GLY19      -0.2717
     53  N        -32.5280   -6.6040    3.2940 N.am   20  HIS20      -0.1975
     54  CA       -33.8710   -6.7110    2.7530 C.3    20  HIS20       0.1656
     55  C        -34.0360   -8.1000    2.1660 C.2    20  HIS20       0.2291
     56  O        -35.0320   -8.7530    2.4120 O.2    20  HIS20      -0.2864
     57  CB       -34.1570   -5.6260    1.7320 C.3    20  HIS20       0.0771
     58  CG       -34.1100   -4.2460    2.3110 C.ar   20  HIS20       0.0820
     59  ND1      -33.1280   -3.3330    1.9970 N.ar   20  HIS20      -0.2267
     60  CD2      -34.9100   -3.6350    3.2080 C.ar   20  HIS20       0.1154
     61  CE1      -33.3330   -2.2130    2.6590 C.ar   20  HIS20       0.1986
     62  NE2      -34.4090   -2.3720    3.4020 N.ar   20  HIS20      -0.2212
     63  N        -34.3600  -10.9350    4.7360 N.3    23  GLN23      -0.1245
     64  CA       -35.6590  -10.9310    5.3990 C.3    23  GLN23       0.1566
     65  C        -36.7270  -11.5120    4.4780 C.2    23  GLN23       0.2260
     66  O        -37.6190  -12.2270    4.9540 O.2    23  GLN23      -0.2867
     67  CB       -36.0260   -9.5580    5.9660 C.3    23  GLN23       0.0367
     68  CG       -36.8180   -8.6240    5.0720 C.3    23  GLN23       0.0905
     69  CD       -38.2580   -8.3970    5.5280 C.2    23  GLN23       0.2608
     70  OE1      -39.1520   -8.1860    4.6970 O.2    23  GLN23      -0.2717
     71  NE2      -38.4850   -8.4050    6.8460 N.am   23  GLN23      -0.0878
     72  N        -42.0930    9.5900    6.9500 N.3    48  LYS48      -0.1245
     73  CA       -40.6770    9.9950    6.9780 C.3    48  LYS48       0.1561
     74  C        -40.4650   11.0890    5.9270 C.2    48  LYS48       0.2260
     75  O        -41.4260   11.5980    5.3470 O.2    48  LYS48      -0.2867
     76  CB       -39.7460    8.8370    6.5870 C.3    48  LYS48       0.0271
     77  CG       -40.1080    7.4360    7.0560 C.3    48  LYS48       0.0035
     78  CD       -39.5560    6.3820    6.0880 C.3    48  LYS48       0.0206
     79  CE       -39.1100    5.1020    6.7800 C.3    48  LYS48       0.1093
     80  NZ       -37.7370    5.2920    7.3290 N.3    48  LYS48      -0.1314
     81  N        -42.4710   -9.3640    9.8460 N.3    94  HIS94      -0.1226
     82  CA       -41.6160   -8.2030   10.0020 C.3    94  HIS94       0.1752
     83  C        -40.3690   -8.5760   10.8130 C.2    94  HIS94       0.2597
     84  O        -40.3520   -9.6030   11.5160 O.2    94  HIS94      -0.2718
     85  CB       -42.3980   -7.0790   10.6880 C.3    94  HIS94       0.0759
     86  CG       -43.5480   -6.5680    9.8770 C.ar   94  HIS94       0.0818
     87  ND1      -43.3800   -5.9420    8.6560 N.ar   94  HIS94      -0.2268
     88  CD2      -44.8860   -6.5950   10.1030 C.ar   94  HIS94       0.1154
     89  CE1      -44.5640   -5.6100    8.1670 C.ar   94  HIS94       0.1986
     90  NE2      -45.4940   -5.9890    9.0290 N.ar   94  HIS94      -0.2212
     91  N        -39.3280   -7.7430   10.7020 N.am   95  GLY95      -0.1942
     92  CA       -38.1530   -7.8130   11.5890 C.3    95  GLY95       0.2014
     93  C        -38.6070   -7.3420   12.9510 C.2    95  GLY95       0.2639
     94  O        -39.6380   -6.7100   13.0370 O.2    95  GLY95      -0.2714
     95  N        -37.8540   -7.6140   14.0120 N.am   96  ASN96      -0.1958
     96  CA       -38.3560   -7.3820   15.3930 C.3    96  ASN96       0.1819
     97  C        -38.1320   -5.9870   16.0460 C.2    96  ASN96       0.2621
     98  O        -37.5980   -5.9130   17.1380 O.2    96  ASN96      -0.2715
     99  CB       -37.7750   -8.4610   16.3090 C.3    96  ASN96       0.1195
    100  CG       -36.2710   -8.3530   16.4350 C.2    96  ASN96       0.2630
    101  OD1      -35.5120   -9.0120   15.7080 O.2    96  ASN96      -0.2716
    102  ND2      -35.8290   -7.4880   17.3300 N.am   96  ASN96      -0.0877
    103  N        -38.5780   -4.9010   15.4210 N.am   97  ASP97      -0.1971
    104  CA       -38.3930   -3.5540   15.9960 C.3    97  ASP97       0.1709
    105  C        -39.4090   -3.2270   17.0970 C.2    97  ASP97       0.2293
    106  O        -40.4060   -3.9310   17.2670 O.2    97  ASP97      -0.2864
    107  CB       -38.4720   -2.4590   14.9080 C.3    97  ASP97       0.1436
    108  CG       -37.3440   -2.5540   13.8760 C.2    97  ASP97       0.3671
    109  OD1      -37.0160   -3.6770   13.4110 O.co2  97  ASP97      -0.2456
    110  OD2      -36.8010   -1.4880   13.5120 O.co2  97  ASP97      -0.2456
    111  N        -35.4020  -12.5800   12.4090 N.3   121  LYS121     -0.1231
    112  CA       -34.2690  -11.8740   12.9850 C.3   121  LYS121      0.1693
    113  C        -33.7470  -10.8450   11.9890 C.2   121  LYS121      0.2592
    114  O        -33.7560  -11.0750   10.8010 O.2   121  LYS121     -0.2718
    115  CB       -33.1150  -12.8320   13.3560 C.3   121  LYS121      0.0285
    116  CG       -33.3840  -14.3330   13.2330 C.3   121  LYS121      0.0035
    117  CD       -32.0850  -15.1020   13.4400 C.3   121  LYS121      0.0206
    118  CE       -32.3240  -16.6020   13.4190 C.3   121  LYS121      0.1093
    119  NZ       -31.1110  -17.3280   13.8850 N.3   121  LYS121     -0.1314
    120  N        -33.2700   -9.7250   12.5040 N.am  122  ARG122     -0.1966
    121  CA       -32.4740   -8.7650   11.7320 C.3   122  ARG122      0.1729
    122  C        -31.2020   -9.3970   11.1400 C.2   122  ARG122      0.2616
    123  O        -30.5660  -10.2300   11.7680 O.2   122  ARG122     -0.2715
    124  CB       -32.0830   -7.5950   12.6450 C.3   122  ARG122      0.0348
    125  CG       -31.4340   -6.4320   11.9360 C.3   122  ARG122      0.0492
    126  CD       -31.2750   -5.2350   12.8680 C.3   122  ARG122      0.2205
    127  NE       -30.9370   -4.0130   12.1190 N.pl3 122  ARG122     -0.0865
    128  CZ       -31.8210   -3.2160   11.4960 C.cat 122  ARG122      0.5346
    129  NH1      -33.1480   -3.4760   11.5280 N.pl3 122  ARG122      0.1354
    130  NH2      -31.3740   -2.1440   10.8350 N.pl3 122  ARG122      0.1354
    131  N        -30.8430   -8.9890    9.9300 N.am  123  THR123     -0.1951
    132  CA       -29.6060   -9.4210    9.2840 C.3   123  THR123      0.1897
    133  C        -28.4160   -8.6670    9.8480 C.2   123  THR123      0.2313
    134  O        -28.4360   -7.4330    9.9680 O.2   123  THR123     -0.2863
    135  CB       -29.6370   -9.1930    7.7560 C.3   123  THR123      0.1794
    136  OG1      -30.8620   -9.6880    7.2160 O.3   123  THR123     -0.2208
    137  CG2      -28.5300   -9.9190    7.0720 C.3   123  THR123      0.0378
    138  N        -25.3340   -5.0290    8.1590 N.3   126  VAL126     -0.1231
    139  CA       -25.8190   -4.0080    7.1930 C.3   126  VAL126      0.1692
    140  C        -27.0920   -3.2630    7.5790 C.2   126  VAL126      0.2593
    141  O        -27.9660   -3.8080    8.2300 O.2   126  VAL126     -0.2718
    142  CB       -26.0460   -4.6400    5.7890 C.3   126  VAL126      0.0266
    143  CG1      -27.2940   -5.5360    5.7650 C.3   126  VAL126      0.0020
    144  CG2      -26.1430   -3.5860    4.6910 C.3   126  VAL126      0.0020
    145  N        -27.1840   -2.0100    7.1390 N.am  127  SER127     -0.1938
    146  CA       -28.4120   -1.2210    7.2570 C.3   127  SER127      0.2055
    147  C        -28.2760   -0.0600    6.3250 C.2   127  SER127      0.2644
    148  O        -27.1700    0.2360    5.9060 O.2   127  SER127     -0.2714
    149  CB       -28.6120   -0.7120    8.6700 C.3   127  SER127      0.2130
    150  OG       -27.5440    0.1110    9.1080 O.3   127  SER127     -0.2179
    151  N        -29.3730    0.6020    5.9830 N.am  128  THR128     -0.1936
    152  CA       -29.2990    1.6790    5.0060 C.3   128  THR128      0.2028
    153  C        -28.3890    2.7770    5.5620 C.2   128  THR128      0.2642
    154  O        -27.6090    3.3800    4.8290 O.2   128  THR128     -0.2714
    155  CB       -30.6790    2.2790    4.6600 C.3   128  THR128      0.1808
    156  OG1      -31.2960    2.7530    5.8550 O.3   128  THR128     -0.2208
    157  CG2      -31.6150    1.2560    4.0000 C.3   128  THR128      0.0379
    158  N        -28.4940    3.0200    6.8630 N.am  129  THR129     -0.1950
    159  CA       -27.7400    4.0710    7.5280 C.3   129  THR129      0.1897
    160  C        -26.2520    3.7880    7.4870 C.2   129  THR129      0.2313
    161  O        -25.4540    4.6610    7.1990 O.2   129  THR129     -0.2863
    162  CB       -28.1620    4.1820    8.9980 C.3   129  THR129      0.1794
    163  OG1      -29.5610    4.4780    9.0850 O.3   129  THR129     -0.2208
    164  CG2      -27.3780    5.2770    9.6750 C.3   129  THR129      0.0378
@<TRIPOS>BOND
     1    22    21    2
     2    37    36   ar
     3    23    24    1
     4    23    20    1
     5    16    15    2
     6    21    31   am
     7    21    20    1
     8    32    33    1
     9    32    31    1
    10    32    35    1
    11    33    34    2
    12    36    35    1
    13    36    38   ar
    14    39    40    1
    15    40    41    1
    16    40    43    1
    17    24    26   ar
    18    24    25   ar
    19    20    19    1
    20    26    28   ar
    21    15    19   am
    22    15    14    1
    23    41    42    2
    24    25    27   ar
    25    43    44    1
    26    28    29   ar
    27    12    11    2
    28    14    17    1
    29    14    13    1
    30    27    29   ar
    31    57    58    1
    32    57    54    1
    33    29    30    1
    34    59    58   ar
    35    59    61   ar
    36    55    56    2
    37    55    54    1
    38    17    18    1
    39    58    60   ar
    40    11    13   am
    41    11    10    1
    42    44    46   ar
    43    44    45   ar
    44    61    62   ar
    45    54    53    1
    46    46    48   ar
    47     9    10    1
    48     9     3   am
    49    60    62   ar
    50    53    51   am
    51     5     2    1
    52     5     6    1
    53     2     3    1
    54     2     1    1
    55    45    47   ar
    56    49    50    1
    57     3     4    2
    58   157   155    1
    59    48    47   ar
    60    51    50    1
    61    51    52    2
    62    65    66    2
    63    65    64    1
    64   155   152    1
    65   155   156    1
    66   144   142    1
    67    70    69    2
    68     6     8   ar
    69     6     7   ar
    70    63    64    1
    71   154   153    2
    72   152   153    1
    73   152   151    1
    74    68    69    1
    75    68    67    1
    76    75    74    2
    77    64    67    1
    78    69    71   am
    79   153   158   am
    80   143   142    1
    81   142   139    1
    82   148   147    2
    83    74    73    1
    84   151   147   am
    85    78    79    1
    86    78    77    1
    87   147   146    1
    88    76    73    1
    89    76    77    1
    90    79    80    1
    91   158   159    1
    92    72    73    1
    93   137   135    1
    94   145   146    1
    95   145   140   am
    96   139   140    1
    97   139   138    1
    98   161   160    2
    99   136   135    1
   100   146   149    1
   101   160   159    1
   102   159   162    1
   103   140   141    2
   104   135   132    1
   105    89    87   ar
   106    89    90   ar
   107    87    86   ar
   108   149   150    1
   109   162   163    1
   110   162   164    1
   111    90    88   ar
   112   132   133    1
   113   132   131    1
   114    81    82    1
   115   133   134    2
   116    86    88   ar
   117    86    85    1
   118   131   122   am
   119    82    85    1
   120    82    83    1
   121    91    83   am
   122    91    92    1
   123   114   113    2
   124    83    84    2
   125   130   128    1
   126   122   121    1
   127   122   123    2
   128   128   129    1
   129   128   127    2
   130    92    93    1
   131   121   120    1
   132   121   124    1
   133   125   124    1
   134   125   126    1
   135   113   120   am
   136   113   112    1
   137   127   126    1
   138   111   112    1
   139    93    94    2
   140    93    95   am
   141   112   115    1
   142   116   115    1
   143   116   117    1
   144   109   108   ar
   145   118   117    1
   146   118   119    1
   147   110   108   ar
   148   108   107    1
   149    95    96    1
   150   107   104    1
   151    96    97    1
   152    96    99    1
   153   103   104    1
   154   103    97   am
   155   101   100    2
   156   104   105    1
   157    97    98    2
   158    99   100    1
   159   100   102   am
   160   105   106    2
