@<TRIPOS>MOLECULE
tmp/4xt0A02.pdb
 107 103 0 0 0
SMALL
GASTEIGER

@<TRIPOS>ATOM
      1  N         67.5410   48.2830   92.5400 N.3    91  PHE91      -0.1227
      2  CA        67.9060   49.4920   93.2660 C.3    91  PHE91       0.1736
      3  C         68.9070   50.3250   92.4470 C.2    91  PHE91       0.2595
      4  O         68.8140   51.5590   92.4010 O.2    91  PHE91      -0.2718
      5  CB        68.4860   49.1630   94.6420 C.3    91  PHE91       0.0547
      6  CG        68.9750   50.3800   95.3930 C.ar   91  PHE91      -0.0202
      7  CD1       68.0710   51.3050   95.9050 C.ar   91  PHE91      -0.0042
      8  CD2       70.3330   50.5920   95.6060 C.ar   91  PHE91      -0.0042
      9  CE1       68.5150   52.4360   96.6020 C.ar   91  PHE91      -0.0003
     10  CE2       70.7850   51.7170   96.3070 C.ar   91  PHE91      -0.0003
     11  CZ        69.8700   52.6400   96.8040 C.ar   91  PHE91      -0.0000
     12  N         69.8290   49.6430   91.7660 N.am   92  LYS92      -0.1980
     13  CA        70.8210   50.3240   90.9210 C.3    92  LYS92       0.1596
     14  C         70.1640   50.8530   89.6440 C.2    92  LYS92       0.2287
     15  O         70.5370   51.9140   89.1610 O.2    92  LYS92      -0.2864
     16  CB        71.9880   49.3910   90.5860 C.3    92  LYS92       0.0298
     17  CG        72.7850   48.9510   91.8270 C.3    92  LYS92       0.0038
     18  CD        73.4530   50.1540   92.4900 C.3    92  LYS92       0.0206
     19  CE        74.1920   49.7330   93.7700 C.3    92  LYS92       0.1093
     20  NZ        74.9390   50.8810   94.3240 N.3    92  LYS92      -0.1314
     21  N         68.5850   54.0900   90.6130 N.3    95  GLU95      -0.1245
     22  CA        69.5970   55.1360   90.6710 C.3    95  GLU95       0.1567
     23  C         69.9540   55.6230   89.2590 C.2    95  GLU95       0.2260
     24  O         70.1290   56.8210   89.0300 O.2    95  GLU95      -0.2867
     25  CB        70.8300   54.5990   91.4010 C.3    95  GLU95       0.0388
     26  CG        71.9010   55.5920   91.6630 C.3    95  GLU95       0.1160
     27  CD        72.9730   55.0330   92.5780 C.2    95  GLU95       0.3649
     28  OE1       72.6230   54.2360   93.4850 O.co2  95  GLU95      -0.2457
     29  OE2       74.1600   55.3820   92.3750 O.co2  95  GLU95      -0.2457
     30  N         67.2980   58.0040   88.0500 N.3    98  VAL98      -0.1231
     31  CA        67.4390   59.3180   88.6730 C.3    98  VAL98       0.1692
     32  C         68.3960   60.1540   87.8070 C.2    98  VAL98       0.2592
     33  O         68.1370   61.3280   87.5460 O.2    98  VAL98      -0.2718
     34  CB        67.9490   59.2300   90.1330 C.3    98  VAL98       0.0266
     35  CG1       68.2610   60.6340   90.6870 C.3    98  VAL98       0.0020
     36  CG2       66.8990   58.5500   91.0250 C.3    98  VAL98       0.0020
     37  N         69.4810   59.5380   87.3350 N.am   99  TRP99      -0.1976
     38  CA        70.4210   60.2360   86.4440 C.3    99  TRP99       0.1640
     39  C         69.8170   60.5790   85.0960 C.2    99  TRP99       0.2290
     40  O         70.0760   61.6610   84.5620 O.2    99  TRP99      -0.2864
     41  CB        71.6960   59.4010   86.1970 C.3    99  TRP99       0.0576
     42  CG        72.6980   59.4980   87.3030 C.ar   99  TRP99       0.0006
     43  CD1       73.0230   58.5240   88.1930 C.ar   99  TRP99       0.0946
     44  CD2       73.4950   60.6360   87.6290 C.ar   99  TRP99       0.0152
     45  NE1       73.9780   58.9780   89.0610 N.ar   99  TRP99      -0.2442
     46  CE2       74.2830   60.2750   88.7500 C.ar   99  TRP99       0.0810
     47  CE3       73.6280   61.9250   87.1030 C.ar   99  TRP99       0.0012
     48  CZ2       75.1940   61.1540   89.3370 C.ar   99  TRP99       0.0191
     49  CZ3       74.5340   62.8010   87.6930 C.ar   99  TRP99       0.0001
     50  CH2       75.3050   62.4080   88.7960 C.ar   99  TRP99       0.0015
     51  N         67.2450   63.2790   85.3240 N.3   102  TRP102     -0.1241
     52  CA        67.8980   64.5410   85.6410 C.3   102  TRP102      0.1605
     53  C         68.4760   65.1890   84.3760 C.2   102  TRP102      0.2264
     54  O         68.4910   66.4040   84.2530 O.2   102  TRP102     -0.2867
     55  CB        68.9900   64.3290   86.6790 C.3   102  TRP102      0.0550
     56  CG        69.7540   65.5540   87.0360 C.ar  102  TRP102      0.0003
     57  CD1       69.3600   66.5680   87.8620 C.ar  102  TRP102      0.0946
     58  CD2       71.0780   65.8640   86.6080 C.ar  102  TRP102      0.0152
     59  NE1       70.3640   67.5070   87.9650 N.ar  102  TRP102     -0.2442
     60  CE2       71.4320   67.0970   87.2090 C.ar  102  TRP102      0.0810
     61  CE3       72.0060   65.2320   85.7740 C.ar  102  TRP102      0.0012
     62  CZ2       72.6680   67.7070   86.9910 C.ar  102  TRP102      0.0191
     63  CZ3       73.2390   65.8350   85.5660 C.ar  102  TRP102      0.0001
     64  CH2       73.5560   67.0610   86.1750 C.ar  102  TRP102      0.0015
     65  N         77.7500   68.6390   89.9910 N.3   174  ARG174     -0.1245
     66  CA        77.0710   67.4230   90.4370 C.3   174  ARG174      0.1563
     67  C         77.7190   66.1690   89.8370 C.2   174  ARG174      0.2260
     68  O         77.8770   65.1490   90.5100 O.2   174  ARG174     -0.2867
     69  CB        75.5880   67.4690   90.0710 C.3   174  ARG174      0.0307
     70  CG        74.8370   66.2060   90.4610 C.3   174  ARG174      0.0489
     71  CD        74.8960   65.9910   91.9730 C.3   174  ARG174      0.2205
     72  NE        74.2980   64.7140   92.3420 N.pl3 174  ARG174     -0.0865
     73  CZ        74.9730   63.5760   92.4450 C.cat 174  ARG174      0.5346
     74  NH1       76.2830   63.5580   92.2200 N.pl3 174  ARG174      0.1354
     75  NH2       74.3380   62.4590   92.7760 N.pl3 174  ARG174      0.1354
     76  N         80.3650   62.8770   91.7130 N.3   178  THR178     -0.1218
     77  CA        80.3040   61.4180   91.6440 C.3   178  THR178      0.1862
     78  C         81.5050   60.8540   90.8780 C.2   178  THR178      0.2287
     79  O         82.1640   59.9110   91.3360 O.2   178  THR178     -0.2866
     80  CB        78.9870   60.9370   90.9870 C.3   178  THR178      0.1770
     81  OG1       77.8770   61.2620   91.8370 O.3   178  THR178     -0.2211
     82  CG2       79.0170   59.4330   90.7330 C.3   178  THR178      0.0375
     83  N         84.3810   57.5400   91.2700 N.3   182  GLN182     -0.1245
     84  CA        84.1330   56.2520   90.6280 C.3   182  GLN182      0.1566
     85  C         84.1100   56.4290   89.1120 C.2   182  GLN182      0.2260
     86  O         84.0080   57.5570   88.6340 O.2   182  GLN182     -0.2867
     87  CB        82.8130   55.6300   91.1360 C.3   182  GLN182      0.0367
     88  CG        81.5640   56.4700   90.9080 C.3   182  GLN182      0.0905
     89  CD        80.3340   55.9010   91.6150 C.2   182  GLN182      0.2608
     90  OE1       80.3590   55.6520   92.8170 O.2   182  GLN182     -0.2717
     91  NE2       79.2490   55.7100   90.8670 N.am  182  GLN182     -0.0878
     92  N         78.5890   56.5910   86.4030 N.3   185  LEU185     -0.1245
     93  CA        77.6590   57.2930   87.2880 C.3   185  LEU185      0.1561
     94  C         77.0020   56.3540   88.3220 C.2   185  LEU185      0.2260
     95  O         76.8300   56.7450   89.4760 O.2   185  LEU185     -0.2867
     96  CB        76.6060   58.0400   86.4680 C.3   185  LEU185      0.0270
     97  CG        77.2210   59.2330   85.7220 C.3   185  LEU185      0.0019
     98  CD1       76.2540   59.8300   84.7070 C.3   185  LEU185      0.0001
     99  CD2       77.7090   60.3040   86.7000 C.3   185  LEU185      0.0001
    100  N         77.5500   52.6420   90.2910 N.3   187  ASP187     -0.1239
    101  CA        78.7900   51.9140   90.5710 C.3   187  ASP187      0.1674
    102  C         78.7620   50.4610   90.0880 C.2   187  ASP187      0.2266
    103  O         79.7480   49.7480   90.2160 O.2   187  ASP187     -0.2867
    104  CB        79.1530   51.9760   92.0740 C.3   187  ASP187      0.1410
    105  CG        78.0710   51.3950   93.0040 C.2   187  ASP187      0.3668
    106  OD1       77.1810   50.6400   92.5530 O.co2 187  ASP187     -0.2456
    107  OD2       78.1570   51.6700   94.2250 O.co2 187  ASP187     -0.2456
@<TRIPOS>BOND
     1    54    53    2
     2    53    52    1
     3    40    39    2
     4    98    97    1
     5    39    38    1
     6    51    52    1
     7    63    61   ar
     8    63    64   ar
     9    52    55    1
    10    97    96    1
    11    97    99    1
    12    61    58   ar
    13    64    62   ar
    14    41    38    1
    15    41    42    1
    16    92    93    1
    17    38    37    1
    18    96    93    1
    19    58    56   ar
    20    58    60   ar
    21    55    56    1
    22    62    60   ar
    23    56    57   ar
    24    47    44   ar
    25    47    49   ar
    26    60    59   ar
    27    93    94    1
    28    42    44   ar
    29    42    43   ar
    30    37    32   am
    31    33    32    2
    32    44    46   ar
    33    49    50   ar
    34    32    31    1
    35    57    59   ar
    36    30    31    1
    37    43    45   ar
    38    94    95    2
    39    86    85    2
    40    31    34    1
    41    46    45   ar
    42    46    48   ar
    43    50    48   ar
    44    24    23    2
    45    85    84    1
    46    15    14    2
    47    23    22    1
    48    14    13    1
    49    67    66    1
    50    67    68    2
    51    65    66    1
    52    69    66    1
    53    69    70    1
    54   102   103    2
    55   102   101    1
    56    34    35    1
    57    34    36    1
    58   100   101    1
    59    70    71    1
    60   101   104    1
    61    16    13    1
    62    16    17    1
    63    21    22    1
    64    84    87    1
    65    84    83    1
    66    22    25    1
    67    82    80    1
    68    91    89   am
    69    78    79    2
    70    78    77    1
    71    88    87    1
    72    88    89    1
    73    13    12    1
    74    80    77    1
    75    80    81    1
    76    25    26    1
    77    89    90    2
    78    77    76    1
    79    26    27    1
    80    12     3   am
    81    17    18    1
    82    71    72    1
    83   104   105    1
    84    74    73    1
    85    72    73    2
    86    29    27   ar
    87     4     3    2
    88    73    75    1
    89     3     2    1
    90    18    19    1
    91     1     2    1
    92   106   105   ar
    93    27    28   ar
    94   105   107   ar
    95     2     5    1
    96    19    20    1
    97     5     6    1
    98     6     8   ar
    99     6     7   ar
   100     8    10   ar
   101     7     9   ar
   102    10    11   ar
   103     9    11   ar
