@<TRIPOS>MOLECULE
tmp/4xt0A00.pdb
 165 163 0 0 0
SMALL
GASTEIGER

@<TRIPOS>ATOM
      1  N         69.7220   63.5370   64.3420 N.3     8  PHE8       -0.1241
      2  CA        70.7100   64.5110   63.8590 C.3     8  PHE8        0.1605
      3  C         72.1430   63.9650   63.9190 C.2     8  PHE8        0.2264
      4  O         73.0910   64.7080   63.6900 O.2     8  PHE8       -0.2867
      5  CB        70.6590   65.8160   64.6750 C.3     8  PHE8        0.0534
      6  CG        69.4390   66.6760   64.4170 C.ar    8  PHE8       -0.0203
      7  CD1       68.6680   66.5090   63.2800 C.ar    8  PHE8       -0.0042
      8  CD2       69.0790   67.6640   65.3270 C.ar    8  PHE8       -0.0042
      9  CE1       67.5490   67.3100   63.0520 C.ar    8  PHE8       -0.0003
     10  CE2       67.9660   68.4620   65.1150 C.ar    8  PHE8       -0.0003
     11  CZ        67.1990   68.2880   63.9680 C.ar    8  PHE8       -0.0000
     12  N         74.9910   63.7000   68.7340 N.3    11  GLY11      -0.1210
     13  CA        75.0830   64.8270   69.6410 C.3    11  GLY11       0.1956
     14  C         73.7270   65.0790   70.2600 C.2    11  GLY11       0.2612
     15  O         72.7080   64.7210   69.6720 O.2    11  GLY11      -0.2717
     16  N         73.7200   65.6740   71.4510 N.am   12  ALA12      -0.1965
     17  CA        72.4880   66.0220   72.1490 C.3    12  ALA12       0.1728
     18  C         71.5400   64.8310   72.2340 C.2    12  ALA12       0.2616
     19  O         71.9730   63.6990   72.4580 O.2    12  ALA12      -0.2715
     20  CB        71.8030   67.2340   71.4540 C.3    12  ALA12       0.0334
     21  N         70.2460   65.0610   72.0410 N.am   13  ASN13      -0.1958
     22  CA        69.2810   64.0040   72.3410 C.3    13  ASN13       0.1819
     23  C         69.4050   62.8180   71.3840 C.2    13  ASN13       0.2622
     24  O         69.1720   61.6700   71.7710 O.2    13  ASN13      -0.2715
     25  CB        67.8600   64.5710   72.3280 C.3    13  ASN13       0.1195
     26  CG        67.5790   65.4260   73.5460 C.2    13  ASN13       0.2630
     27  OD1       67.7290   64.9680   74.6810 O.2    13  ASN13      -0.2716
     28  ND2       67.2080   66.6800   73.3240 N.am   13  ASN13      -0.0877
     29  N         69.8130   63.0950   70.1490 N.am   14  SER14      -0.1950
     30  CA        70.0230   62.0460   69.1390 C.3    14  SER14       0.1924
     31  C         71.0910   61.0210   69.5460 C.2    14  SER14       0.2314
     32  O         70.9940   59.8470   69.2020 O.2    14  SER14      -0.2863
     33  CB        70.4190   62.6780   67.7900 C.3    14  SER14       0.2116
     34  OG        69.3350   63.3810   67.2000 O.3    14  SER14      -0.2180
     35  N         63.4280   68.0980   59.8630 N.3    40  GLN40      -0.1231
     36  CA        62.5950   67.6270   60.9860 C.3    40  GLN40       0.1698
     37  C         61.2000   68.2440   60.8850 C.2    40  GLN40       0.2592
     38  O         60.2740   67.8190   61.5740 O.2    40  GLN40      -0.2718
     39  CB        63.2370   67.9430   62.3530 C.3    40  GLN40       0.0381
     40  CG        63.2360   69.4120   62.7730 C.3    40  GLN40       0.0905
     41  CD        64.4300   70.1840   62.2120 C.2    40  GLN40       0.2608
     42  OE1       64.9940   69.8100   61.1840 O.2    40  GLN40      -0.2717
     43  NE2       64.8150   71.2570   62.8880 N.am   40  GLN40      -0.0878
     44  N         61.0540   69.2370   60.0050 N.am   41  HIS41      -0.1976
     45  CA        59.7690   69.9020   59.8010 C.3    41  HIS41       0.1656
     46  C         59.1720   69.5520   58.4470 C.2    41  HIS41       0.2291
     47  O         58.1740   70.1360   58.0300 O.2    41  HIS41      -0.2864
     48  CB        59.9280   71.4190   59.9150 C.3    41  HIS41       0.0771
     49  CG        60.4740   71.8620   61.2340 C.ar   41  HIS41       0.0820
     50  ND1       61.2010   73.0240   61.3860 N.ar   41  HIS41      -0.2267
     51  CD2       60.4050   71.2990   62.4620 C.ar   41  HIS41       0.1154
     52  CE1       61.5570   73.1580   62.6490 C.ar   41  HIS41       0.1986
     53  NE2       61.0880   72.1200   63.3260 N.ar   41  HIS41      -0.2212
     54  N         60.3220   66.5580   65.7830 N.3    53  GLN53      -0.1231
     55  CA        61.6170   66.5630   66.4470 C.3    53  GLN53       0.1698
     56  C         62.2850   65.2020   66.3710 C.2    53  GLN53       0.2592
     57  O         61.6360   64.1800   66.1330 O.2    53  GLN53      -0.2718
     58  CB        61.4770   67.0060   67.9080 C.3    53  GLN53       0.0381
     59  CG        61.3190   68.5180   68.0620 C.3    53  GLN53       0.0905
     60  CD        61.4490   68.9920   69.4960 C.2    53  GLN53       0.2608
     61  OE1       60.8380   68.4340   70.4070 O.2    53  GLN53      -0.2717
     62  NE2       62.2640   70.0260   69.7050 N.am   53  GLN53      -0.0878
     63  N         63.5990   65.2080   66.5510 N.am   54  VAL54      -0.1966
     64  CA        64.3740   63.9770   66.5690 C.3    54  VAL54       0.1712
     65  C         64.8400   63.7550   68.0140 C.2    54  VAL54       0.2458
     66  O         64.9000   64.7090   68.7910 O.2    54  VAL54      -0.2730
     67  CB        65.5840   64.0430   65.5970 C.3    54  VAL54       0.0289
     68  CG1       65.1160   64.2060   64.1470 C.3    54  VAL54       0.0023
     69  CG2       66.5570   65.1780   65.9940 C.3    54  VAL54       0.0023
     70  N         65.1780   62.5080   68.3850 N.am   55  PRO55      -0.2727
     71  CA        65.1560   61.2850   67.5800 C.3    55  PRO55       0.1402
     72  C         63.8100   60.5850   67.5530 C.2    55  PRO55       0.2269
     73  O         62.9270   60.8110   68.3930 O.2    55  PRO55      -0.2865
     74  CB        66.1960   60.4000   68.2790 C.3    55  PRO55       0.0296
     75  CG        66.0500   60.7810   69.7090 C.3    55  PRO55       0.0237
     76  CD        65.8940   62.2930   69.6550 C.3    55  PRO55       0.0939
     77  N         60.9730   60.2550   72.1340 N.3    66  GLU66      -0.1231
     78  CA        61.6490   60.6640   73.3840 C.3    66  GLU66       0.1699
     79  C         62.9560   59.8820   73.5600 C.2    66  GLU66       0.2593
     80  O         62.9260   58.6870   73.8060 O.2    66  GLU66      -0.2718
     81  CB        60.7470   60.4720   74.6200 C.3    66  GLU66       0.0402
     82  CG        59.4970   61.3410   74.5980 C.3    66  GLU66       0.1161
     83  CD        59.8330   62.8210   74.6490 C.2    66  GLU66       0.3649
     84  OE1       60.6330   63.2300   75.5270 O.co2  66  GLU66      -0.2457
     85  OE2       59.3190   63.5640   73.7910 O.co2  66  GLU66      -0.2457
     86  N         64.0950   60.5680   73.4320 N.am   67  SER67      -0.1938
     87  CA        65.4080   59.9120   73.4720 C.3    67  SER67       0.2055
     88  C         65.5740   58.9100   74.6260 C.2    67  SER67       0.2643
     89  O         65.9650   57.7650   74.3990 O.2    67  SER67      -0.2714
     90  CB        66.5160   60.9730   73.5260 C.3    67  SER67       0.2130
     91  OG        66.3540   61.8490   74.6360 O.3    67  SER67      -0.2179
     92  N         65.2410   59.3150   75.8500 N.am   68  THR68      -0.1950
     93  CA        65.4040   58.4320   77.0080 C.3    68  THR68       0.1897
     94  C         64.5130   57.1840   76.9050 C.2    68  THR68       0.2313
     95  O         64.9250   56.0920   77.2750 O.2    68  THR68      -0.2863
     96  CB        65.0840   59.1750   78.3170 C.3    68  THR68       0.1794
     97  OG1       65.9700   60.2920   78.4570 O.3    68  THR68      -0.2208
     98  CG2       65.2190   58.2320   79.5550 C.3    68  THR68       0.0378
     99  N         66.9970   64.8450   81.4460 N.3   104  ASP104     -0.1239
    100  CA        65.7540   65.3460   80.8230 C.3   104  ASP104      0.1674
    101  C         65.1460   66.5720   81.4960 C.2   104  ASP104      0.2266
    102  O         64.4640   67.3640   80.8410 O.2   104  ASP104     -0.2867
    103  CB        64.6790   64.2410   80.7860 C.3   104  ASP104      0.1410
    104  CG        64.9350   63.2010   79.6950 C.2   104  ASP104      0.3668
    105  OD1       65.4500   63.5610   78.6100 O.co2 104  ASP104     -0.2456
    106  OD2       64.6250   62.0130   79.9140 O.co2 104  ASP104     -0.2456
    107  N         68.6460   70.9710   79.3570 N.3   109  TRP109     -0.1241
    108  CA        68.0310   72.2450   79.0060 C.3   109  TRP109      0.1605
    109  C         68.9070   73.4800   79.2300 C.2   109  TRP109      0.2264
    110  O         68.8380   74.4390   78.4450 O.2   109  TRP109     -0.2867
    111  CB        66.6930   72.3890   79.7490 C.3   109  TRP109      0.0550
    112  CG        65.7350   71.2770   79.4180 C.ar  109  TRP109      0.0003
    113  CD1       64.9540   70.5850   80.2980 C.ar  109  TRP109      0.0946
    114  CD2       65.4840   70.6980   78.1190 C.ar  109  TRP109      0.0152
    115  NE1       64.2200   69.6340   79.6320 N.ar  109  TRP109     -0.2442
    116  CE2       64.5290   69.6790   78.2970 C.ar  109  TRP109      0.0810
    117  CE3       65.9660   70.9520   76.8250 C.ar  109  TRP109      0.0012
    118  CZ2       64.0480   68.9090   77.2330 C.ar  109  TRP109      0.0191
    119  CZ3       65.4910   70.1830   75.7710 C.ar  109  TRP109      0.0001
    120  CH2       64.5400   69.1770   75.9820 C.ar  109  TRP109      0.0015
    121  N         71.0950   77.1390   71.6430 N.3   116  TRP116     -0.1241
    122  CA        70.1510   77.8730   70.7940 C.3   116  TRP116      0.1605
    123  C         70.5560   79.3360   70.6190 C.2   116  TRP116      0.2264
    124  O         70.3460   79.9300   69.5580 O.2   116  TRP116     -0.2867
    125  CB        68.7290   77.7980   71.3640 C.3   116  TRP116      0.0550
    126  CG        68.0110   76.5180   71.0310 C.ar  116  TRP116      0.0003
    127  CD1       68.0490   75.3450   71.7350 C.ar  116  TRP116      0.0946
    128  CD2       67.1550   76.2790   69.9050 C.ar  116  TRP116      0.0152
    129  NE1       67.2680   74.3970   71.1200 N.ar  116  TRP116     -0.2442
    130  CE2       66.7090   74.9440   69.9950 C.ar  116  TRP116      0.0810
    131  CE3       66.7190   77.0650   68.8360 C.ar  116  TRP116      0.0012
    132  CZ2       65.8510   74.3770   69.0530 C.ar  116  TRP116      0.0191
    133  CZ3       65.8680   76.5000   67.9040 C.ar  116  TRP116      0.0001
    134  CH2       65.4430   75.1700   68.0190 C.ar  116  TRP116      0.0015
    135  N         55.2770   72.8530   67.6650 N.3   142  ILE142     -0.1245
    136  CA        55.5660   73.0200   69.0870 C.3   142  ILE142      0.1561
    137  C         55.8350   74.4770   69.4700 C.2   142  ILE142      0.2260
    138  O         56.7820   75.0870   68.9680 O.2   142  ILE142     -0.2867
    139  CB        56.7840   72.1640   69.4960 C.3   142  ILE142      0.0252
    140  CG1       56.9870   71.0010   68.5120 C.3   142  ILE142      0.0019
    141  CG2       56.6370   71.6740   70.9300 C.3   142  ILE142      0.0019
    142  CD1       57.8240   71.3510   67.2730 C.3   142  ILE142      0.0001
    143  N         59.0860   75.6500   71.0040 N.3   145  GLN145     -0.1245
    144  CA        60.1390   75.5900   69.9870 C.3   145  GLN145      0.1566
    145  C         60.0290   76.7470   68.9900 C.2   145  GLN145      0.2260
    146  O         61.0310   77.1800   68.4240 O.2   145  GLN145     -0.2867
    147  CB        60.0990   74.2490   69.2390 C.3   145  GLN145      0.0367
    148  CG        60.2720   73.0240   70.1400 C.3   145  GLN145      0.0905
    149  CD        61.5710   73.0620   70.9290 C.2   145  GLN145      0.2608
    150  OE1       61.5710   72.8910   72.1490 O.2   145  GLN145     -0.2717
    151  NE2       62.6880   73.2750   70.2310 N.am  145  GLN145     -0.0878
    152  N         63.2870   79.1720   68.3130 N.3   149  TRP149     -0.1241
    153  CA        63.7800   79.5250   66.9820 C.3   149  TRP149      0.1605
    154  C         63.8550   81.0470   66.8120 C.2   149  TRP149      0.2264
    155  O         64.8380   81.5670   66.2770 O.2   149  TRP149     -0.2867
    156  CB        62.9000   78.9030   65.8800 C.3   149  TRP149      0.0550
    157  CG        63.2890   77.4910   65.5270 C.ar  149  TRP149      0.0003
    158  CD1       62.5800   76.3470   65.7920 C.ar  149  TRP149      0.0946
    159  CD2       64.4980   77.0720   64.8790 C.ar  149  TRP149      0.0152
    160  NE1       63.2710   75.2450   65.3400 N.ar  149  TRP149     -0.2442
    161  CE2       64.4520   75.6620   64.7780 C.ar  149  TRP149      0.0810
    162  CE3       65.6160   77.7490   64.3780 C.ar  149  TRP149      0.0012
    163  CZ2       65.4810   74.9220   64.1900 C.ar  149  TRP149      0.0191
    164  CZ3       66.6390   77.0100   63.7930 C.ar  149  TRP149      0.0001
    165  CH2       66.5620   75.6120   63.7040 C.ar  149  TRP149      0.0015
@<TRIPOS>BOND
     1    47    46    2
     2    46    45    1
     3    45    48    1
     4    45    44    1
     5    35    36    1
     6    48    49    1
     7    44    37   am
     8    37    36    1
     9    37    38    2
    10    36    39    1
    11    42    41    2
    12    49    50   ar
    13    49    51   ar
    14    50    52   ar
    15    41    40    1
    16    41    43   am
    17    39    40    1
    18    51    53   ar
    19    52    53   ar
    20     9     7   ar
    21     9    11   ar
    22     7     6   ar
    23     4     3    2
    24   165   164   ar
    25   165   163   ar
    26   164   162   ar
    27     2     3    1
    28     2     1    1
    29     2     5    1
    30    11    10   ar
    31    68    67    1
    32   163   161   ar
    33   162   159   ar
    34     6     5    1
    35     6     8   ar
    36   161   159   ar
    37   161   160   ar
    38   159   157   ar
    39    10     8   ar
    40   160   158   ar
    41   157   158   ar
    42   157   156    1
    43    67    69    1
    44    67    64    1
    45    54    55    1
    46   156   153    1
    47    57    56    2
    48   155   154    2
    49    56    55    1
    50    56    63   am
    51    55    58    1
    52    63    64    1
    53    64    65    1
    54   154   153    1
    55   153   152    1
    56    34    33    1
    57   142   140    1
    58    72    71    1
    59    72    73    2
    60    71    74    1
    61    71    70    1
    62   135   136    1
    63    33    30    1
    64   133   134   ar
    65   133   131   ar
    66    58    59    1
    67    65    70   am
    68    65    66    2
    69   134   132   ar
    70    59    60    1
    71    74    75    1
    72    70    76    1
    73   146   145    2
    74   140   139    1
    75    12    13    1
    76   131   128   ar
    77   138   137    2
    78   145   144    1
    79   132   130   ar
    80   136   137    1
    81   136   139    1
    82    30    31    1
    83    30    29    1
    84    32    31    2
    85   147   144    1
    86   147   148    1
    87   139   141    1
    88    60    62   am
    89    60    61    2
    90   124   123    2
    91    13    14    1
    92    76    75    1
    93    15    14    2
    94   128   130   ar
    95   128   126   ar
    96   144   143    1
    97   130   129   ar
    98   148   149    1
    99    29    23   am
   100   151   149   am
   101    14    16   am
   102   123   122    1
   103   122   125    1
   104   122   121    1
   105   149   150    2
   106   126   125    1
   107   126   127   ar
   108   129   127   ar
   109    23    24    2
   110    23    22    1
   111    16    17    1
   112    20    17    1
   113    21    18   am
   114    21    22    1
   115    77    78    1
   116    17    18    1
   117    18    19    2
   118    25    22    1
   119    25    26    1
   120    28    26   am
   121    78    79    1
   122    78    81    1
   123    86    87    1
   124    86    79   am
   125    87    90    1
   126    87    88    1
   127    90    91    1
   128    26    27    2
   129    79    80    2
   130    85    83   ar
   131    89    88    2
   132    82    81    1
   133    82    83    1
   134    88    92   am
   135    83    84   ar
   136   119   120   ar
   137   119   117   ar
   138    92    93    1
   139   120   118   ar
   140   117   114   ar
   141    94    93    1
   142    94    95    2
   143    93    96    1
   144   118   116   ar
   145   114   116   ar
   146   114   112   ar
   147   116   115   ar
   148    96    97    1
   149    96    98    1
   150   110   109    2
   151   105   104   ar
   152   108   109    1
   153   108   107    1
   154   108   111    1
   155   112   111    1
   156   112   113   ar
   157   115   113   ar
   158   104   106   ar
   159   104   103    1
   160   103   100    1
   161   100    99    1
   162   100   101    1
   163   102   101    2
