@<TRIPOS>MOLECULE
tmp/4xt1A09.pdb
 117 109 0 0 0
SMALL
GASTEIGER

@<TRIPOS>ATOM
      1  N        100.6570   30.0860  236.1180 N.3   178  PHE178     -0.1241
      2  CA       101.8620   30.7530  236.5980 C.3   178  PHE178      0.1605
      3  C        101.5690   32.0350  237.3760 C.2   178  PHE178      0.2264
      4  O        101.8520   32.1120  238.5690 O.2   178  PHE178     -0.2867
      5  CB       102.8020   31.0640  235.4320 C.3   178  PHE178      0.0534
      6  CG       104.1430   31.5870  235.8620 C.ar  178  PHE178     -0.0203
      7  CD1      105.1420   30.7160  236.2650 C.ar  178  PHE178     -0.0042
      8  CD2      104.4050   32.9490  235.8690 C.ar  178  PHE178     -0.0042
      9  CE1      106.3770   31.1900  236.6650 C.ar  178  PHE178     -0.0003
     10  CE2      105.6390   33.4300  236.2690 C.ar  178  PHE178     -0.0003
     11  CZ       106.6260   32.5490  236.6670 C.ar  178  PHE178     -0.0000
     12  N        101.6590   32.0090  241.4580 N.3   182  LEU182     -0.1245
     13  CA       102.8990   32.5960  241.9540 C.3   182  LEU182      0.1561
     14  C        102.6220   33.8800  242.7310 C.2   182  LEU182      0.2260
     15  O        103.3230   34.1920  243.6890 O.2   182  LEU182     -0.2867
     16  CB       103.8670   32.8660  240.7960 C.3   182  LEU182      0.0270
     17  CG       105.3370   33.1720  241.1010 C.3   182  LEU182      0.0019
     18  CD1      105.5730   34.6630  241.3020 C.3   182  LEU182      0.0001
     19  CD2      105.8120   32.3850  242.3150 C.3   182  LEU182      0.0001
     20  N        103.3230   33.9830  246.8560 N.3   186  SER186     -0.1217
     21  CA       104.3610   34.9560  247.1780 C.3   186  SER186      0.1889
     22  C        103.8580   35.9450  248.2200 C.2   186  SER186      0.2288
     23  O        104.5450   36.2270  249.2000 O.2   186  SER186     -0.2866
     24  CB       104.8220   35.7020  245.9250 C.3   186  SER186      0.2089
     25  OG       105.3540   34.8050  244.9640 O.3   186  SER186     -0.2183
     26  N        103.2350   33.9530  251.6380 N.3   189  TYR189     -0.1227
     27  CA       104.4510   33.5510  252.3370 C.3   189  TYR189      0.1736
     28  C        105.3150   34.7390  252.7340 C.2   189  TYR189      0.2595
     29  O        106.1150   34.6350  253.6590 O.2   189  TYR189     -0.2718
     30  CB       105.2610   32.5720  251.4810 C.3   189  TYR189      0.0548
     31  CG       104.6100   31.2170  251.3390 C.ar  189  TYR189     -0.0200
     32  CD1      103.6570   30.7870  252.2490 C.ar  189  TYR189     -0.0009
     33  CD2      104.9500   30.3700  250.2970 C.ar  189  TYR189     -0.0009
     34  CE1      103.0560   29.5470  252.1280 C.ar  189  TYR189      0.0417
     35  CE2      104.3580   29.1250  250.1600 C.ar  189  TYR189      0.0417
     36  CZ       103.4110   28.7200  251.0790 C.ar  189  TYR189      0.1957
     37  OH       102.8200   27.4880  250.9510 O.3   189  TYR189     -0.2866
     38  N        105.1620   35.8630  252.0390 N.am  190  TYR190     -0.1976
     39  CA       105.8430   37.0870  252.4580 C.3   190  TYR190      0.1639
     40  C        105.2520   37.5940  253.7650 C.2   190  TYR190      0.2290
     41  O        105.9820   37.9380  254.6970 O.2   190  TYR190     -0.2864
     42  CB       105.7520   38.1830  251.3890 C.3   190  TYR190      0.0560
     43  CG       106.2630   39.5380  251.8470 C.ar  190  TYR190     -0.0198
     44  CD1      107.6160   39.8620  251.7830 C.ar  190  TYR190     -0.0009
     45  CD2      105.3880   40.4880  252.3390 C.ar  190  TYR190     -0.0009
     46  CE1      108.0750   41.1020  252.1990 C.ar  190  TYR190      0.0417
     47  CE2      105.8310   41.7170  252.7590 C.ar  190  TYR190      0.0417
     48  CZ       107.1720   42.0200  252.6840 C.ar  190  TYR190      0.1957
     49  OH       107.6050   43.2470  253.1010 O.3   190  TYR190     -0.2866
     50  N        106.1950   35.0170  256.5470 N.3   193  SER193     -0.1202
     51  CA       107.6070   35.1080  256.9020 C.3   193  SER193      0.2020
     52  C        107.9090   36.3790  257.6860 C.2   193  SER193      0.2618
     53  O        108.7730   36.3880  258.5600 O.2   193  SER193     -0.2717
     54  CB       108.4810   35.0550  255.6470 C.3   193  SER193      0.2103
     55  OG       108.2360   33.8760  254.9010 O.3   193  SER193     -0.2182
     56  N        107.1880   37.4490  257.3740 N.am  194  ARG194     -0.1979
     57  CA       107.4420   38.7400  257.9990 C.3   194  ARG194      0.1597
     58  C        106.9170   38.7880  259.4310 C.2   194  ARG194      0.2287
     59  O        107.3220   39.6400  260.2210 O.2   194  ARG194     -0.2864
     60  CB       106.8180   39.8620  257.1660 C.3   194  ARG194      0.0334
     61  CG       107.4480   41.2280  257.3850 C.3   194  ARG194      0.0492
     62  CD       108.7210   41.4280  256.5590 C.3   194  ARG194      0.2205
     63  NE       109.8070   40.5280  256.9410 N.pl3 194  ARG194     -0.0865
     64  CZ       110.5540   40.6720  258.0320 C.cat 194  ARG194      0.5346
     65  NH1      110.3350   41.6810  258.8630 N.pl3 194  ARG194      0.1354
     66  NH2      111.5180   39.8010  258.2960 N.pl3 194  ARG194      0.1354
     67  N        109.4190   35.9230  261.5220 N.3   197  ALA197     -0.1245
     68  CA       110.7980   36.3880  261.6650 C.3   197  ALA197      0.1562
     69  C        110.9860   37.2830  262.8880 C.2   197  ALA197      0.2260
     70  O        112.0930   37.4040  263.4110 O.2   197  ALA197     -0.2867
     71  CB       111.2380   37.1230  260.4060 C.3   197  ALA197      0.0290
     72  N        111.0560   30.3650  257.5020 N.3   208  VAL208     -0.1245
     73  CA       111.1710   31.3360  256.4210 C.3   208  VAL208      0.1561
     74  C        111.9300   30.7470  255.2330 C.2   208  VAL208      0.2260
     75  O        111.5280   30.9270  254.0850 O.2   208  VAL208     -0.2867
     76  CB       111.8730   32.6240  256.8930 C.3   208  VAL208      0.0252
     77  CG1      111.9920   33.6180  255.7480 C.3   208  VAL208      0.0019
     78  CG2      111.1130   33.2410  258.0560 C.3   208  VAL208      0.0019
     79  N        110.6310   30.3750  251.3780 N.3   212  ILE212     -0.1245
     80  CA       111.3750   31.0110  250.2960 C.3   212  ILE212      0.1561
     81  C        111.7020   29.9910  249.2090 C.2   212  ILE212      0.2260
     82  O        111.5930   30.2800  248.0160 O.2   212  ILE212     -0.2867
     83  CB       112.6800   31.6620  250.8070 C.3   212  ILE212      0.0252
     84  CG1      112.3620   32.8340  251.7340 C.3   212  ILE212      0.0019
     85  CG2      113.5350   32.1420  249.6470 C.3   212  ILE212      0.0019
     86  CD1      113.5780   33.6090  252.1830 C.3   212  ILE212      0.0001
     87  N        108.9050   29.2760  246.7190 N.3   215  VAL215     -0.1231
     88  CA       108.7730   30.3000  245.6900 C.3   215  VAL215      0.1692
     89  C        109.8910   30.1990  244.6540 C.2   215  VAL215      0.2591
     90  O        109.6390   30.2700  243.4510 O.2   215  VAL215     -0.2718
     91  CB       108.7760   31.7150  246.3000 C.3   215  VAL215      0.0266
     92  CG1      108.5340   32.7580  245.2210 C.3   215  VAL215      0.0020
     93  CG2      107.7260   31.8220  247.3940 C.3   215  VAL215      0.0020
     94  N        111.1220   30.0290  245.1280 N.am  216  LEU216     -0.1980
     95  CA       112.2860   29.9630  244.2470 C.3   216  LEU216      0.1596
     96  C        112.2360   28.7660  243.3040 C.2   216  LEU216      0.2287
     97  O        112.4870   28.9020  242.1070 O.2   216  LEU216     -0.2864
     98  CB       113.5750   29.9160  245.0700 C.3   216  LEU216      0.0297
     99  CG       113.9630   31.1990  245.8040 C.3   216  LEU216      0.0022
    100  CD1      115.2540   30.9970  246.5770 C.3   216  LEU216      0.0001
    101  CD2      114.0970   32.3550  244.8250 C.3   216  LEU216      0.0001
    102  N        109.6570   29.1650  240.5240 N.3   219  ILE219     -0.1245
    103  CA       110.0950   30.0760  239.4740 C.3   219  ILE219      0.1561
    104  C        111.0980   29.4150  238.5320 C.2   219  ILE219      0.2260
    105  O        110.9090   29.4140  237.3180 O.2   219  ILE219     -0.2867
    106  CB       110.7230   31.3530  240.0660 C.3   219  ILE219      0.0252
    107  CG1      109.6730   32.1460  240.8470 C.3   219  ILE219      0.0019
    108  CG2      111.3260   32.2120  238.9660 C.3   219  ILE219      0.0019
    109  CD1      110.2160   33.3920  241.5100 C.3   219  ILE219      0.0001
    110  N        108.9650   29.2900  235.1350 N.3   223  LEU223     -0.1245
    111  CA       109.1670   30.5420  234.4010 C.3   223  LEU223      0.1561
    112  C        109.7350   30.3620  232.9830 C.2   223  LEU223      0.2260
    113  O        109.2720   31.0320  232.0610 O.2   223  LEU223     -0.2867
    114  CB       110.0700   31.4900  235.2000 C.3   223  LEU223      0.0270
    115  CG       110.3780   32.8500  234.5670 C.3   223  LEU223      0.0019
    116  CD1      109.1000   33.6320  234.3110 C.3   223  LEU223      0.0001
    117  CD2      111.3290   33.6500  235.4440 C.3   223  LEU223      0.0001
@<TRIPOS>BOND
     1   113   112    2
     2   112   111    1
     3   116   115    1
     4   111   110    1
     5   111   114    1
     6   115   114    1
     7   115   117    1
     8     5     6    1
     9     5     2    1
    10     6     8   ar
    11     6     7   ar
    12     8    10   ar
    13     1     2    1
    14     7     9   ar
    15    10    11   ar
    16     2     3    1
    17     9    11   ar
    18   105   104    2
    19     3     4    2
    20   104   103    1
    21   108   106    1
    22   103   106    1
    23   103   102    1
    24   106   107    1
    25    16    17    1
    26    16    13    1
    27   107   109    1
    28    17    18    1
    29    17    19    1
    30    12    13    1
    31    13    14    1
    32    97    96    2
    33    14    15    2
    34    96    95    1
    35    90    89    2
    36    95    98    1
    37    95    94    1
    38    89    94   am
    39    89    88    1
    40   101    99    1
    41    25    24    1
    42    98    99    1
    43    92    91    1
    44    88    91    1
    45    88    87    1
    46    99   100    1
    47    24    21    1
    48    91    93    1
    49    20    21    1
    50    21    22    1
    51    82    81    2
    52    22    23    2
    53    81    80    1
    54    85    83    1
    55    35    33   ar
    56    35    36   ar
    57    80    83    1
    58    80    79    1
    59    33    31   ar
    60    83    84    1
    61    37    36    1
    62    36    34   ar
    63    31    30    1
    64    31    32   ar
    65    42    43    1
    66    42    39    1
    67    30    27    1
    68    26    27    1
    69    84    86    1
    70    44    43   ar
    71    44    46   ar
    72    43    45   ar
    73    38    39    1
    74    38    28   am
    75    34    32   ar
    76    46    48   ar
    77    27    28    1
    78    45    47   ar
    79    39    40    1
    80    48    47   ar
    81    48    49    1
    82    28    29    2
    83    40    41    2
    84    75    74    2
    85    55    54    1
    86    74    73    1
    87    54    51    1
    88    77    76    1
    89    73    76    1
    90    73    72    1
    91    50    51    1
    92    62    63    1
    93    62    61    1
    94    76    78    1
    95    51    52    1
    96    63    64    2
    97    60    61    1
    98    60    57    1
    99    56    52   am
   100    56    57    1
   101    52    53    2
   102    57    58    1
   103    64    66    1
   104    64    65    1
   105    58    59    2
   106    71    68    1
   107    67    68    1
   108    68    69    1
   109    69    70    2
