@<TRIPOS>MOLECULE
tmp/4xt1A00.pdb
 107 106 0 0 0
SMALL
GASTEIGER

@<TRIPOS>ATOM
      1  N         95.6110   18.5170  252.2850 N.3    57  TYR57      -0.1241
      2  CA        96.0890   19.1550  251.0660 C.3    57  TYR57       0.1605
      3  C         97.3700   18.5040  250.5480 C.2    57  TYR57       0.2264
      4  O         97.6130   18.4780  249.3420 O.2    57  TYR57      -0.2867
      5  CB        96.3130   20.6480  251.3080 C.3    57  TYR57       0.0534
      6  CG        95.0600   21.3980  251.7030 C.ar   57  TYR57      -0.0201
      7  CD1       93.8250   21.0590  251.1640 C.ar   57  TYR57      -0.0009
      8  CD2       95.1110   22.4390  252.6190 C.ar   57  TYR57      -0.0009
      9  CE1       92.6770   21.7410  251.5220 C.ar   57  TYR57       0.0417
     10  CE2       93.9690   23.1260  252.9850 C.ar   57  TYR57       0.0417
     11  CZ        92.7550   22.7730  252.4340 C.ar   57  TYR57       0.1957
     12  OH        91.6160   23.4560  252.7960 O.3    57  TYR57      -0.2866
     13  N         96.4640   26.3730  247.5050 N.3   105  GLU105     -0.1245
     14  CA        95.6580   26.1360  248.6980 C.3   105  GLU105      0.1567
     15  C         96.5270   25.9380  249.9390 C.2   105  GLU105      0.2260
     16  O         96.1100   26.2610  251.0520 O.2   105  GLU105     -0.2867
     17  CB        94.7460   24.9240  248.4910 C.3   105  GLU105      0.0388
     18  CG        93.7860   24.6690  249.6390 C.3   105  GLU105      0.1160
     19  CD        92.9500   25.8880  249.9780 C.2   105  GLU105      0.3649
     20  OE1       93.0300   26.3600  251.1310 O.co2 105  GLU105     -0.2457
     21  OE2       92.2140   26.3730  249.0950 O.co2 105  GLU105     -0.2457
     22  N         97.3170   29.5290  251.1280 N.3   108  LEU108     -0.1231
     23  CA        96.1080   30.1560  251.6550 C.3   108  LEU108      0.1693
     24  C         95.7340   29.6070  253.0280 C.2   108  LEU108      0.2592
     25  O         95.4630   30.3700  253.9560 O.2   108  LEU108     -0.2718
     26  CB        94.9410   29.9630  250.6850 C.3   108  LEU108      0.0284
     27  CG        95.0350   30.6980  249.3490 C.3   108  LEU108      0.0019
     28  CD1       93.8670   30.3230  248.4510 C.3   108  LEU108      0.0001
     29  CD2       95.0790   32.2000  249.5750 C.3   108  LEU108      0.0001
     30  N         95.7220   28.2830  253.1490 N.am  109  ASP109     -0.1974
     31  CA        95.3820   27.6280  254.4070 C.3   109  ASP109      0.1709
     32  C         96.3350   28.0450  255.5190 C.2   109  ASP109      0.2293
     33  O         95.9270   28.2240  256.6670 O.2   109  ASP109     -0.2864
     34  CB        95.4040   26.1080  254.2460 C.3   109  ASP109      0.1436
     35  CG        95.0000   25.3830  255.5150 C.2   109  ASP109      0.3671
     36  OD1       94.0540   25.8430  256.1870 O.co2 109  ASP109     -0.2456
     37  OD2       95.6330   24.3570  255.8420 O.co2 109  ASP109     -0.2456
     38  N         95.6630   32.1820  256.2540 N.3   112  TYR112     -0.1241
     39  CA        94.5600   32.4840  257.1620 C.3   112  TYR112      0.1605
     40  C         94.8130   31.9780  258.5810 C.2   112  TYR112      0.2264
     41  O         94.2530   32.5040  259.5420 O.2   112  TYR112     -0.2867
     42  CB        93.2530   31.8890  256.6290 C.3   112  TYR112      0.0534
     43  CG        92.6980   32.5960  255.4120 C.ar  112  TYR112     -0.0201
     44  CD1       92.0350   33.8110  255.5330 C.ar  112  TYR112     -0.0009
     45  CD2       92.8270   32.0450  254.1430 C.ar  112  TYR112     -0.0009
     46  CE1       91.5230   34.4600  254.4250 C.ar  112  TYR112      0.0417
     47  CE2       92.3180   32.6870  253.0290 C.ar  112  TYR112      0.0417
     48  CZ        91.6670   33.8940  253.1750 C.ar  112  TYR112      0.1957
     49  OH        91.1580   34.5370  252.0700 O.3   112  TYR112     -0.2866
     50  N         91.1860   25.6950  259.9460 N.3   120  ARG120     -0.1245
     51  CA        90.2180   24.8250  259.2890 C.3   120  ARG120      0.1563
     52  C         90.3420   23.3880  259.7820 C.2   120  ARG120      0.2260
     53  O         91.4280   22.8090  259.7510 O.2   120  ARG120     -0.2867
     54  CB        90.4040   24.8720  257.7710 C.3   120  ARG120      0.0307
     55  CG        90.1840   26.2400  257.1490 C.3   120  ARG120      0.0489
     56  CD        88.7580   26.4000  256.6510 C.3   120  ARG120      0.2205
     57  NE        87.9900   27.3420  257.4590 N.pl3 120  ARG120     -0.0865
     58  CZ        87.8580   28.6340  257.1770 C.cat 120  ARG120      0.5346
     59  NH1       88.4440   29.1430  256.1010 N.pl3 120  ARG120      0.1354
     60  NH2       87.1390   29.4170  257.9680 N.pl3 120  ARG120      0.1354
     61  N         86.7890   21.3870  250.7470 N.3   128  PHE128     -0.1241
     62  CA        87.4800   22.3160  249.8620 C.3   128  PHE128      0.1605
     63  C         88.2820   21.5690  248.8030 C.2   128  PHE128      0.2264
     64  O         88.3980   22.0240  247.6650 O.2   128  PHE128     -0.2867
     65  CB        88.3990   23.2430  250.6600 C.3   128  PHE128      0.0534
     66  CG        87.6660   24.2420  251.5070 C.ar  128  PHE128     -0.0203
     67  CD1       86.3310   24.5270  251.2680 C.ar  128  PHE128     -0.0042
     68  CD2       88.3120   24.9010  252.5400 C.ar  128  PHE128     -0.0042
     69  CE1       85.6530   25.4480  252.0460 C.ar  128  PHE128     -0.0003
     70  CE2       87.6390   25.8230  253.3210 C.ar  128  PHE128     -0.0003
     71  CZ        86.3090   26.0970  253.0730 C.ar  128  PHE128     -0.0000
     72  N         86.1000   20.8040  246.0200 N.3   131  PHE131     -0.1227
     73  CA        85.8650   22.0100  245.2320 C.3   131  PHE131      0.1736
     74  C         87.0180   22.3040  244.2760 C.2   131  PHE131      0.2595
     75  O         86.7970   22.7090  243.1350 O.2   131  PHE131     -0.2718
     76  CB        85.6370   23.2130  246.1500 C.3   131  PHE131      0.0547
     77  CG        84.3040   23.2050  246.8420 C.ar  131  PHE131     -0.0202
     78  CD1       83.2730   22.4050  246.3800 C.ar  131  PHE131     -0.0042
     79  CD2       84.0800   24.0030  247.9520 C.ar  131  PHE131     -0.0042
     80  CE1       82.0450   22.3970  247.0140 C.ar  131  PHE131     -0.0003
     81  CE2       82.8540   24.0010  248.5900 C.ar  131  PHE131     -0.0003
     82  CZ        81.8360   23.1970  248.1200 C.ar  131  PHE131     -0.0000
     83  N         88.2450   22.1000  244.7440 N.am  132  TRP132     -0.1976
     84  CA        89.4190   22.3640  243.9210 C.3   132  TRP132      0.1640
     85  C         89.5250   21.3870  242.7530 C.2   132  TRP132      0.2290
     86  O         89.8630   21.7850  241.6390 O.2   132  TRP132     -0.2864
     87  CB        90.6920   22.3120  244.7670 C.3   132  TRP132      0.0576
     88  CG        90.9110   23.5480  245.5850 C.ar  132  TRP132      0.0006
     89  CD1       90.8890   23.6470  246.9450 C.ar  132  TRP132      0.0946
     90  CD2       91.1760   24.8680  245.0900 C.ar  132  TRP132      0.0152
     91  NE1       91.1290   24.9440  247.3280 N.ar  132  TRP132     -0.2442
     92  CE2       91.3080   25.7130  246.2090 C.ar  132  TRP132      0.0810
     93  CE3       91.3160   25.4150  243.8110 C.ar  132  TRP132      0.0012
     94  CZ2       91.5740   27.0770  246.0870 C.ar  132  TRP132      0.0191
     95  CZ3       91.5800   26.7680  243.6920 C.ar  132  TRP132      0.0001
     96  CH2       91.7060   27.5840  244.8230 C.ar  132  TRP132      0.0015
     97  N         87.0170   22.4460  240.3180 N.3   135  PHE135     -0.1241
     98  CA        87.5040   23.6680  239.6890 C.3   135  PHE135      0.1605
     99  C         88.6460   23.3730  238.7190 C.2   135  PHE135      0.2264
    100  O         88.8220   24.0740  237.7230 O.2   135  PHE135     -0.2867
    101  CB        87.9580   24.6680  240.7550 C.3   135  PHE135      0.0534
    102  CG        88.4420   25.9740  240.1950 C.ar  135  PHE135     -0.0203
    103  CD1       87.5420   26.9280  239.7510 C.ar  135  PHE135     -0.0042
    104  CD2       89.7970   26.2520  240.1210 C.ar  135  PHE135     -0.0042
    105  CE1       87.9830   28.1310  239.2370 C.ar  135  PHE135     -0.0003
    106  CE2       90.2450   27.4550  239.6080 C.ar  135  PHE135     -0.0003
    107  CZ        89.3370   28.3950  239.1670 C.ar  135  PHE135     -0.0000
@<TRIPOS>BOND
     1   100    99    2
     2    99    98    1
     3   107   105   ar
     4   107   106   ar
     5   105   103   ar
     6   106   104   ar
     7    98    97    1
     8    98   101    1
     9   103   102   ar
    10   104   102   ar
    11   102   101    1
    12    86    85    2
    13    85    84    1
    14    75    74    2
    15    95    93   ar
    16    95    96   ar
    17    93    90   ar
    18    84    83    1
    19    84    87    1
    20    74    83   am
    21    74    73    1
    22    87    88    1
    23    96    94   ar
    24    90    88   ar
    25    90    92   ar
    26    73    72    1
    27    73    76    1
    28    88    89   ar
    29    94    92   ar
    30    76    77    1
    31    92    91   ar
    32    78    77   ar
    33    78    80   ar
    34    77    79   ar
    35    89    91   ar
    36    80    82   ar
    37    13    14    1
    38    64    63    2
    39    79    81   ar
    40    82    81   ar
    41    28    27    1
    42    17    14    1
    43    17    18    1
    44    14    15    1
    45    63    62    1
    46    21    19   ar
    47     4     3    2
    48    27    29    1
    49    27    26    1
    50    18    19    1
    51    62    65    1
    52    62    61    1
    53    15    16    2
    54    19    20   ar
    55     3     2    1
    56    65    66    1
    57    26    23    1
    58     2     5    1
    59     2     1    1
    60    22    23    1
    61     7     9   ar
    62     7     6   ar
    63    67    66   ar
    64    67    69   ar
    65     5     6    1
    66    66    68   ar
    67     9    11   ar
    68    23    24    1
    69     6     8   ar
    70    69    71   ar
    71    49    48    1
    72    11    12    1
    73    11    10   ar
    74    68    70   ar
    75     8    10   ar
    76    24    30   am
    77    24    25    2
    78    47    48   ar
    79    47    45   ar
    80    71    70   ar
    81    30    31    1
    82    48    46   ar
    83    45    43   ar
    84    34    31    1
    85    34    35    1
    86    31    32    1
    87    46    44   ar
    88    43    44   ar
    89    43    42    1
    90    35    37   ar
    91    35    36   ar
    92    32    33    2
    93    59    58    1
    94    38    39    1
    95    42    39    1
    96    56    55    1
    97    56    57    1
    98    55    54    1
    99    39    40    1
   100    58    57    2
   101    58    60    1
   102    54    51    1
   103    40    41    2
   104    51    52    1
   105    51    50    1
   106    53    52    2
