@<TRIPOS>MOLECULE
tmp/4xt1A07.pdb
 72 66 0 0 0
SMALL
GASTEIGER

@<TRIPOS>ATOM
      1  N        109.4190   35.9230  261.5220 N.3   197  ALA197     -0.1245
      2  CA       110.7980   36.3880  261.6650 C.3   197  ALA197      0.1562
      3  C        110.9860   37.2830  262.8880 C.2   197  ALA197      0.2260
      4  O        112.0930   37.4040  263.4110 O.2   197  ALA197     -0.2867
      5  CB       111.2380   37.1230  260.4060 C.3   197  ALA197      0.0290
      6  N        111.7660   29.8500  263.8870 N.3   204  LYS204     -0.1231
      7  CA       111.4240   30.9590  263.0010 C.3   204  LYS204      0.1693
      8  C        112.3800   31.0710  261.8180 C.2   204  LYS204      0.2592
      9  O        111.9910   31.5100  260.7360 O.2   204  LYS204     -0.2718
     10  CB       111.4060   32.2780  263.7820 C.3   204  LYS204      0.0285
     11  CG       112.7250   32.6330  264.4540 C.3   204  LYS204      0.0035
     12  CD       112.6220   33.9380  265.2300 C.3   204  LYS204      0.0206
     13  CE       113.9320   34.2740  265.9280 C.3   204  LYS204      0.1093
     14  NZ       113.8400   35.5430  266.7030 N.3   204  LYS204     -0.1314
     15  N        113.6290   30.6690  262.0270 N.am  205  GLY205     -0.1957
     16  CA       114.6400   30.7610  260.9920 C.3   205  GLY205      0.1869
     17  C        114.3930   29.8130  259.8350 C.2   205  GLY205      0.2309
     18  O        114.4010   30.2240  258.6750 O.2   205  GLY205     -0.2863
     19  N        111.0560   30.3650  257.5020 N.3   208  VAL208     -0.1231
     20  CA       111.1710   31.3360  256.4210 C.3   208  VAL208      0.1692
     21  C        111.9300   30.7470  255.2330 C.2   208  VAL208      0.2591
     22  O        111.5280   30.9270  254.0850 O.2   208  VAL208     -0.2718
     23  CB       111.8730   32.6240  256.8930 C.3   208  VAL208      0.0266
     24  CG1      111.9920   33.6180  255.7480 C.3   208  VAL208      0.0020
     25  CG2      111.1130   33.2410  258.0560 C.3   208  VAL208      0.0020
     26  N        113.0150   30.0310  255.5160 N.am  209  ARG209     -0.1980
     27  CA       113.8290   29.4220  254.4660 C.3   209  ARG209      0.1597
     28  C        113.0460   28.3860  253.6660 C.2   209  ARG209      0.2287
     29  O        113.2460   28.2370  252.4600 O.2   209  ARG209     -0.2864
     30  CB       115.0790   28.7740  255.0640 C.3   209  ARG209      0.0334
     31  CG       115.9640   29.7370  255.8240 C.3   209  ARG209      0.0492
     32  CD       117.3440   29.1500  256.0610 C.3   209  ARG209      0.2205
     33  NE       117.3030   27.9290  256.8600 N.pl3 209  ARG209     -0.0865
     34  CZ       117.3490   27.9060  258.1880 C.cat 209  ARG209      0.5346
     35  NH1      117.4270   29.0410  258.8690 N.pl3 209  ARG209      0.1354
     36  NH2      117.3100   26.7490  258.8340 N.pl3 209  ARG209      0.1354
     37  N        110.6310   30.3750  251.3780 N.3   212  ILE212     -0.1231
     38  CA       111.3750   31.0110  250.2960 C.3   212  ILE212      0.1692
     39  C        111.7020   29.9910  249.2090 C.2   212  ILE212      0.2591
     40  O        111.5930   30.2800  248.0160 O.2   212  ILE212     -0.2718
     41  CB       112.6800   31.6620  250.8070 C.3   212  ILE212      0.0266
     42  CG1      112.3620   32.8340  251.7340 C.3   212  ILE212      0.0019
     43  CG2      113.5350   32.1420  249.6470 C.3   212  ILE212      0.0020
     44  CD1      113.5780   33.6090  252.1830 C.3   212  ILE212      0.0001
     45  N        112.0870   28.7910  249.6370 N.am  213  ALA213     -0.1980
     46  CA       112.4370   27.7130  248.7190 C.3   213  ALA213      0.1597
     47  C        111.2650   27.3440  247.8150 C.2   213  ALA213      0.2287
     48  O        111.4500   27.0830  246.6270 O.2   213  ALA213     -0.2864
     49  CB       112.9110   26.4950  249.4930 C.3   213  ALA213      0.0319
     50  N        111.1220   30.0290  245.1280 N.3   216  LEU216     -0.1231
     51  CA       112.2860   29.9630  244.2470 C.3   216  LEU216      0.1693
     52  C        112.2360   28.7660  243.3040 C.2   216  LEU216      0.2591
     53  O        112.4870   28.9020  242.1070 O.2   216  LEU216     -0.2718
     54  CB       113.5750   29.9160  245.0700 C.3   216  LEU216      0.0284
     55  CG       113.9630   31.1990  245.8040 C.3   216  LEU216      0.0019
     56  CD1      115.2540   30.9970  246.5770 C.3   216  LEU216      0.0001
     57  CD2      114.0970   32.3550  244.8250 C.3   216  LEU216      0.0001
     58  N        111.9190   27.5960  243.8500 N.am  217  VAL217     -0.1980
     59  CA       111.8430   26.3750  243.0540 C.3   217  VAL217      0.1595
     60  C        110.7500   26.4860  241.9930 C.2   217  VAL217      0.2287
     61  O        110.9390   26.0690  240.8490 O.2   217  VAL217     -0.2864
     62  CB       111.5860   25.1390  243.9440 C.3   217  VAL217      0.0276
     63  CG1      111.2400   23.9240  243.0970 C.3   217  VAL217      0.0022
     64  CG2      112.8000   24.8530  244.8150 C.3   217  VAL217      0.0022
     65  N        112.1540   28.8330  239.0950 N.3   220  ILE220     -0.1245
     66  CA       113.2380   28.2720  238.2900 C.3   220  ILE220      0.1561
     67  C        112.8270   27.0420  237.4770 C.2   220  ILE220      0.2260
     68  O        113.6140   26.5350  236.6780 O.2   220  ILE220     -0.2867
     69  CB       114.4480   27.8900  239.1700 C.3   220  ILE220      0.0252
     70  CG1      114.0790   26.7630  240.1340 C.3   220  ILE220      0.0019
     71  CG2      114.9620   29.1040  239.9310 C.3   220  ILE220      0.0019
     72  CD1      115.2210   26.3250  241.0240 C.3   220  ILE220      0.0001
@<TRIPOS>BOND
     1    68    67    2
     2    67    66    1
     3    66    65    1
     4    66    69    1
     5    69    71    1
     6    69    70    1
     7    70    72    1
     8    61    60    2
     9    60    59    1
    10    53    52    2
    11    59    58    1
    12    59    62    1
    13    63    62    1
    14    52    58   am
    15    52    51    1
    16    62    64    1
    17    51    54    1
    18    51    50    1
    19    57    55    1
    20    54    55    1
    21    55    56    1
    22    48    47    2
    23    47    46    1
    24    40    39    2
    25    46    49    1
    26    46    45    1
    27    39    45   am
    28    39    38    1
    29    43    41    1
    30    38    41    1
    31    38    37    1
    32    41    42    1
    33    42    44    1
    34    29    28    2
    35    28    27    1
    36    22    21    2
    37    27    30    1
    38    27    26    1
    39    30    31    1
    40    21    26   am
    41    21    20    1
    42    24    23    1
    43    31    32    1
    44    32    33    1
    45    20    23    1
    46    20    19    1
    47    33    34    2
    48    23    25    1
    49    34    36    1
    50    34    35    1
    51    18    17    2
    52    17    16    1
    53     5     2    1
    54     9     8    2
    55    16    15    1
    56     1     2    1
    57     2     3    1
    58     8    15   am
    59     8     7    1
    60     3     4    2
    61     7    10    1
    62     7     6    1
    63    10    11    1
    64    11    12    1
    65    12    13    1
    66    13    14    1
