@<TRIPOS>MOLECULE
tmp/4xt1A08.pdb
 108 103 0 0 0
SMALL
GASTEIGER

@<TRIPOS>ATOM
      1  N        109.6810    7.9970  237.4740 N.3    31  LEU31      -0.1231
      2  CA       110.3950    7.1680  238.4370 C.3    31  LEU31       0.1693
      3  C        110.4040    7.8010  239.8250 C.2    31  LEU31       0.2592
      4  O        109.9120    7.2130  240.7880 O.2    31  LEU31      -0.2718
      5  CB       111.8290    6.9160  237.9670 C.3    31  LEU31       0.0284
      6  CG       112.6450    5.9200  238.7930 C.3    31  LEU31       0.0019
      7  CD1      111.9830    4.5500  238.7810 C.3    31  LEU31       0.0001
      8  CD2      114.0730    5.8340  238.2780 C.3    31  LEU31       0.0001
      9  N        110.9620    9.0030  239.9220 N.am   32  PHE32      -0.1976
     10  CA       111.0820    9.6890  241.2030 C.3    32  PHE32       0.1639
     11  C        109.7500   10.2780  241.6590 C.2    32  PHE32       0.2290
     12  O        109.4710   10.3470  242.8560 O.2    32  PHE32      -0.2864
     13  CB       112.1410   10.7900  241.1200 C.3    32  PHE32       0.0560
     14  CG       113.5130   10.2860  240.7720 C.ar   32  PHE32      -0.0200
     15  CD1      114.3250    9.7240  241.7430 C.ar   32  PHE32      -0.0042
     16  CD2      113.9900   10.3740  239.4760 C.ar   32  PHE32      -0.0042
     17  CE1      115.5850    9.2590  241.4270 C.ar   32  PHE32      -0.0003
     18  CE2      115.2500    9.9100  239.1530 C.ar   32  PHE32      -0.0003
     19  CZ       116.0490    9.3520  240.1310 C.ar   32  PHE32      -0.0000
     20  N        107.4950    7.4470  243.1790 N.3    35  ILE35      -0.1231
     21  CA       108.0610    7.0020  244.4470 C.3    35  ILE35       0.1692
     22  C        107.9000    8.0670  245.5250 C.2    35  ILE35       0.2592
     23  O        107.4210    7.7840  246.6240 O.2    35  ILE35      -0.2718
     24  CB       109.5560    6.6500  244.3080 C.3    35  ILE35       0.0266
     25  CG1      109.7330    5.3980  243.4480 C.3    35  ILE35       0.0019
     26  CG2      110.1830    6.4350  245.6770 C.3    35  ILE35       0.0020
     27  CD1      109.1060    4.1560  244.0420 C.3    35  ILE35       0.0001
     28  N        108.2990    9.2920  245.1990 N.am   36  GLY36      -0.1957
     29  CA       108.2500   10.3950  246.1410 C.3    36  GLY36       0.1869
     30  C        106.8500   10.7300  246.6140 C.2    36  GLY36       0.2309
     31  O        106.6420   11.0390  247.7870 O.2    36  GLY36      -0.2863
     32  N        105.4850    7.8780  248.9030 N.3    39  LEU39      -0.1245
     33  CA       106.0430    7.9950  250.2460 C.3    39  LEU39       0.1561
     34  C        105.3390    9.0830  251.0510 C.2    39  LEU39       0.2260
     35  O        105.2200    8.9810  252.2710 O.2    39  LEU39      -0.2867
     36  CB       107.5450    8.2770  250.1780 C.3    39  LEU39       0.0270
     37  CG       108.4340    7.1120  249.7370 C.3    39  LEU39       0.0019
     38  CD1      109.8840    7.5520  249.6290 C.3    39  LEU39       0.0001
     39  CD2      108.2970    5.9450  250.7010 C.3    39  LEU39       0.0001
     40  N        108.0180   16.4470  241.0930 N.3   266  CYS266     -0.1235
     41  CA       108.9020   15.5160  241.7860 C.3   266  CYS266      0.1677
     42  C        109.5160   16.1780  243.0130 C.2   266  CYS266      0.2270
     43  O        109.9610   15.5030  243.9410 O.2   266  CYS266     -0.2867
     44  CB       110.0060   15.0170  240.8510 C.3   266  CYS266      0.0956
     45  SG       109.4200   14.0840  239.4230 S.3   266  CYS266     -0.0801
     46  N        107.1930   16.6800  247.0000 N.3   269  PRO269     -0.2102
     47  CA       107.3760   15.9660  248.2710 C.3   269  PRO269      0.1504
     48  C        108.4770   16.5580  249.1510 C.2   269  PRO269      0.2575
     49  O        108.3870   16.4840  250.3760 O.2   269  PRO269     -0.2718
     50  CB       107.7500   14.5510  247.8220 C.3   269  PRO269      0.0282
     51  CG       107.1030   14.4030  246.5010 C.3   269  PRO269      0.0208
     52  CD       107.2200   15.7510  245.8540 C.3   269  PRO269      0.0893
     53  N        109.5000   17.1390  248.5330 N.am  270  LEU270     -0.1980
     54  CA       110.6210   17.7070  249.2740 C.3   270  LEU270      0.1596
     55  C        110.3380   19.1310  249.7460 C.2   270  LEU270      0.2287
     56  O        111.0760   19.6820  250.5620 O.2   270  LEU270     -0.2864
     57  CB       111.8880   17.6920  248.4150 C.3   270  LEU270      0.0297
     58  CG       112.3890   16.3320  247.9250 C.3   270  LEU270      0.0022
     59  CD1      113.6090   16.5040  247.0350 C.3   270  LEU270      0.0001
     60  CD2      112.7070   15.4240  249.0990 C.3   270  LEU270      0.0001
     61  N        108.2560   16.1830  253.4580 N.3   274  PHE274     -0.1241
     62  CA       109.4990   15.6570  254.0160 C.3   274  PHE274      0.1605
     63  C        110.4830   16.7510  254.4190 C.2   274  PHE274      0.2264
     64  O        111.6540   16.4750  254.6830 O.2   274  PHE274     -0.2867
     65  CB       110.1630   14.7030  253.0220 C.3   274  PHE274      0.0534
     66  CG       109.3340   13.4920  252.7060 C.ar  274  PHE274     -0.0203
     67  CD1      108.9700   12.6070  253.7070 C.ar  274  PHE274     -0.0042
     68  CD2      108.9220   13.2360  251.4090 C.ar  274  PHE274     -0.0042
     69  CE1      108.2060   11.4920  253.4210 C.ar  274  PHE274     -0.0003
     70  CE2      108.1610   12.1220  251.1160 C.ar  274  PHE274     -0.0003
     71  CZ       107.8020   11.2490  252.1240 C.ar  274  PHE274     -0.0000
     72  N        109.8660   13.4050  258.6570 N.3   280  ARG280     -0.1245
     73  CA       111.2040   12.8490  258.4980 C.3   280  ARG280      0.1563
     74  C        111.4280   11.7030  259.4760 C.2   280  ARG280      0.2260
     75  O        111.9530   10.6530  259.1080 O.2   280  ARG280     -0.2867
     76  CB       112.2670   13.9290  258.7020 C.3   280  ARG280      0.0307
     77  CG       112.3580   14.9330  257.5680 C.3   280  ARG280      0.0489
     78  CD       113.3100   16.0630  257.9170 C.3   280  ARG280      0.2205
     79  NE       113.5050   16.9760  256.7970 N.pl3 280  ARG280     -0.0865
     80  CZ       114.2310   18.0880  256.8600 C.cat 280  ARG280      0.5346
     81  NH1      114.8300   18.4270  257.9940 N.pl3 280  ARG280      0.1354
     82  NH2      114.3570   18.8620  255.7900 N.pl3 280  ARG280      0.1354
     83  N        109.0160    8.6550  258.5720 N.3   283  LEU283     -0.1231
     84  CA       109.5320    7.8790  257.4520 C.3   283  LEU283      0.1693
     85  C        110.7350    7.0470  257.8820 C.2   283  LEU283      0.2592
     86  O        110.9370    5.9330  257.3990 O.2   283  LEU283     -0.2718
     87  CB       109.9110    8.7970  256.2890 C.3   283  LEU283      0.0284
     88  CG       110.4500    8.1020  255.0370 C.3   283  LEU283      0.0019
     89  CD1      109.4300    7.1170  254.4860 C.3   283  LEU283      0.0001
     90  CD2      110.8370    9.1240  253.9820 C.3   283  LEU283      0.0001
     91  N        111.5270    7.5940  258.7980 N.am  284  HIS284     -0.1976
     92  CA       112.6920    6.8910  259.3190 C.3   284  HIS284      0.1656
     93  C        112.2640    5.6690  260.1270 C.2   284  HIS284      0.2291
     94  O        112.9570    4.6520  260.1470 O.2   284  HIS284     -0.2864
     95  CB       113.5450    7.8260  260.1780 C.3   284  HIS284      0.0771
     96  CG       114.8850    7.2630  260.5360 C.ar  284  HIS284      0.0820
     97  ND1      115.0980    6.5150  261.6740 N.ar  284  HIS284     -0.2267
     98  CD2      116.0810    7.3390  259.9060 C.ar  284  HIS284      0.1154
     99  CE1      116.3680    6.1540  261.7290 C.ar  284  HIS284      0.1986
    100  NE2      116.9860    6.6410  260.6690 N.ar  284  HIS284     -0.2212
    101  N        110.7170    3.0380  257.4120 N.3   287  LEU287     -0.1245
    102  CA       111.7760    2.3690  256.6640 C.3   287  LEU287      0.1561
    103  C        112.5560    1.4010  257.5490 C.2   287  LEU287      0.2260
    104  O        113.2210    0.4920  257.0520 O.2   287  LEU287     -0.2867
    105  CB       112.7250    3.3960  256.0420 C.3   287  LEU287      0.0270
    106  CG       112.1540    4.2470  254.9060 C.3   287  LEU287      0.0019
    107  CD1      113.1930    5.2340  254.3960 C.3   287  LEU287      0.0001
    108  CD2      111.6500    3.3610  253.7760 C.3   287  LEU287      0.0001
@<TRIPOS>BOND
     1     1     2    1
     2     5     2    1
     3     5     6    1
     4     8     6    1
     5     2     3    1
     6     7     6    1
     7    18    16   ar
     8    18    19   ar
     9    45    44    1
    10    16    14   ar
    11     3     9   am
    12     3     4    2
    13     9    10    1
    14    19    17   ar
    15    14    13    1
    16    14    15   ar
    17    44    41    1
    18    40    41    1
    19    13    10    1
    20    10    11    1
    21    17    15   ar
    22    11    12    2
    23    41    42    1
    24    42    43    2
    25    20    21    1
    26    25    27    1
    27    25    24    1
    28    24    21    1
    29    24    26    1
    30    21    22    1
    31    28    22   am
    32    28    29    1
    33    22    23    2
    34    52    51    1
    35    52    46    1
    36    29    30    1
    37    51    50    1
    38    30    31    2
    39    46    47    1
    40    59    58    1
    41    50    47    1
    42    58    57    1
    43    58    60    1
    44    47    48    1
    45    57    54    1
    46    53    48   am
    47    53    54    1
    48    32    33    1
    49    48    49    2
    50    54    55    1
    51    38    37    1
    52    37    36    1
    53    37    39    1
    54    55    56    2
    55    36    33    1
    56    33    34    1
    57    34    35    2
    58    70    68   ar
    59    70    71   ar
    60    68    66   ar
    61    71    69   ar
    62    66    65    1
    63    66    67   ar
    64    65    62    1
    65    69    67   ar
    66    61    62    1
    67   108   106    1
    68    90    88    1
    69    62    63    1
    70   107   106    1
    71    63    64    2
    72    89    88    1
    73   106   105    1
    74    88    87    1
    75    82    80    1
    76   105   102    1
    77    87    84    1
    78   102   101    1
    79   102   103    1
    80    79    80    2
    81    79    78    1
    82    80    81    1
    83   104   103    2
    84    86    85    2
    85    84    85    1
    86    84    83    1
    87    77    78    1
    88    77    76    1
    89    85    91   am
    90    73    72    1
    91    73    76    1
    92    73    74    1
    93    91    92    1
    94    75    74    2
    95    92    93    1
    96    92    95    1
    97    98    96   ar
    98    98   100   ar
    99    93    94    2
   100    95    96    1
   101    96    97   ar
   102   100    99   ar
   103    97    99   ar
