@<TRIPOS>MOLECULE
tmp/4xt1A03.pdb
 91 87 0 0 0
SMALL
GASTEIGER

@<TRIPOS>ATOM
      1  N         96.5950   21.1260  236.6620 N.3    97  PHE97      -0.1241
      2  CA        95.9280   22.2820  237.2470 C.3    97  PHE97       0.1605
      3  C         95.5990   22.0490  238.7200 C.2    97  PHE97       0.2264
      4  O         95.7270   22.9590  239.5390 O.2    97  PHE97      -0.2867
      5  CB        94.6570   22.6230  236.4640 C.3    97  PHE97       0.0534
      6  CG        94.9170   23.3640  235.1800 C.ar   97  PHE97      -0.0203
      7  CD1       95.3100   24.6920  235.2010 C.ar   97  PHE97      -0.0042
      8  CD2       94.7600   22.7360  233.9560 C.ar   97  PHE97      -0.0042
      9  CE1       95.5490   25.3780  234.0250 C.ar   97  PHE97      -0.0003
     10  CE2       94.9970   23.4170  232.7770 C.ar   97  PHE97      -0.0003
     11  CZ        95.3910   24.7390  232.8120 C.ar   97  PHE97      -0.0000
     12  N         98.5270   22.6190  240.8360 N.3   100  LEU100     -0.1231
     13  CA        98.7450   24.0460  241.0290 C.3   100  LEU100      0.1693
     14  C         97.6820   24.6480  241.9420 C.2   100  LEU100      0.2592
     15  O         97.9370   25.6220  242.6490 O.2   100  LEU100     -0.2718
     16  CB        98.7540   24.7670  239.6810 C.3   100  LEU100      0.0284
     17  CG        99.8550   24.3190  238.7200 C.3   100  LEU100      0.0019
     18  CD1       99.4900   24.6680  237.2910 C.3   100  LEU100      0.0001
     19  CD2      101.1850   24.9480  239.1050 C.3   100  LEU100      0.0001
     20  N         96.4890   24.0620  241.9200 N.am  101  CYS101     -0.1970
     21  CA        95.3940   24.5310  242.7590 C.3   101  CYS101      0.1712
     22  C         95.6640   24.2620  244.2350 C.2   101  CYS101      0.2296
     23  O         95.4830   25.1420  245.0770 O.2   101  CYS101     -0.2864
     24  CB        94.0770   23.8730  242.3400 C.3   101  CYS101      0.0983
     25  SG        93.3020   24.6150  240.8880 S.3   101  CYS101     -0.0798
     26  N         98.4900   26.3150  245.6600 N.3   104  THR104     -0.1218
     27  CA        97.9310   27.6090  246.0240 C.3   104  THR104      0.1862
     28  C         97.1560   27.4960  247.3340 C.2   104  THR104      0.2287
     29  O         97.1950   28.3960  248.1730 O.2   104  THR104     -0.2866
     30  CB        97.0040   28.1510  244.9170 C.3   104  THR104      0.1770
     31  OG1       97.7420   28.2850  243.6970 O.3   104  THR104     -0.2211
     32  CG2       96.4280   29.5040  245.3070 C.3   104  THR104      0.0375
     33  N         97.3170   29.5290  251.1280 N.3   108  LEU108     -0.1245
     34  CA        96.1080   30.1560  251.6550 C.3   108  LEU108      0.1561
     35  C         95.7340   29.6070  253.0280 C.2   108  LEU108      0.2260
     36  O         95.4630   30.3700  253.9560 O.2   108  LEU108     -0.2867
     37  CB        94.9410   29.9630  250.6850 C.3   108  LEU108      0.0270
     38  CG        95.0350   30.6980  249.3490 C.3   108  LEU108      0.0019
     39  CD1       93.8670   30.3230  248.4510 C.3   108  LEU108      0.0001
     40  CD2       95.0790   32.2000  249.5750 C.3   108  LEU108      0.0001
     41  N         88.2450   22.1000  244.7440 N.3   132  TRP132     -0.1241
     42  CA        89.4190   22.3640  243.9210 C.3   132  TRP132      0.1605
     43  C         89.5250   21.3870  242.7530 C.2   132  TRP132      0.2264
     44  O         89.8630   21.7850  241.6390 O.2   132  TRP132     -0.2867
     45  CB        90.6920   22.3120  244.7670 C.3   132  TRP132      0.0550
     46  CG        90.9110   23.5480  245.5850 C.ar  132  TRP132      0.0003
     47  CD1       90.8890   23.6470  246.9450 C.ar  132  TRP132      0.0946
     48  CD2       91.1760   24.8680  245.0900 C.ar  132  TRP132      0.0152
     49  NE1       91.1290   24.9440  247.3280 N.ar  132  TRP132     -0.2442
     50  CE2       91.3080   25.7130  246.2090 C.ar  132  TRP132      0.0810
     51  CE3       91.3160   25.4150  243.8110 C.ar  132  TRP132      0.0012
     52  CZ2       91.5740   27.0770  246.0870 C.ar  132  TRP132      0.0191
     53  CZ3       91.5800   26.7680  243.6920 C.ar  132  TRP132      0.0001
     54  CH2       91.7060   27.5840  244.8230 C.ar  132  TRP132      0.0015
     55  N         87.0170   22.4460  240.3180 N.3   135  PHE135     -0.1241
     56  CA        87.5040   23.6680  239.6890 C.3   135  PHE135      0.1605
     57  C         88.6460   23.3730  238.7190 C.2   135  PHE135      0.2264
     58  O         88.8220   24.0740  237.7230 O.2   135  PHE135     -0.2867
     59  CB        87.9580   24.6680  240.7550 C.3   135  PHE135      0.0534
     60  CG        88.4420   25.9740  240.1950 C.ar  135  PHE135     -0.0203
     61  CD1       87.5420   26.9280  239.7510 C.ar  135  PHE135     -0.0042
     62  CD2       89.7970   26.2520  240.1210 C.ar  135  PHE135     -0.0042
     63  CE1       87.9830   28.1310  239.2370 C.ar  135  PHE135     -0.0003
     64  CE2       90.2450   27.4550  239.6080 C.ar  135  PHE135     -0.0003
     65  CZ        89.3370   28.3950  239.1670 C.ar  135  PHE135     -0.0000
     66  N         96.7840   31.4540  234.5260 N.3   176  GLY176     -0.1225
     67  CA        96.1640   30.4610  235.3820 C.3   176  GLY176      0.1811
     68  C         97.1470   29.5270  236.0600 C.2   176  GLY176      0.2280
     69  O         96.9510   29.1430  237.2130 O.2   176  GLY176     -0.2866
     70  N         98.7890   33.8210  238.5270 N.3   180  ILE180     -0.1231
     71  CA        97.9240   33.7670  239.7050 C.3   180  ILE180      0.1678
     72  C         98.4880   32.8960  240.8430 C.2   180  ILE180      0.2434
     73  O         98.5010   33.3380  241.9920 O.2   180  ILE180     -0.2733
     74  CB        96.5020   33.2730  239.3370 C.3   180  ILE180      0.0265
     75  CG1       95.8170   34.2690  238.3990 C.3   180  ILE180      0.0019
     76  CG2       95.6630   33.0680  240.5890 C.3   180  ILE180      0.0020
     77  CD1       94.4460   33.8270  237.9330 C.3   180  ILE180      0.0001
     78  N         98.9570   31.6640  240.5430 N.am  181  PRO181     -0.2729
     79  CA        99.5040   30.8800  241.6590 C.3   181  PRO181      0.1401
     80  C        100.7530   31.5000  242.2870 C.2   181  PRO181      0.2269
     81  O        100.8790   31.5090  243.5110 O.2   181  PRO181     -0.2865
     82  CB        99.8470   29.5340  241.0080 C.3   181  PRO181      0.0296
     83  CG        98.9810   29.4620  239.8070 C.3   181  PRO181      0.0237
     84  CD        98.9090   30.8670  239.3030 C.3   181  PRO181      0.0939
     85  N         99.8400   34.5530  244.4790 N.3   184  VAL184     -0.1245
     86  CA        99.1930   34.2090  245.7390 C.3   184  VAL184      0.1561
     87  C        100.1900   33.6650  246.7590 C.2   184  VAL184      0.2260
     88  O        100.2510   34.1480  247.8890 O.2   184  VAL184     -0.2867
     89  CB        98.0680   33.1750  245.5330 C.3   184  VAL184      0.0252
     90  CG1       97.5800   32.6440  246.8710 C.3   184  VAL184      0.0019
     91  CG2       96.9180   33.7920  244.7490 C.3   184  VAL184      0.0019
@<TRIPOS>BOND
     1    10    11   ar
     2    10     8   ar
     3    11     9   ar
     4     8     6   ar
     5     9     7   ar
     6    66    67    1
     7     6     7   ar
     8     6     5    1
     9    67    68    1
    10    68    69    2
    11     5     2    1
    12     1     2    1
    13     2     3    1
    14    18    17    1
    15    58    57    2
    16    77    75    1
    17    75    74    1
    18    70    71    1
    19    57    56    1
    20    17    19    1
    21    17    16    1
    22     3     4    2
    23    65    63   ar
    24    65    64   ar
    25    63    61   ar
    26    84    83    1
    27    84    78    1
    28    74    71    1
    29    74    76    1
    30    64    62   ar
    31    16    13    1
    32    56    55    1
    33    56    59    1
    34    71    72    1
    35    61    60   ar
    36    83    82    1
    37    62    60   ar
    38    60    59    1
    39    78    72   am
    40    78    79    1
    41    12    13    1
    42    72    73    2
    43    25    24    1
    44    82    79    1
    45    13    14    1
    46    44    43    2
    47    79    80    1
    48    20    14   am
    49    20    21    1
    50    14    15    2
    51    80    81    2
    52    24    21    1
    53    43    42    1
    54    21    22    1
    55    53    51   ar
    56    53    54   ar
    57    31    30    1
    58    51    48   ar
    59    42    41    1
    60    42    45    1
    61    22    23    2
    62    85    86    1
    63    91    89    1
    64    45    46    1
    65    54    52   ar
    66    30    32    1
    67    30    27    1
    68    48    46   ar
    69    48    50   ar
    70    89    86    1
    71    89    90    1
    72    46    47   ar
    73    26    27    1
    74    86    87    1
    75    27    28    1
    76    52    50   ar
    77    50    49   ar
    78    87    88    2
    79    47    49   ar
    80    28    29    2
    81    39    38    1
    82    38    40    1
    83    38    37    1
    84    37    34    1
    85    33    34    1
    86    34    35    1
    87    35    36    2
