@<TRIPOS>MOLECULE
tmp/4xt1A10.pdb
 92 90 0 0 0
SMALL
GASTEIGER

@<TRIPOS>ATOM
      1  N        100.6570   30.0860  236.1180 N.3   178  PHE178     -0.1227
      2  CA       101.8620   30.7530  236.5980 C.3   178  PHE178      0.1736
      3  C        101.5690   32.0350  237.3760 C.2   178  PHE178      0.2595
      4  O        101.8520   32.1120  238.5690 O.2   178  PHE178     -0.2718
      5  CB       102.8020   31.0640  235.4320 C.3   178  PHE178      0.0547
      6  CG       104.1430   31.5870  235.8620 C.ar  178  PHE178     -0.0202
      7  CD1      105.1420   30.7160  236.2650 C.ar  178  PHE178     -0.0042
      8  CD2      104.4050   32.9490  235.8690 C.ar  178  PHE178     -0.0042
      9  CE1      106.3770   31.1900  236.6650 C.ar  178  PHE178     -0.0003
     10  CE2      105.6390   33.4300  236.2690 C.ar  178  PHE178     -0.0003
     11  CZ       106.6260   32.5490  236.6670 C.ar  178  PHE178     -0.0000
     12  N        101.0090   33.0340  236.6980 N.am  179  VAL179     -0.1980
     13  CA       100.8180   34.3580  237.2910 C.3   179  VAL179      0.1595
     14  C        100.0180   34.3250  238.5910 C.2   179  VAL179      0.2287
     15  O        100.5120   34.7480  239.6340 O.2   179  VAL179     -0.2864
     16  CB       100.1160   35.3180  236.3110 C.3   179  VAL179      0.0276
     17  CG1       99.8680   36.6640  236.9750 C.3   179  VAL179      0.0022
     18  CG2      100.9460   35.4860  235.0470 C.3   179  VAL179      0.0022
     19  N        101.6590   32.0090  241.4580 N.3   182  LEU182     -0.1231
     20  CA       102.8990   32.5960  241.9540 C.3   182  LEU182      0.1693
     21  C        102.6220   33.8800  242.7310 C.2   182  LEU182      0.2592
     22  O        103.3230   34.1920  243.6890 O.2   182  LEU182     -0.2718
     23  CB       103.8670   32.8660  240.7960 C.3   182  LEU182      0.0284
     24  CG       105.3370   33.1720  241.1010 C.3   182  LEU182      0.0019
     25  CD1      105.5730   34.6630  241.3020 C.3   182  LEU182      0.0001
     26  CD2      105.8120   32.3850  242.3150 C.3   182  LEU182      0.0001
     27  N        101.5950   34.6170  242.3180 N.am  183  SER183     -0.1952
     28  CA       101.2340   35.8620  242.9900 C.3   183  SER183      0.1924
     29  C        100.6550   35.5970  244.3740 C.2   183  SER183      0.2314
     30  O        100.9430   36.3220  245.3260 O.2   183  SER183     -0.2863
     31  CB       100.2330   36.6580  242.1500 C.3   183  SER183      0.2116
     32  OG       100.7960   37.0350  240.9050 O.3   183  SER183     -0.2180
     33  N        103.3230   33.9830  246.8560 N.3   186  SER186     -0.1202
     34  CA       104.3610   34.9560  247.1780 C.3   186  SER186      0.2020
     35  C        103.8580   35.9450  248.2200 C.2   186  SER186      0.2618
     36  O        104.5450   36.2270  249.2000 O.2   186  SER186     -0.2717
     37  CB       104.8220   35.7020  245.9250 C.3   186  SER186      0.2103
     38  OG       105.3540   34.8050  244.9640 O.3   186  SER186     -0.2182
     39  N        102.6550   36.4680  247.9990 N.am  187  TYR187     -0.1975
     40  CA       102.0410   37.4040  248.9340 C.3   187  TYR187      0.1639
     41  C        101.8010   36.7460  250.2840 C.2   187  TYR187      0.2290
     42  O        102.0970   37.3240  251.3290 O.2   187  TYR187     -0.2864
     43  CB       100.7220   37.9450  248.3750 C.3   187  TYR187      0.0560
     44  CG        99.9440   38.7980  249.3570 C.ar  187  TYR187     -0.0198
     45  CD1      100.2760   40.1300  249.5650 C.ar  187  TYR187     -0.0009
     46  CD2       98.8740   38.2710  250.0730 C.ar  187  TYR187     -0.0009
     47  CE1       99.5690   40.9130  250.4600 C.ar  187  TYR187      0.0417
     48  CE2       98.1620   39.0460  250.9700 C.ar  187  TYR187      0.0417
     49  CZ        98.5140   40.3670  251.1580 C.ar  187  TYR187      0.1957
     50  OH        97.8080   41.1430  252.0490 O.3   187  TYR187     -0.2866
     51  N        105.1620   35.8630  252.0390 N.3   190  TYR190     -0.1227
     52  CA       105.8430   37.0870  252.4580 C.3   190  TYR190      0.1736
     53  C        105.2520   37.5940  253.7650 C.2   190  TYR190      0.2595
     54  O        105.9820   37.9380  254.6970 O.2   190  TYR190     -0.2718
     55  CB       105.7520   38.1830  251.3890 C.3   190  TYR190      0.0548
     56  CG       106.2630   39.5380  251.8470 C.ar  190  TYR190     -0.0200
     57  CD1      107.6160   39.8620  251.7830 C.ar  190  TYR190     -0.0009
     58  CD2      105.3880   40.4880  252.3390 C.ar  190  TYR190     -0.0009
     59  CE1      108.0750   41.1020  252.1990 C.ar  190  TYR190      0.0417
     60  CE2      105.8310   41.7170  252.7590 C.ar  190  TYR190      0.0417
     61  CZ       107.1720   42.0200  252.6840 C.ar  190  TYR190      0.1957
     62  OH       107.6050   43.2470  253.1010 O.3   190  TYR190     -0.2866
     63  N        103.9250   37.6470  253.8160 N.am  191  ARG191     -0.1980
     64  CA       103.2080   38.0610  255.0140 C.3   191  ARG191      0.1597
     65  C        103.5230   37.1470  256.1940 C.2   191  ARG191      0.2287
     66  O        103.7500   37.6140  257.3100 O.2   191  ARG191     -0.2864
     67  CB       101.6990   38.0740  254.7520 C.3   191  ARG191      0.0334
     68  CG       101.2190   39.1560  253.7960 C.3   191  ARG191      0.0492
     69  CD       101.3660   40.5390  254.4040 C.3   191  ARG191      0.2205
     70  NE       100.7590   40.6190  255.7290 N.pl3 191  ARG191     -0.0865
     71  CZ        99.4680   40.8420  255.9500 C.cat 191  ARG191      0.5346
     72  NH1       98.6350   41.0020  254.9310 N.pl3 191  ARG191      0.1354
     73  NH2       99.0090   40.9000  257.1930 N.pl3 191  ARG191      0.1354
     74  N        107.1880   37.4490  257.3740 N.3   194  ARG194     -0.1231
     75  CA       107.4420   38.7400  257.9990 C.3   194  ARG194      0.1694
     76  C        106.9170   38.7880  259.4310 C.2   194  ARG194      0.2591
     77  O        107.3220   39.6400  260.2210 O.2   194  ARG194     -0.2718
     78  CB       106.8180   39.8620  257.1660 C.3   194  ARG194      0.0321
     79  CG       107.4480   41.2280  257.3850 C.3   194  ARG194      0.0489
     80  CD       108.7210   41.4280  256.5590 C.3   194  ARG194      0.2205
     81  NE       109.8070   40.5280  256.9410 N.pl3 194  ARG194     -0.0865
     82  CZ       110.5540   40.6720  258.0320 C.cat 194  ARG194      0.5346
     83  NH1      110.3350   41.6810  258.8630 N.pl3 194  ARG194      0.1354
     84  NH2      111.5180   39.8010  258.2960 N.pl3 194  ARG194      0.1354
     85  N        106.0170   37.8670  259.7580 N.am  195  ILE195     -0.1980
     86  CA       105.4540   37.7800  261.1000 C.3   195  ILE195      0.1595
     87  C        106.2850   36.8510  261.9780 C.2   195  ILE195      0.2287
     88  O        106.5900   37.1670  263.1290 O.2   195  ILE195     -0.2864
     89  CB       103.9940   37.2840  261.0630 C.3   195  ILE195      0.0276
     90  CG1      103.0900   38.3540  260.4490 C.3   195  ILE195      0.0022
     91  CG2      103.5080   36.9150  262.4570 C.3   195  ILE195      0.0022
     92  CD1      101.6240   38.0190  260.5210 C.3   195  ILE195      0.0001
@<TRIPOS>BOND
     1    18    16    1
     2     5     6    1
     3     5     2    1
     4     6     8   ar
     5     6     7   ar
     6     8    10   ar
     7     1     2    1
     8     7     9   ar
     9    10    11   ar
    10    16    17    1
    11    16    13    1
    12     2     3    1
    13     9    11   ar
    14    12    13    1
    15    12     3   am
    16    13    14    1
    17     3     4    2
    18    14    15    2
    19    23    24    1
    20    23    20    1
    21    32    31    1
    22    24    25    1
    23    24    26    1
    24    19    20    1
    25    20    21    1
    26    31    28    1
    27    27    21   am
    28    27    28    1
    29    21    22    2
    30    28    29    1
    31    29    30    2
    32    38    37    1
    33    37    34    1
    34    33    34    1
    35    34    35    1
    36    39    35   am
    37    39    40    1
    38    35    36    2
    39    43    40    1
    40    43    44    1
    41    40    41    1
    42    44    45   ar
    43    44    46   ar
    44    45    47   ar
    45    46    48   ar
    46    41    42    2
    47    47    49   ar
    48    48    49   ar
    49    49    50    1
    50    55    56    1
    51    55    52    1
    52    57    56   ar
    53    57    59   ar
    54    56    58   ar
    55    51    52    1
    56    59    61   ar
    57    58    60   ar
    58    52    53    1
    59    61    60   ar
    60    61    62    1
    61    53    63   am
    62    53    54    2
    63    68    69    1
    64    68    67    1
    65    63    64    1
    66    69    70    1
    67    67    64    1
    68    72    71    1
    69    64    65    1
    70    70    71    2
    71    71    73    1
    72    65    66    2
    73    80    81    1
    74    80    79    1
    75    81    82    2
    76    78    79    1
    77    78    75    1
    78    74    75    1
    79    75    76    1
    80    82    84    1
    81    82    83    1
    82    76    85   am
    83    76    77    2
    84    85    86    1
    85    90    92    1
    86    90    89    1
    87    89    86    1
    88    89    91    1
    89    86    87    1
    90    87    88    2
