@<TRIPOS>MOLECULE
tmp/4xt1A11.pdb
 84 79 0 0 0
SMALL
GASTEIGER

@<TRIPOS>ATOM
      1  N        112.0870   28.7910  249.6370 N.3   213  ALA213     -0.1245
      2  CA       112.4370   27.7130  248.7190 C.3   213  ALA213      0.1562
      3  C        111.2650   27.3440  247.8150 C.2   213  ALA213      0.2260
      4  O        111.4500   27.0830  246.6270 O.2   213  ALA213     -0.2867
      5  CB       112.9110   26.4950  249.4930 C.3   213  ALA213      0.0290
      6  N        111.9190   27.5960  243.8500 N.3   217  VAL217     -0.1245
      7  CA       111.8430   26.3750  243.0540 C.3   217  VAL217      0.1561
      8  C        110.7500   26.4860  241.9930 C.2   217  VAL217      0.2260
      9  O        110.9390   26.0690  240.8490 O.2   217  VAL217     -0.2867
     10  CB       111.5860   25.1390  243.9440 C.3   217  VAL217      0.0252
     11  CG1      111.2400   23.9240  243.0970 C.3   217  VAL217      0.0019
     12  CG2      112.8000   24.8530  244.8150 C.3   217  VAL217      0.0019
     13  N        112.1540   28.8330  239.0950 N.3   220  ILE220     -0.1231
     14  CA       113.2380   28.2720  238.2900 C.3   220  ILE220      0.1692
     15  C        112.8270   27.0420  237.4770 C.2   220  ILE220      0.2592
     16  O        113.6140   26.5350  236.6780 O.2   220  ILE220     -0.2718
     17  CB       114.4480   27.8900  239.1700 C.3   220  ILE220      0.0266
     18  CG1      114.0790   26.7630  240.1340 C.3   220  ILE220      0.0019
     19  CG2      114.9620   29.1040  239.9310 C.3   220  ILE220      0.0020
     20  CD1      115.2210   26.3250  241.0240 C.3   220  ILE220      0.0001
     21  N        111.6020   26.5660  237.6720 N.am  221  PHE221     -0.1976
     22  CA       111.1250   25.3910  236.9470 C.3   221  PHE221      0.1639
     23  C        109.9570   25.7030  236.0130 C.2   221  PHE221      0.2290
     24  O        109.7510   25.0040  235.0220 O.2   221  PHE221     -0.2864
     25  CB       110.7210   24.2860  237.9270 C.3   221  PHE221      0.0560
     26  CG       111.8680   23.4260  238.3760 C.ar  221  PHE221     -0.0200
     27  CD1      112.3100   22.3750  237.5890 C.ar  221  PHE221     -0.0042
     28  CD2      112.5030   23.6640  239.5840 C.ar  221  PHE221     -0.0042
     29  CE1      113.3650   21.5800  237.9950 C.ar  221  PHE221     -0.0003
     30  CE2      113.5600   22.8730  239.9970 C.ar  221  PHE221     -0.0003
     31  CZ       113.9910   21.8290  239.2010 C.ar  221  PHE221     -0.0000
     32  N        109.5350   17.5070  243.0060 N.3   267  LEU267     -0.1245
     33  CA       110.1340   18.2780  244.0890 C.3   267  LEU267      0.1561
     34  C        109.1130   18.6260  245.1690 C.2   267  LEU267      0.2260
     35  O        109.4820   18.9810  246.2880 O.2   267  LEU267     -0.2867
     36  CB       110.7750   19.5570  243.5420 C.3   267  LEU267      0.0270
     37  CG       112.2370   19.4840  243.0870 C.3   267  LEU267      0.0019
     38  CD1      113.1340   19.0550  244.2400 C.3   267  LEU267      0.0001
     39  CD2      112.4100   18.5540  241.8950 C.3   267  LEU267      0.0001
     40  N        109.5000   17.1390  248.5330 N.3   270  LEU270     -0.1231
     41  CA       110.6210   17.7070  249.2740 C.3   270  LEU270      0.1693
     42  C        110.3380   19.1310  249.7460 C.2   270  LEU270      0.2591
     43  O        111.0760   19.6820  250.5620 O.2   270  LEU270     -0.2718
     44  CB       111.8880   17.6920  248.4150 C.3   270  LEU270      0.0284
     45  CG       112.3890   16.3320  247.9250 C.3   270  LEU270      0.0019
     46  CD1      113.6090   16.5040  247.0350 C.3   270  LEU270      0.0001
     47  CD2      112.7070   15.4240  249.0990 C.3   270  LEU270      0.0001
     48  N        109.2640   19.7190  249.2310 N.am  271  LEU271     -0.1980
     49  CA       108.9650   21.1230  249.4870 C.3   271  LEU271      0.1596
     50  C        107.9800   21.3340  250.6360 C.2   271  LEU271      0.2287
     51  O        107.9660   22.3970  251.2570 O.2   271  LEU271     -0.2864
     52  CB       108.4180   21.7770  248.2160 C.3   271  LEU271      0.0297
     53  CG       109.3990   22.5710  247.3480 C.3   271  LEU271      0.0022
     54  CD1      110.7020   21.8210  247.1490 C.3   271  LEU271      0.0001
     55  CD2      108.7680   22.8940  246.0050 C.3   271  LEU271      0.0001
     56  N        108.2560   16.1830  253.4580 N.3   274  PHE274     -0.1227
     57  CA       109.4990   15.6570  254.0160 C.3   274  PHE274      0.1736
     58  C        110.4830   16.7510  254.4190 C.2   274  PHE274      0.2595
     59  O        111.6540   16.4750  254.6830 O.2   274  PHE274     -0.2718
     60  CB       110.1630   14.7030  253.0220 C.3   274  PHE274      0.0547
     61  CG       109.3340   13.4920  252.7060 C.ar  274  PHE274     -0.0202
     62  CD1      108.9700   12.6070  253.7070 C.ar  274  PHE274     -0.0042
     63  CD2      108.9220   13.2360  251.4090 C.ar  274  PHE274     -0.0042
     64  CE1      108.2060   11.4920  253.4210 C.ar  274  PHE274     -0.0003
     65  CE2      108.1610   12.1220  251.1160 C.ar  274  PHE274     -0.0003
     66  CZ       107.8020   11.2490  252.1240 C.ar  274  PHE274     -0.0000
     67  N        110.0070   17.9900  254.4670 N.am  275  VAL275     -0.1980
     68  CA       110.8170   19.0970  254.9530 C.3   275  VAL275      0.1595
     69  C        110.5270   19.2980  256.4390 C.2   275  VAL275      0.2287
     70  O        111.2670   19.9850  257.1450 O.2   275  VAL275     -0.2864
     71  CB       110.5410   20.3970  254.1690 C.3   275  VAL275      0.0276
     72  CG1      109.2130   21.0050  254.5890 C.3   275  VAL275      0.0022
     73  CG2      111.6750   21.3920  254.3630 C.3   275  VAL275      0.0022
     74  N        109.8660   13.4050  258.6570 N.3   280  ARG280     -0.1245
     75  CA       111.2040   12.8490  258.4980 C.3   280  ARG280      0.1563
     76  C        111.4280   11.7030  259.4760 C.2   280  ARG280      0.2260
     77  O        111.9530   10.6530  259.1080 O.2   280  ARG280     -0.2867
     78  CB       112.2670   13.9290  258.7020 C.3   280  ARG280      0.0307
     79  CG       112.3580   14.9330  257.5680 C.3   280  ARG280      0.0489
     80  CD       113.3100   16.0630  257.9170 C.3   280  ARG280      0.2205
     81  NE       113.5050   16.9760  256.7970 N.pl3 280  ARG280     -0.0865
     82  CZ       114.2310   18.0880  256.8600 C.cat 280  ARG280      0.5346
     83  NH1      114.8300   18.4270  257.9940 N.pl3 280  ARG280      0.1354
     84  NH2      114.3570   18.8620  255.7900 N.pl3 280  ARG280      0.1354
@<TRIPOS>BOND
     1    24    23    2
     2    23    22    1
     3    16    15    2
     4    22    21    1
     5    22    25    1
     6    15    21   am
     7    15    14    1
     8    27    29   ar
     9    27    26   ar
    10    25    26    1
    11    29    31   ar
    12    14    13    1
    13    14    17    1
    14    26    28   ar
    15    17    19    1
    16    17    18    1
    17    31    30   ar
    18    28    30   ar
    19    18    20    1
    20     9     8    2
    21    39    37    1
    22     8     7    1
    23    32    33    1
    24     7     6    1
    25     7    10    1
    26    37    36    1
    27    37    38    1
    28    11    10    1
    29    36    33    1
    30    10    12    1
    31    33    34    1
    32    34    35    2
    33    55    53    1
    34     4     3    2
    35    46    45    1
    36    54    53    1
    37    53    52    1
    38     3     2    1
    39    45    44    1
    40    45    47    1
    41    52    49    1
    42    44    41    1
    43    40    41    1
    44     2     5    1
    45     2     1    1
    46    48    49    1
    47    48    42   am
    48    41    42    1
    49    49    50    1
    50    42    43    2
    51    50    51    2
    52    65    63   ar
    53    65    66   ar
    54    63    61   ar
    55    66    64   ar
    56    61    60    1
    57    61    62   ar
    58    60    57    1
    59    64    62   ar
    60    56    57    1
    61    57    58    1
    62    71    73    1
    63    71    72    1
    64    71    68    1
    65    58    67   am
    66    58    59    2
    67    67    68    1
    68    68    69    1
    69    84    82    1
    70    69    70    2
    71    81    82    2
    72    81    80    1
    73    82    83    1
    74    79    80    1
    75    79    78    1
    76    75    74    1
    77    75    78    1
    78    75    76    1
    79    77    76    2
