@<TRIPOS>MOLECULE
tmp/4xt2D00.pdb
 194 180 0 0 0
SMALL
GASTEIGER

@<TRIPOS>ATOM
      1  N         56.2020   -9.4070    8.5860 N.3     9  PHE9       -0.1241
      2  CA        56.4080   -9.2210   10.0180 C.3     9  PHE9        0.1605
      3  C         55.1480   -8.7330   10.6960 C.2     9  PHE9        0.2264
      4  O         54.3370   -8.0450   10.0880 O.2     9  PHE9       -0.2867
      5  CB        57.5910   -8.3010   10.3380 C.3     9  PHE9        0.0534
      6  CG        57.4360   -6.8850    9.8430 C.ar    9  PHE9       -0.0203
      7  CD1       56.9970   -5.8810   10.6900 C.ar    9  PHE9       -0.0042
      8  CD2       57.7900   -6.5470    8.5530 C.ar    9  PHE9       -0.0042
      9  CE1       56.8720   -4.5700   10.2380 C.ar    9  PHE9       -0.0003
     10  CE2       57.6680   -5.2150    8.0960 C.ar    9  PHE9       -0.0003
     11  CZ        57.2150   -4.2380    8.9550 C.ar    9  PHE9       -0.0000
     12  N         53.0430   -6.7350   13.7400 N.3    11  SER11      -0.1217
     13  CA        53.1840   -5.5840   14.6120 C.3    11  SER11       0.1889
     14  C         51.8700   -5.2790   15.3240 C.2    11  SER11       0.2288
     15  O         50.7990   -5.7080   14.9090 O.2    11  SER11      -0.2866
     16  CB        53.7030   -4.3740   13.8310 C.3    11  SER11       0.2089
     17  OG        52.7760   -3.9460   12.8400 O.3    11  SER11      -0.2183
     18  N         49.7790   -2.0600   17.5180 N.3    13  HIS13      -0.1226
     19  CA        49.7180   -0.6020   17.6040 C.3    13  HIS13       0.1752
     20  C         48.6410   -0.1320   18.5470 C.2    13  HIS13       0.2596
     21  O         47.6240   -0.7850   18.6930 O.2    13  HIS13      -0.2718
     22  CB        49.4400   -0.0430   16.2140 C.3    13  HIS13       0.0759
     23  CG        50.3890   -0.5860   15.2060 C.ar   13  HIS13       0.0818
     24  ND1       51.5640    0.0510   14.8990 N.ar   13  HIS13      -0.2268
     25  CD2       50.4100   -1.7680   14.5420 C.ar   13  HIS13       0.1154
     26  CE1       52.2560   -0.6950   14.0560 C.ar   13  HIS13       0.1986
     27  NE2       51.5750   -1.7960   13.8180 N.ar   13  HIS13      -0.2212
     28  N         48.8660    0.9990   19.2120 N.am   14  SER14      -0.1952
     29  CA        47.7850    1.5790   19.9830 C.3    14  SER14       0.1924
     30  C         46.9010    2.3330   18.9930 C.2    14  SER14       0.2314
     31  O         47.1820    2.3260   17.7820 O.2    14  SER14      -0.2863
     32  CB        48.3110    2.4440   21.1300 C.3    14  SER14       0.2116
     33  OG        49.4100    3.2040   20.7110 O.3    14  SER14      -0.2180
     34  N         48.3530    5.4330   16.5950 N.3    17  MET17      -0.1245
     35  CA        49.4060    5.2430   15.5860 C.3    17  MET17       0.1570
     36  C         50.7600    4.8240   16.1470 C.2    17  MET17       0.2261
     37  O         51.7270    4.7820   15.3810 O.2    17  MET17      -0.2867
     38  CB        49.6400    6.5210   14.7410 C.3    17  MET17       0.0387
     39  CG        48.4020    7.2110   14.1960 C.3    17  MET17       0.0595
     40  SD        47.4560    6.1500   13.0890 S.3    17  MET17      -0.1393
     41  CE        48.7640    5.4340   12.0860 C.3    17  MET17       0.0692
     42  N         53.6640    2.3110   17.6940 N.3    19  PHE19      -0.1241
     43  CA        54.0680    0.9090   17.8440 C.3    19  PHE19       0.1605
     44  C         54.0480    0.4880   19.3040 C.2    19  PHE19       0.2264
     45  O         54.6130    1.1810   20.1680 O.2    19  PHE19      -0.2867
     46  CB        55.5020    0.7060   17.3420 C.3    19  PHE19       0.0534
     47  CG        55.6590    0.8350   15.8560 C.ar   19  PHE19      -0.0203
     48  CD1       55.5700   -0.2730   15.0490 C.ar   19  PHE19      -0.0042
     49  CD2       55.9670    2.0490   15.2830 C.ar   19  PHE19      -0.0042
     50  CE1       55.7420   -0.1470   13.6690 C.ar   19  PHE19      -0.0003
     51  CE2       56.1360    2.1640   13.9120 C.ar   19  PHE19      -0.0003
     52  CZ        56.0170    1.0490   13.1210 C.ar   19  PHE19      -0.0000
     53  N         61.5020   -7.6320   11.1050 N.3    26  ILE26      -0.1245
     54  CA        61.6420   -6.3090   10.5170 C.3    26  ILE26       0.1561
     55  C         63.1150   -5.9540   10.3520 C.2    26  ILE26       0.2260
     56  O         63.4880   -5.2020    9.4570 O.2    26  ILE26      -0.2867
     57  CB        60.9150   -5.1920   11.3240 C.3    26  ILE26       0.0252
     58  CG1       60.8430   -3.9070   10.4800 C.3    26  ILE26       0.0019
     59  CG2       61.5920   -4.9590   12.6700 C.3    26  ILE26       0.0019
     60  CD1       59.9730   -2.8260   11.0730 C.3    26  ILE26       0.0001
     61  N         53.8180    5.8630   13.5780 N.3    42  ALA42      -0.1245
     62  CA        54.0160    5.5110   12.1690 C.3    42  ALA42       0.1562
     63  C         54.3200    6.7360   11.3250 C.2    42  ALA42       0.2260
     64  O         55.0400    6.6480   10.3290 O.2    42  ALA42      -0.2867
     65  CB        52.7580    4.8360   11.6330 C.3    42  ALA42       0.0290
     66  N         57.7530    7.6200   10.3520 N.3    45  PHE45      -0.1227
     67  CA        58.4300    6.7090    9.4070 C.3    45  PHE45       0.1736
     68  C         57.8330    6.6400    8.0080 C.2    45  PHE45       0.2595
     69  O         58.5300    6.2560    7.0610 O.2    45  PHE45      -0.2718
     70  CB        58.4860    5.2900    9.9890 C.3    45  PHE45       0.0547
     71  CG        59.2280    5.2120   11.2930 C.ar   45  PHE45      -0.0202
     72  CD1       60.5980    5.0630   11.3190 C.ar   45  PHE45      -0.0042
     73  CD2       58.5510    5.3060   12.4830 C.ar   45  PHE45      -0.0042
     74  CE1       61.2710    5.0010   12.5240 C.ar   45  PHE45      -0.0003
     75  CE2       59.2240    5.2480   13.6920 C.ar   45  PHE45      -0.0003
     76  CZ        60.5700    5.1030   13.7100 C.ar   45  PHE45      -0.0000
     77  N         56.5730    7.0110    7.8380 N.am   46  TYR46      -0.1976
     78  CA        55.9990    7.0380    6.4950 C.3    46  TYR46       0.1639
     79  C         56.7300    8.0560    5.6230 C.2    46  TYR46       0.2290
     80  O         57.0950    9.1530    6.0750 O.2    46  TYR46      -0.2864
     81  CB        54.5370    7.4990    6.5000 C.3    46  TYR46       0.0560
     82  CG        53.5110    6.6450    7.1850 C.ar   46  TYR46      -0.0198
     83  CD1       53.5560    5.2540    7.1450 C.ar   46  TYR46      -0.0009
     84  CD2       52.4400    7.2460    7.8280 C.ar   46  TYR46      -0.0009
     85  CE1       52.5740    4.4930    7.7620 C.ar   46  TYR46       0.0417
     86  CE2       51.4760    6.4990    8.4490 C.ar   46  TYR46       0.0417
     87  CZ        51.5330    5.1270    8.4100 C.ar   46  TYR46       0.1957
     88  OH        50.5540    4.3750    9.0320 O.3    46  TYR46      -0.2866
     89  N         47.8690    7.3860    4.0080 N.3    54  MET54      -0.1245
     90  CA        47.8030    6.4670    5.1510 C.3    54  MET54       0.1570
     91  C         46.8550    6.9810    6.2320 C.2    54  MET54       0.2261
     92  O         46.3050    6.1970    6.9970 O.2    54  MET54      -0.2867
     93  CB        49.2020    6.1700    5.7050 C.3    54  MET54       0.0387
     94  CG        50.0370    5.2800    4.7530 C.3    54  MET54       0.0595
     95  SD        49.2810    3.6580    4.4330 S.3    54  MET54      -0.1393
     96  CE        49.6220    2.8480    6.0000 C.3    54  MET54       0.0692
     97  N         43.6770    5.8010    4.9740 N.3    57  SER57      -0.1202
     98  CA        43.6230    4.3570    5.1140 C.3    57  SER57       0.2020
     99  C         43.3080    3.9470    6.5470 C.2    57  SER57       0.2618
    100  O         42.5420    3.0120    6.7760 O.2    57  SER57      -0.2717
    101  CB        44.9390    3.7370    4.6500 C.3    57  SER57       0.2103
    102  OG        44.7900    2.3410    4.4980 O.3    57  SER57      -0.2182
    103  N         43.8660    4.6770    7.5100 N.am   58  HIS58      -0.1975
    104  CA        43.6220    4.3970    8.9250 C.3    58  HIS58       0.1656
    105  C         42.1660    4.6840    9.2940 C.2    58  HIS58       0.2291
    106  O         41.5470    3.9310   10.0490 O.2    58  HIS58      -0.2864
    107  CB        44.5760    5.2170    9.7920 C.3    58  HIS58       0.0771
    108  CG        44.4430    4.9580   11.2600 C.ar   58  HIS58       0.0820
    109  ND1       43.5790    5.6680   12.0650 N.ar   58  HIS58      -0.2267
    110  CD2       45.0870    4.0900   12.0740 C.ar   58  HIS58       0.1154
    111  CE1       43.6820    5.2400   13.3100 C.ar   58  HIS58       0.1986
    112  NE2       44.5940    4.2850   13.3440 N.ar   58  HIS58      -0.2212
    113  N         40.2490    1.7740    8.0550 N.3    61  LEU61      -0.1245
    114  CA        40.4610    0.6570    8.9890 C.3    61  LEU61       0.1561
    115  C         39.5500    0.7680   10.2140 C.2    61  LEU61       0.2260
    116  O         38.9120   -0.2040   10.6390 O.2    61  LEU61      -0.2867
    117  CB        41.9260    0.6220    9.4160 C.3    61  LEU61       0.0270
    118  CG        42.3190   -0.3270   10.5540 C.3    61  LEU61       0.0019
    119  CD1       41.9410   -1.7550   10.2130 C.3    61  LEU61       0.0001
    120  CD2       43.7980   -0.2450   10.8330 C.3    61  LEU61       0.0001
    121  N         41.0800   -4.1910    7.0600 N.3    67  VAL67      -0.1245
    122  CA        41.2660   -3.7120    5.6920 C.3    67  VAL67       0.1561
    123  C         42.7280   -3.8740    5.3060 C.2    67  VAL67       0.2260
    124  O         43.5940   -4.0170    6.1710 O.2    67  VAL67      -0.2867
    125  CB        40.8720   -2.2170    5.5150 C.3    67  VAL67       0.0252
    126  CG1       39.4990   -1.9230    6.1100 C.3    67  VAL67       0.0019
    127  CG2       41.9010   -1.3090    6.1270 C.3    67  VAL67       0.0019
    128  N         46.0020   -1.9930    3.5350 N.3    69  SER69      -0.1217
    129  CA        46.4050   -0.5880    3.6060 C.3    69  SER69       0.1889
    130  C         46.5570    0.1560    2.2830 C.2    69  SER69       0.2288
    131  O         46.4560    1.3970    2.2460 O.2    69  SER69      -0.2866
    132  CB        47.7340   -0.4950    4.3540 C.3    69  SER69       0.2089
    133  OG        48.7270   -1.2270    3.6580 O.3    69  SER69      -0.2183
    134  N         52.5780    1.4840    0.5630 N.3    72  TYR72      -0.1241
    135  CA        53.1800    2.6760    1.1370 C.3    72  TYR72       0.1605
    136  C         54.6420    2.4080    1.4010 C.2    72  TYR72       0.2264
    137  O         55.1010    1.2760    1.3120 O.2    72  TYR72      -0.2867
    138  CB        52.4660    3.1070    2.4360 C.3    72  TYR72       0.0534
    139  CG        52.5660    2.1510    3.6030 C.ar   72  TYR72      -0.0201
    140  CD1       51.7470    1.0380    3.6660 C.ar   72  TYR72      -0.0009
    141  CD2       53.4430    2.3920    4.6640 C.ar   72  TYR72      -0.0009
    142  CE1       51.7880    0.1660    4.7570 C.ar   72  TYR72       0.0417
    143  CE2       53.4940    1.5300    5.7540 C.ar   72  TYR72       0.0417
    144  CZ        52.6530    0.4190    5.7910 C.ar   72  TYR72       0.1957
    145  OH        52.6900   -0.4410    6.8690 O.3    72  TYR72      -0.2866
    146  N         57.9890    2.8120    3.9970 N.3    74  MET74      -0.1245
    147  CA        58.5670    3.0800    5.3050 C.3    74  MET74       0.1570
    148  C         60.0360    3.4550    5.1490 C.2    74  MET74       0.2261
    149  O         60.8110    2.7650    4.4730 O.2    74  MET74      -0.2867
    150  CB        58.4430    1.8720    6.2370 C.3    74  MET74       0.0387
    151  CG        58.9830    2.1260    7.6250 C.3    74  MET74       0.0595
    152  SD        58.9550    0.6350    8.6610 S.3    74  MET74      -0.1393
    153  CE        59.0450    1.4060   10.3050 C.3    74  MET74       0.0692
    154  N         55.8220   -1.4190    1.4610 N.3    84  LEU84      -0.1245
    155  CA        55.0530   -2.3910    2.2260 C.3    84  LEU84       0.1561
    156  C         53.5960   -2.3500    1.8640 C.2    84  LEU84       0.2260
    157  O         53.0930   -1.3600    1.3450 O.2    84  LEU84      -0.2867
    158  CB        55.0260   -2.0290    3.7200 C.3    84  LEU84       0.0270
    159  CG        56.2590   -1.8130    4.5510 C.3    84  LEU84       0.0019
    160  CD1       56.7690   -0.4460    4.2990 C.3    84  LEU84       0.0001
    161  CD2       55.8660   -1.9680    6.0000 C.3    84  LEU84       0.0001
    162  N         50.0230   -3.6810    4.2650 N.3    86  THR86      -0.1218
    163  CA        49.6520   -4.1400    5.5910 C.3    86  THR86       0.1862
    164  C         48.1880   -4.5760    5.6050 C.2    86  THR86       0.2287
    165  O         47.3470   -3.8990    5.0160 O.2    86  THR86      -0.2866
    166  CB        49.8610   -2.9900    6.5800 C.3    86  THR86       0.1770
    167  OG1       51.2690   -2.7320    6.7000 O.3    86  THR86      -0.2211
    168  CG2       49.2380   -3.3360    7.9390 C.3    86  THR86       0.0375
    169  N         45.4770   -4.6970    8.3690 N.3    88  GLY88      -0.1225
    170  CA        45.2850   -4.2400    9.7290 C.3    88  GLY88       0.1811
    171  C         43.9580   -4.7290   10.2600 C.2    88  GLY88       0.2280
    172  O         43.0060   -4.8720    9.5070 O.2    88  GLY88      -0.2866
    173  N         45.4630   -2.1570   17.3630 N.3   102  ILE102     -0.1245
    174  CA        45.4410   -2.5510   15.9690 C.3   102  ILE102      0.1561
    175  C         46.5460   -3.5640   15.7740 C.2   102  ILE102      0.2260
    176  O         47.6740   -3.3410   16.1820 O.2   102  ILE102     -0.2867
    177  CB        45.6760   -1.3300   15.0460 C.3   102  ILE102      0.0252
    178  CG1       44.4070   -0.4640   15.0480 C.3   102  ILE102      0.0019
    179  CG2       46.0070   -1.7720   13.6550 C.3   102  ILE102      0.0019
    180  CD1       44.6100    0.9350   14.5090 C.3   102  ILE102      0.0001
    181  N         48.6610   -5.8660   13.0020 N.3   104  CYS104     -0.1235
    182  CA        49.0410   -5.7830   11.5930 C.3   104  CYS104      0.1677
    183  C         49.8950   -6.9440   11.1390 C.2   104  CYS104      0.2270
    184  O         50.7540   -7.4260   11.8830 O.2   104  CYS104     -0.2867
    185  CB        49.8300   -4.5000   11.3360 C.3   104  CYS104      0.0956
    186  SG        48.8970   -3.0090   11.5570 S.3   104  CYS104     -0.0801
    187  N         52.3510   -7.3070    8.1070 N.3   106  ASN106     -0.1240
    188  CA        53.0320   -6.4170    7.1820 C.3   106  ASN106      0.1653
    189  C         53.8480   -7.2390    6.2180 C.2   106  ASN106      0.2266
    190  O         54.5550   -8.1550    6.6180 O.2   106  ASN106     -0.2867
    191  CB        53.9450   -5.4950    7.9700 C.3   106  ASN106      0.1155
    192  CG        53.1970   -4.7730    9.0660 C.2   106  ASN106      0.2627
    193  OD1       52.3090   -3.9720    8.7880 O.2   106  ASN106     -0.2716
    194  ND2       53.5080   -5.0970   10.3120 N.am  106  ASN106     -0.0877
@<TRIPOS>BOND
     1   134   135    1
     2   135   136    1
     3   135   138    1
     4   137   136    2
     5   157   156    2
     6   154   155    1
     7   156   155    1
     8   155   158    1
     9   131   130    2
    10   130   129    1
    11   138   139    1
    12   128   129    1
    13   139   140   ar
    14   139   141   ar
    15   129   132    1
    16   133   132    1
    17   140   142   ar
    18   158   159    1
    19   146   147    1
    20    89    90    1
    21   162   163    1
    22   160   159    1
    23    95    94    1
    24    95    96    1
    25   149   148    2
    26   102   101    1
    27   159   161    1
    28   101    98    1
    29   141   143   ar
    30    94    93    1
    31   142   144   ar
    32    97    98    1
    33   165   164    2
    34    98    99    1
    35   148   147    1
    36    90    93    1
    37    90    91    1
    38   147   150    1
    39   123   122    1
    40   123   124    2
    41   125   122    1
    42   125   126    1
    43   125   127    1
    44   163   164    1
    45   163   166    1
    46    79    80    2
    47    79    78    1
    48   122   121    1
    49   143   144   ar
    50   144   145    1
    51   189   190    2
    52   189   188    1
    53    91    92    2
    54   150   151    1
    55    78    81    1
    56    78    77    1
    57    81    82    1
    58    99   100    2
    59    99   103   am
    60   166   167    1
    61   166   168    1
    62    69    68    2
    63    83    82   ar
    64    83    85   ar
    65   188   191    1
    66   188   187    1
    67    82    84   ar
    68   103   104    1
    69   151   152    1
    70    85    87   ar
    71    84    86   ar
    72    77    68   am
    73   191   192    1
    74    68    67    1
    75   113   114    1
    76    10     8   ar
    77    10    11   ar
    78   169   170    1
    79    87    86   ar
    80    87    88    1
    81     8     6   ar
    82     1     2    1
    83   152   153    1
    84   193   192    2
    85   104   105    1
    86   104   107    1
    87    11     9   ar
    88   114   117    1
    89   114   115    1
    90   192   194   am
    91   105   106    2
    92    67    70    1
    93    67    66    1
    94   117   118    1
    95    56    55    2
    96   172   171    2
    97   170   171    1
    98   107   108    1
    99     6     5    1
   100     6     7   ar
   101    70    71    1
   102     2     5    1
   103     2     3    1
   104     4     3    2
   105   119   118    1
   106   115   116    2
   107     9     7   ar
   108    64    63    2
   109    55    54    1
   110    58    60    1
   111    58    57    1
   112    54    53    1
   113    54    57    1
   114   118   120    1
   115   183   182    1
   116   183   184    2
   117   108   109   ar
   118   108   110   ar
   119    71    72   ar
   120    71    73   ar
   121    72    74   ar
   122    57    59    1
   123    63    62    1
   124   185   186    1
   125   185   182    1
   126   182   181    1
   127    65    62    1
   128   109   111   ar
   129   110   112   ar
   130    41    40    1
   131    62    61    1
   132    73    75   ar
   133    74    76   ar
   134    17    16    1
   135    40    39    1
   136    52    50   ar
   137    52    51   ar
   138   111   112   ar
   139   179   177    1
   140    50    48   ar
   141    75    76   ar
   142    12    13    1
   143    27    26   ar
   144    27    25   ar
   145    16    13    1
   146    51    49   ar
   147    26    24   ar
   148    39    38    1
   149   180   178    1
   150    25    23   ar
   151    13    14    1
   152    38    35    1
   153    24    23   ar
   154    15    14    2
   155   177   178    1
   156   177   174    1
   157    48    47   ar
   158    23    22    1
   159    49    47   ar
   160    37    36    2
   161    35    36    1
   162    35    34    1
   163   175   174    1
   164   175   176    2
   165    47    46    1
   166   174   173    1
   167    22    19    1
   168    46    43    1
   169    18    19    1
   170    19    20    1
   171    42    43    1
   172    31    30    2
   173    43    44    1
   174    20    21    2
   175    20    28   am
   176    30    29    1
   177    28    29    1
   178    44    45    2
   179    29    32    1
   180    33    32    1
