@<TRIPOS>MOLECULE
tmp/4xt4A00.pdb
 150 141 0 0 0
SMALL
GASTEIGER

@<TRIPOS>ATOM
      1  N         17.3500   18.4000   12.5100 N.3    72  GLY72      -0.1210
      2  CA        17.4500   16.9660   12.3000 C.3    72  GLY72       0.1956
      3  C         16.6020   16.2460   13.3210 C.2    72  GLY72       0.2612
      4  O         16.2420   16.8230   14.3460 O.2    72  GLY72      -0.2717
      5  N         16.2660   14.9900   13.0520 N.am   73  VAL73      -0.1965
      6  CA        15.3440   14.2830   13.9340 C.3    73  VAL73       0.1727
      7  C         15.9750   14.0130   15.3100 C.2    73  VAL73       0.2617
      8  O         15.2830   13.9840   16.3370 O.2    73  VAL73      -0.2715
      9  CB        14.8270   12.9820   13.2840 C.3    73  VAL73       0.0290
     10  CG1       15.9610   12.2040   12.7110 C.3    73  VAL73       0.0023
     11  CG2       14.1060   12.1410   14.2970 C.3    73  VAL73       0.0023
     12  N         17.2940   13.8550   15.3300 N.am   74  GLY74      -0.1940
     13  CA        18.0100   13.6180   16.5760 C.3    74  GLY74       0.2014
     14  C         17.8880   14.7700   17.5600 C.2    74  GLY74       0.2639
     15  O         17.5980   14.5670   18.7450 O.2    74  GLY74      -0.2714
     16  N         18.1020   15.9890   17.0740 N.am   75  THR75      -0.1950
     17  CA        18.0460   17.1550   17.9480 C.3    75  THR75       0.1897
     18  C         16.6020   17.4020   18.4110 C.2    75  THR75       0.2313
     19  O         16.3660   17.8290   19.5530 O.2    75  THR75      -0.2863
     20  CB        18.6830   18.4100   17.2830 C.3    75  THR75       0.1794
     21  OG1       19.0250   19.3740   18.2850 O.3    75  THR75      -0.2208
     22  CG2       17.7260   19.0510   16.2940 C.3    75  THR75       0.0378
     23  N         14.4840   15.0200   18.9720 N.3    77  ARG77      -0.1231
     24  CA        14.2460   14.0400   20.0310 C.3    77  ARG77       0.1694
     25  C         14.9370   14.4300   21.3360 C.2    77  ARG77       0.2591
     26  O         14.3960   14.2360   22.4270 O.2    77  ARG77      -0.2718
     27  CB        14.7110   12.6550   19.5890 C.3    77  ARG77       0.0321
     28  CG        13.8310   12.0250   18.5280 C.3    77  ARG77       0.0489
     29  CD        14.4110   10.7070   18.0100 C.3    77  ARG77       0.2205
     30  NE        13.4130    9.9880   17.2190 N.pl3  77  ARG77      -0.0865
     31  CZ        13.6640    9.3220   16.0940 C.cat  77  ARG77       0.5346
     32  NH1       14.8970    9.2700   15.5970 N.pl3  77  ARG77       0.1354
     33  NH2       12.6690    8.7120   15.4560 N.pl3  77  ARG77       0.1354
     34  N         16.1290   14.9990   21.2110 N.am   78  ILE78      -0.1980
     35  CA        16.9830   15.2340   22.3650 C.3    78  ILE78       0.1595
     36  C         16.8250   16.6100   23.0180 C.2    78  ILE78       0.2287
     37  O         16.8190   16.7030   24.2430 O.2    78  ILE78      -0.2864
     38  CB        18.4490   14.9090   22.0330 C.3    78  ILE78       0.0276
     39  CG1       18.5400   13.4970   21.4450 C.3    78  ILE78       0.0022
     40  CG2       19.3250   15.0190   23.2690 C.3    78  ILE78       0.0022
     41  CD1       19.9090   13.1390   20.9020 C.3    78  ILE78       0.0001
     42  N         14.3150   16.9290    9.4120 N.3   108  VAL108     -0.1231
     43  CA        15.0310   16.1450    8.4120 C.3   108  VAL108      0.1692
     44  C         15.2580   14.7140    8.8920 C.2   108  VAL108      0.2593
     45  O         15.7460   14.4940    9.9990 O.2   108  VAL108     -0.2718
     46  CB        16.4020   16.7720    8.0780 C.3   108  VAL108      0.0266
     47  CG1       17.0600   16.0290    6.9100 C.3   108  VAL108      0.0020
     48  CG2       16.2290   18.2360    7.7370 C.3   108  VAL108      0.0020
     49  N         14.9060   13.7450    8.0560 N.am  109  THR109     -0.1939
     50  CA        15.1120   12.3370    8.3850 C.3   109  THR109      0.2028
     51  C         15.3530   11.5380    7.1060 C.2   109  THR109      0.2642
     52  O         14.5520   11.5930    6.1730 O.2   109  THR109     -0.2714
     53  CB        13.9070   11.7510    9.1700 C.3   109  THR109      0.1808
     54  OG1       13.9580   10.3170    9.1420 O.3   109  THR109     -0.2208
     55  CG2       12.5740   12.2160    8.5680 C.3   109  THR109      0.0379
     56  N         16.4550   10.8060    7.0430 N.am  110  ARG110     -0.1963
     57  CA        16.6990    9.9780    5.8700 C.3   110  ARG110      0.1729
     58  C         15.8210    8.7430    5.9420 C.2   110  ARG110      0.2616
     59  O         15.2870    8.2790    4.9270 O.2   110  ARG110     -0.2715
     60  CB        18.1570    9.5470    5.7740 C.3   110  ARG110      0.0348
     61  CG        18.4420    8.7610    4.4880 C.3   110  ARG110      0.0492
     62  CD        19.8400    8.1620    4.4690 C.3   110  ARG110      0.2205
     63  NE        19.9590    6.9790    5.3210 N.pl3 110  ARG110     -0.0865
     64  CZ        21.1150    6.3880    5.6170 C.cat 110  ARG110      0.5346
     65  NH1       22.2540    6.8750    5.1400 N.pl3 110  ARG110      0.1354
     66  NH2       21.1410    5.3120    6.3940 N.pl3 110  ARG110      0.1354
     67  N         15.6500    8.2250    7.1550 N.am  111  SER111     -0.1950
     68  CA        14.8930    6.9970    7.3550 C.3   111  SER111      0.1924
     69  C         13.3920    7.2170    7.1840 C.2   111  SER111      0.2314
     70  O         12.6850    6.3620    6.6430 O.2   111  SER111     -0.2863
     71  CB        15.1900    6.4120    8.7430 C.3   111  SER111      0.2116
     72  OG        14.6050    7.2000    9.7630 O.3   111  SER111     -0.2180
     73  N         11.5800    7.4470    9.7590 N.3   113  ARG113     -0.1245
     74  CA        11.0060    6.8030   10.9420 C.3   113  ARG113      0.1563
     75  C         10.7280    7.7690   12.0930 C.2   113  ARG113      0.2260
     76  O         11.5450    7.9260   13.0040 O.2   113  ARG113     -0.2867
     77  CB        11.9040    5.6540   11.3930 C.3   113  ARG113      0.0307
     78  CG        12.1500    4.6830   10.2670 C.3   113  ARG113      0.0489
     79  CD        13.0880    3.5610   10.6310 C.3   113  ARG113      0.2205
     80  NE        13.6300    2.9570    9.4180 N.pl3 113  ARG113     -0.0865
     81  CZ        14.2970    1.8090    9.3740 C.cat 113  ARG113      0.5346
     82  NH1       14.5020    1.1070   10.4810 N.pl3 113  ARG113      0.1354
     83  NH2       14.7540    1.3580    8.2150 N.pl3 113  ARG113      0.1354
     84  N         18.9650   12.0540    1.0090 N.3   161  VAL161     -0.1245
     85  CA        18.5760   13.4570    0.9390 C.3   161  VAL161      0.1561
     86  C         19.7260   14.2380    0.3050 C.2   161  VAL161      0.2260
     87  O         20.8800   14.0860    0.7080 O.2   161  VAL161     -0.2867
     88  CB        18.2840   14.0280    2.3420 C.3   161  VAL161      0.0252
     89  CG1       18.1120   15.5430    2.2810 C.3   161  VAL161      0.0019
     90  CG2       17.0470   13.3760    2.9280 C.3   161  VAL161      0.0019
     91  N         21.0800   17.8530    0.0010 N.3   163  GLU163     -0.1245
     92  CA        20.8290   19.0380    0.8290 C.3   163  GLU163      0.1567
     93  C         20.5200   20.2990    0.0220 C.2   163  GLU163      0.2260
     94  O         19.7890   21.1920    0.4850 O.2   163  GLU163     -0.2867
     95  CB        22.0000   19.2760    1.7940 C.3   163  GLU163      0.0388
     96  CG        22.0810   18.2490    2.9240 C.3   163  GLU163      0.1160
     97  CD        22.7200   16.9410    2.4900 C.2   163  GLU163      0.3649
     98  OE1       23.3240   16.9060    1.3930 O.co2 163  GLU163     -0.2457
     99  OE2       22.6200   15.9490    3.2480 O.co2 163  GLU163     -0.2457
    100  N         20.7360   19.0560   14.4720 N.3   183  GLY183     -0.1210
    101  CA        21.9220   18.9630   15.3130 C.3   183  GLY183      0.1940
    102  C         23.2250   18.8380   14.5480 C.2   183  GLY183      0.2454
    103  O         23.3110   19.2300   13.3780 O.2   183  GLY183     -0.2732
    104  N         24.2640   18.3020   15.2130 N.am  184  PRO184     -0.2717
    105  CA        25.6040   18.2480   14.6210 C.3   184  PRO184      0.1536
    106  C         25.7020   17.4070   13.3540 C.2   184  PRO184      0.2599
    107  O         26.5090   17.7560   12.4850 O.2   184  PRO184     -0.2715
    108  CB        26.4670   17.6390   15.7460 C.3   184  PRO184      0.0310
    109  CG        25.4990   16.9430   16.6490 C.3   184  PRO184      0.0237
    110  CD        24.2460   17.7840   16.5930 C.3   184  PRO184      0.0939
    111  N         24.9290   16.3320   13.2270 N.am  185  THR185     -0.1937
    112  CA        24.9960   15.5460   11.9920 C.3   185  THR185      0.2028
    113  C         24.4580   16.3470   10.8030 C.2   185  THR185      0.2642
    114  O         25.1040   16.4270    9.7530 O.2   185  THR185     -0.2714
    115  CB        24.2450   14.2090   12.1130 C.3   185  THR185      0.1808
    116  OG1       24.7570   13.4780   13.2360 O.3   185  THR185     -0.2208
    117  CG2       24.4300   13.3720   10.8430 C.3   185  THR185      0.0379
    118  N         23.2740   16.9400   10.9650 N.am  186  LEU186     -0.1977
    119  CA        22.6930   17.7560    9.8870 C.3   186  LEU186      0.1596
    120  C         23.5990   18.9330    9.5200 C.2   186  LEU186      0.2287
    121  O         23.8880   19.1530    8.3430 O.2   186  LEU186     -0.2864
    122  CB        21.2980   18.2620   10.2880 C.3   186  LEU186      0.0297
    123  CG        20.6080   19.1330    9.2400 C.3   186  LEU186      0.0022
    124  CD1       20.3430   18.3440    7.9770 C.3   186  LEU186      0.0001
    125  CD2       19.3250   19.7000    9.7890 C.3   186  LEU186      0.0001
    126  N         26.3190   17.8110    7.4370 N.3   189  THR189     -0.1218
    127  CA        26.0110   17.5880    6.0180 C.3   189  THR189      0.1862
    128  C         25.8440   18.8920    5.2390 C.2   189  THR189      0.2287
    129  O         26.1940   18.9610    4.0520 O.2   189  THR189     -0.2866
    130  CB        24.7480   16.7250    5.8350 C.3   189  THR189      0.1770
    131  OG1       23.6040   17.4450    6.3170 O.3   189  THR189     -0.2211
    132  CG2       24.8890   15.4290    6.6130 C.3   189  THR189      0.0375
    133  N         31.0230   16.9650   22.3570 N.3   213  ARG213     -0.1245
    134  CA        31.1810   16.9460   20.9120 C.3   213  ARG213      0.1563
    135  C         31.2420   18.3810   20.4060 C.2   213  ARG213      0.2260
    136  O         30.8930   19.3130   21.1280 O.2   213  ARG213     -0.2867
    137  CB        29.9810   16.2500   20.2680 C.3   213  ARG213      0.0307
    138  CG        28.6580   16.9530   20.5580 C.3   213  ARG213      0.0489
    139  CD        27.5030   16.4210   19.7120 C.3   213  ARG213      0.2205
    140  NE        26.2090   16.9770   20.1260 N.pl3 213  ARG213     -0.0865
    141  CZ        25.7720   18.1960   19.8060 C.cat 213  ARG213      0.5346
    142  NH1       26.5300   19.0090   19.0760 N.pl3 213  ARG213      0.1354
    143  NH2       24.5720   18.6100   20.2170 N.pl3 213  ARG213      0.1354
    144  N         29.3770   17.0600   13.5860 N.3   217  THR217     -0.1218
    145  CA        29.9540   15.7170   13.6680 C.3   217  THR217      0.1862
    146  C         29.8060   15.0350   12.3140 C.2   217  THR217      0.2287
    147  O         29.1010   15.5360   11.4210 O.2   217  THR217     -0.2866
    148  CB        29.2770   14.8450   14.7490 C.3   217  THR217      0.1770
    149  OG1       27.8710   14.7390   14.4800 O.3   217  THR217     -0.2211
    150  CG2       29.4730   15.4440   16.1430 C.3   217  THR217      0.0375
@<TRIPOS>BOND
     1    91    92    1
     2    93    94    2
     3    93    92    1
     4    86    87    2
     5    86    85    1
     6    92    95    1
     7    85    84    1
     8    85    88    1
     9    98    97   ar
    10    95    96    1
    11    89    88    1
    12    88    90    1
    13    97    96    1
    14    97    99   ar
    15   129   128    2
    16    62    61    1
    17    62    63    1
    18    61    60    1
    19    59    58    2
    20    65    64    1
    21   128   127    1
    22    63    64    2
    23    64    66    1
    24    60    57    1
    25   130   127    1
    26   130   131    1
    27   130   132    1
    28    57    58    1
    29    57    56    1
    30    58    67   am
    31   127   126    1
    32    52    51    2
    33    70    69    2
    34    47    46    1
    35    56    51   am
    36    51    50    1
    37    67    68    1
    38    69    68    1
    39    68    71    1
    40    48    46    1
    41   124   123    1
    42    49    50    1
    43    49    44   am
    44    46    43    1
    45    83    81    1
    46   121   120    2
    47    50    53    1
    48    43    44    1
    49    43    42    1
    50    55    53    1
    51    71    72    1
    52    44    45    2
    53    54    53    1
    54   123   125    1
    55   123   122    1
    56    81    80    2
    57    81    82    1
    58    80    79    1
    59   120   119    1
    60   114   113    2
    61    73    74    1
    62   119   122    1
    63   119   118    1
    64    78    79    1
    65    78    77    1
    66   113   118   am
    67   113   112    1
    68   117   115    1
    69    74    77    1
    70    74    75    1
    71   147   146    2
    72   112   115    1
    73   112   111    1
    74    75    76    2
    75   115   116    1
    76     2     1    1
    77     2     3    1
    78   146   145    1
    79   107   106    2
    80    10     9    1
    81     5     3   am
    82     5     6    1
    83   111   106   am
    84     9     6    1
    85     9    11    1
    86     3     4    2
    87   106   105    1
    88   103   102    2
    89   144   145    1
    90   145   148    1
    91     6     7    1
    92   100   101    1
    93   149   148    1
    94   102   104   am
    95   102   101    1
    96   105   104    1
    97   105   108    1
    98   148   150    1
    99   104   110    1
   100     7    12   am
   101     7     8    2
   102    12    13    1
   103    33    31    1
   104    32    31    1
   105   108   109    1
   106    31    30    2
   107    22    20    1
   108    13    14    1
   109   110   109    1
   110    16    14   am
   111    16    17    1
   112    30    29    1
   113    20    17    1
   114    20    21    1
   115    14    15    2
   116    17    18    1
   117    29    28    1
   118    18    19    2
   119    28    27    1
   120    23    24    1
   121   142   141    1
   122    27    24    1
   123   139   140    1
   124   139   138    1
   125   141   140    2
   126   141   143    1
   127    24    25    1
   128   137   138    1
   129   137   134    1
   130   135   134    1
   131   135   136    2
   132    41    39    1
   133   134   133    1
   134    34    25   am
   135    34    35    1
   136    25    26    2
   137    39    38    1
   138    38    35    1
   139    38    40    1
   140    35    36    1
   141    36    37    2
