@<TRIPOS>MOLECULE
tmp/4xt4A01.pdb
 123 115 0 0 0
SMALL
GASTEIGER

@<TRIPOS>ATOM
      1  N         22.4270   28.6910   13.4410 N.3    32  ASN32      -0.1225
      2  CA        22.6740   29.3210   14.7330 C.3    32  ASN32       0.1785
      3  C         23.0860   28.2730   15.7450 C.2    32  ASN32       0.2597
      4  O         22.3420   27.3270   16.0060 O.2    32  ASN32      -0.2718
      5  CB        21.4340   30.0590   15.2500 C.3    32  ASN32       0.1169
      6  CG        21.7190   30.8520   16.5250 C.2    32  ASN32       0.2627
      7  OD1       22.8530   31.2970   16.7470 O.2    32  ASN32      -0.2716
      8  ND2       20.6820   31.0440   17.3650 N.am   32  ASN32      -0.0877
      9  N         24.2640   28.4570   16.3330 N.am   33  PHE33      -0.1962
     10  CA        24.7870   27.5020   17.3000 C.3    33  PHE33       0.1771
     11  C         25.4560   28.2110   18.4470 C.2    33  PHE33       0.2619
     12  O         25.7230   29.4210   18.3660 O.2    33  PHE33      -0.2715
     13  CB        25.7820   26.5500   16.6240 C.3    33  PHE33       0.0574
     14  CG        25.1070   25.4840   15.8360 C.ar   33  PHE33      -0.0200
     15  CD1       24.6650   25.7370   14.5420 C.ar   33  PHE33      -0.0042
     16  CD2       24.8330   24.2530   16.4210 C.ar   33  PHE33      -0.0042
     17  CE1       23.9770   24.7570   13.8190 C.ar   33  PHE33      -0.0003
     18  CE2       24.1640   23.2690   15.7200 C.ar   33  PHE33      -0.0003
     19  CZ        23.7300   23.5220   14.4120 C.ar   33  PHE33      -0.0000
     20  N         25.7130   27.4620   19.5190 N.am   34  ILE34      -0.1977
     21  CA        26.4920   27.9890   20.6400 C.3    34  ILE34       0.1596
     22  C         27.5970   27.0010   20.9630 C.2    34  ILE34       0.2287
     23  O         27.4020   25.7800   20.8470 O.2    34  ILE34      -0.2864
     24  CB        25.5820   28.2110   21.8670 C.3    34  ILE34       0.0276
     25  CG1       26.3800   28.7170   23.0730 C.3    34  ILE34       0.0022
     26  CG2       24.8530   26.9300   22.2300 C.3    34  ILE34       0.0022
     27  CD1       25.4940   29.3970   24.1390 C.3    34  ILE34       0.0001
     28  N         22.6350   22.2320   25.0220 N.3    47  SER47      -0.1202
     29  CA        23.3960   23.4810   24.8990 C.3    47  SER47       0.2020
     30  C         23.0790   24.4890   26.0080 C.2    47  SER47       0.2619
     31  O         23.9080   25.3590   26.3240 O.2    47  SER47      -0.2717
     32  CB        23.0760   24.1500   23.5600 C.3    47  SER47       0.2103
     33  OG        23.4510   23.3480   22.4550 O.3    47  SER47      -0.2182
     34  N         21.8850   24.3560   26.5900 N.am   48  GLY48      -0.1956
     35  CA        21.2740   25.3890   27.4140 C.3    48  GLY48       0.1869
     36  C         22.0570   25.9220   28.5980 C.2    48  GLY48       0.2309
     37  O         21.9280   27.0980   28.9520 O.2    48  GLY48      -0.2863
     38  N         23.9250   28.9320   27.7200 N.3    51  ALA51      -0.1245
     39  CA        23.1590   30.0350   27.1400 C.3    51  ALA51       0.1562
     40  C         22.5890   30.9410   28.2190 C.2    51  ALA51       0.2260
     41  O         21.7690   30.4930   29.0230 O.2    51  ALA51      -0.2867
     42  CB        22.0230   29.4950   26.2770 C.3    51  ALA51       0.0290
     43  N         22.0550   35.2250   24.8490 N.3    55  ASP55      -0.1239
     44  CA        21.9450   34.2300   23.7890 C.3    55  ASP55       0.1674
     45  C         20.5030   33.8730   23.5650 C.2    55  ASP55       0.2266
     46  O         20.0830   33.6300   22.4350 O.2    55  ASP55      -0.2867
     47  CB        22.7650   32.9730   24.0950 C.3    55  ASP55       0.1410
     48  CG        22.6500   31.9260   22.9880 C.2    55  ASP55       0.3668
     49  OD1       23.1200   32.2010   21.8520 O.co2  55  ASP55      -0.2456
     50  OD2       22.0880   30.8330   23.2440 O.co2  55  ASP55      -0.2456
     51  N         19.1500   36.5870   21.2940 N.3    58  VAL58      -0.1231
     52  CA        19.5610   36.4020   19.8960 C.3    58  VAL58       0.1692
     53  C         18.8600   35.1890   19.2530 C.2    58  VAL58       0.2592
     54  O         18.3890   35.2450   18.1130 O.2    58  VAL58      -0.2718
     55  CB        21.1180   36.3180   19.7880 C.3    58  VAL58       0.0266
     56  CG1       21.5580   36.0490   18.3480 C.3    58  VAL58       0.0020
     57  CG2       21.7210   37.6160   20.2430 C.3    58  VAL58       0.0020
     58  N         18.7610   34.1010   20.0060 N.am   59  PHE59      -0.1976
     59  CA        18.1580   32.8570   19.5240 C.3    59  PHE59       0.1639
     60  C         16.6940   33.0920   19.0960 C.2    59  PHE59       0.2290
     61  O         16.2460   32.6920   17.9910 O.2    59  PHE59      -0.2864
     62  CB        18.2760   31.8240   20.6490 C.3    59  PHE59       0.0560
     63  CG        17.7130   30.4760   20.3170 C.ar   59  PHE59      -0.0200
     64  CD1       16.3830   30.1790   20.5880 C.ar   59  PHE59      -0.0042
     65  CD2       18.5210   29.4900   19.7730 C.ar   59  PHE59      -0.0042
     66  CE1       15.8560   28.9180   20.2930 C.ar   59  PHE59      -0.0003
     67  CE2       18.0080   28.2350   19.4740 C.ar   59  PHE59      -0.0003
     68  CZ        16.6710   27.9500   19.7410 C.ar   59  PHE59      -0.0000
     69  N         18.1020   15.9890   17.0740 N.3    75  THR75      -0.1218
     70  CA        18.0460   17.1550   17.9480 C.3    75  THR75       0.1862
     71  C         16.6020   17.4020   18.4110 C.2    75  THR75       0.2287
     72  O         16.3660   17.8290   19.5530 O.2    75  THR75      -0.2866
     73  CB        18.6830   18.4100   17.2830 C.3    75  THR75       0.1770
     74  OG1       19.0250   19.3740   18.2850 O.3    75  THR75      -0.2211
     75  CG2       17.7260   19.0510   16.2940 C.3    75  THR75       0.0375
     76  N         16.6770   17.6780   22.2420 N.3    79  GLU79      -0.1245
     77  CA        16.3990   18.9520   22.8950 C.3    79  GLU79       0.1567
     78  C         14.9200   19.1420   23.2040 C.2    79  GLU79       0.2260
     79  O         14.5310   20.1460   23.8020 O.2    79  GLU79      -0.2867
     80  CB        16.9710   20.1600   22.1400 C.3    79  GLU79       0.0388
     81  CG        17.3560   21.2780   23.1530 C.3    79  GLU79       0.1160
     82  CD        17.5680   22.6530   22.5570 C.2    79  GLU79       0.3649
     83  OE1       18.7490   23.0310   22.4340 O.co2  79  GLU79      -0.2457
     84  OE2       16.5670   23.3780   22.2380 O.co2  79  GLU79      -0.2457
     85  N         12.1830   19.4400   21.1330 N.3    81  TYR81      -0.1241
     86  CA        11.4900   20.4370   20.3330 C.3    81  TYR81       0.1605
     87  C          9.9890   20.2370   20.4170 C.2    81  TYR81       0.2264
     88  O          9.4830   19.1380   20.1770 O.2    81  TYR81      -0.2867
     89  CB        11.9170   20.3690   18.8630 C.3    81  TYR81       0.0534
     90  CG        13.1370   21.1940   18.5330 C.ar   81  TYR81      -0.0201
     91  CD1       14.3420   20.9720   19.1880 C.ar   81  TYR81      -0.0009
     92  CD2       13.0930   22.1780   17.5500 C.ar   81  TYR81      -0.0009
     93  CE1       15.4690   21.7100   18.8870 C.ar   81  TYR81       0.0417
     94  CE2       14.2190   22.9250   17.2380 C.ar   81  TYR81       0.0417
     95  CZ        15.4040   22.6870   17.9100 C.ar   81  TYR81       0.1957
     96  OH        16.5360   23.4200   17.6190 O.3    81  TYR81      -0.2866
     97  N         18.9960   24.8030   13.2510 N.3   181  GLU181     -0.1245
     98  CA        19.5640   24.7850   14.6090 C.3   181  GLU181      0.1567
     99  C         20.2430   23.4580   14.9170 C.2   181  GLU181      0.2260
    100  O         20.5430   23.1630   16.0740 O.2   181  GLU181     -0.2867
    101  CB        18.5040   25.1110   15.6790 C.3   181  GLU181      0.0388
    102  CG        18.0330   26.5720   15.6500 C.3   181  GLU181      0.1160
    103  CD        16.7390   26.8000   16.4080 C.2   181  GLU181      0.3649
    104  OE1       16.1250   25.8060   16.8540 O.co2 181  GLU181     -0.2457
    105  OE2       16.3380   27.9780   16.5510 O.co2 181  GLU181     -0.2457
    106  N         27.3490   31.7690   18.8310 N.3   202  THR202     -0.1218
    107  CA        27.5520   32.3190   20.1550 C.3   202  THR202      0.1862
    108  C         28.7270   31.5850   20.7740 C.2   202  THR202      0.2287
    109  O         28.7210   30.3520   20.8980 O.2   202  THR202     -0.2866
    110  CB        26.3120   32.1490   21.0140 C.3   202  THR202      0.1770
    111  OG1       25.2600   32.9610   20.4800 O.3   202  THR202     -0.2211
    112  CG2       26.5880   32.5840   22.4520 C.3   202  THR202      0.0375
    113  N         31.0230   16.9650   22.3570 N.3   213  ARG213     -0.1245
    114  CA        31.1810   16.9460   20.9120 C.3   213  ARG213      0.1563
    115  C         31.2420   18.3810   20.4060 C.2   213  ARG213      0.2260
    116  O         30.8930   19.3130   21.1280 O.2   213  ARG213     -0.2867
    117  CB        29.9810   16.2500   20.2680 C.3   213  ARG213      0.0307
    118  CG        28.6580   16.9530   20.5580 C.3   213  ARG213      0.0489
    119  CD        27.5030   16.4210   19.7120 C.3   213  ARG213      0.2205
    120  NE        26.2090   16.9770   20.1260 N.pl3 213  ARG213     -0.0865
    121  CZ        25.7720   18.1960   19.8060 C.cat 213  ARG213      0.5346
    122  NH1       26.5300   19.0090   19.0760 N.pl3 213  ARG213      0.1354
    123  NH2       24.5720   18.6100   20.2170 N.pl3 213  ARG213      0.1354
@<TRIPOS>BOND
     1    97    98    1
     2     1     2    1
     3    17    19   ar
     4    17    15   ar
     5    19    18   ar
     6    15    14   ar
     7    98    99    1
     8    98   101    1
     9     2     5    1
    10     2     3    1
    11    99   100    2
    12     5     6    1
    13   102   101    1
    14   102   103    1
    15    18    16   ar
    16     3     4    2
    17     3     9   am
    18    14    16   ar
    19    14    13    1
    20    75    73    1
    21     9    10    1
    22   103   105   ar
    23   103   104   ar
    24     6     7    2
    25     6     8   am
    26    13    10    1
    27    69    70    1
    28    94    92   ar
    29    94    95   ar
    30    73    70    1
    31    73    74    1
    32    10    11    1
    33    92    90   ar
    34    96    95    1
    35    95    93   ar
    36    70    71    1
    37    61    60    2
    38    54    53    2
    39    56    55    1
    40    12    11    2
    41    71    72    2
    42    11    20   am
    43    90    89    1
    44    90    91   ar
    45   106   107    1
    46    89    86    1
    47    93    91   ar
    48   122   121    1
    49    60    59    1
    50    53    52    1
    51    53    58   am
    52    67    68   ar
    53    67    65   ar
    54    20    21    1
    55    59    58    1
    56    59    62    1
    57   119   120    1
    58   119   118    1
    59    68    66   ar
    60    65    63   ar
    61    55    52    1
    62    55    57    1
    63   121   120    2
    64   121   123    1
    65    52    51    1
    66   107   108    1
    67   107   110    1
    68    88    87    2
    69   117   118    1
    70   117   114    1
    71    66    64   ar
    72    63    64   ar
    73    63    62    1
    74    86    87    1
    75    86    85    1
    76   115   114    1
    77   115   116    2
    78   111   110    1
    79    21    22    1
    80    21    24    1
    81   108   109    2
    82    23    22    2
    83   114   113    1
    84   110   112    1
    85    49    48   ar
    86    24    26    1
    87    24    25    1
    88    80    77    1
    89    80    81    1
    90    84    82   ar
    91    76    77    1
    92    83    82   ar
    93    46    45    2
    94    33    32    1
    95    82    81    1
    96    77    78    1
    97    48    50   ar
    98    48    47    1
    99    25    27    1
   100    78    79    2
   101    32    29    1
   102    45    44    1
   103    44    47    1
   104    44    43    1
   105    29    28    1
   106    29    30    1
   107    30    31    2
   108    30    34   am
   109    42    39    1
   110    34    35    1
   111    39    38    1
   112    39    40    1
   113    35    36    1
   114    40    41    2
   115    36    37    2
