@<TRIPOS>MOLECULE
tmp/4xt7A01.pdb
 124 118 0 0 0
SMALL
GASTEIGER

@<TRIPOS>ATOM
      1  N         21.8800   28.4550   13.1740 N.3    32  ASN32      -0.1225
      2  CA        22.1700   29.0000   14.4820 C.3    32  ASN32       0.1785
      3  C         22.6090   27.9200   15.4500 C.2    32  ASN32       0.2597
      4  O         21.8410   26.9940   15.7730 O.2    32  ASN32      -0.2718
      5  CB        20.9630   29.7240   15.0690 C.3    32  ASN32       0.1169
      6  CG        21.3140   30.4290   16.3500 C.2    32  ASN32       0.2627
      7  OD1       22.4910   30.7780   16.5740 O.2    32  ASN32      -0.2716
      8  ND2       20.3150   30.6500   17.2010 N.am   32  ASN32      -0.0877
      9  N         23.8350   28.0510   15.9370 N.am   33  PHE33      -0.1962
     10  CA        24.3670   27.1180   16.9110 C.3    33  PHE33       0.1771
     11  C         25.0260   27.8460   18.0510 C.2    33  PHE33       0.2619
     12  O         25.3740   29.0350   17.9450 O.2    33  PHE33      -0.2715
     13  CB        25.4030   26.2120   16.2570 C.3    33  PHE33       0.0574
     14  CG        24.8060   25.0900   15.4860 C.ar   33  PHE33      -0.0200
     15  CD1       24.1390   25.3350   14.2820 C.ar   33  PHE33      -0.0042
     16  CD2       24.8900   23.7870   15.9610 C.ar   33  PHE33      -0.0042
     17  CE1       23.5640   24.2850   13.5550 C.ar   33  PHE33      -0.0003
     18  CE2       24.3330   22.7310   15.2400 C.ar   33  PHE33      -0.0003
     19  CZ        23.6800   22.9850   14.0300 C.ar   33  PHE33      -0.0000
     20  N         25.2180   27.1170   19.1410 N.am   34  ILE34      -0.1977
     21  CA        25.9420   27.6500   20.2710 C.3    34  ILE34       0.1596
     22  C         27.0900   26.6980   20.5040 C.2    34  ILE34       0.2287
     23  O         26.9390   25.4860   20.3720 O.2    34  ILE34      -0.2864
     24  CB        25.0380   27.7660   21.5260 C.3    34  ILE34       0.0276
     25  CG1       25.8440   28.2370   22.7340 C.3    34  ILE34       0.0022
     26  CG2       24.3330   26.4440   21.8020 C.3    34  ILE34       0.0022
     27  CD1       24.9910   28.9260   23.7880 C.3    34  ILE34       0.0001
     28  N         22.6860   18.2450   25.6590 N.3    46  THR46      -0.1203
     29  CA        22.0620   19.2950   24.8510 C.3    46  THR46       0.1994
     30  C         22.8230   20.6160   24.9440 C.2    46  THR46       0.2619
     31  O         23.7910   20.7400   25.6920 O.2    46  THR46      -0.2717
     32  CB        20.6060   19.5530   25.2540 C.3    46  THR46       0.1784
     33  OG1       20.5850   20.3360   26.4580 O.3    46  THR46      -0.2211
     34  CG2       19.8440   18.2260   25.4560 C.3    46  THR46       0.0376
     35  N         22.3600   21.6120   24.1980 N.am   47  SER47      -0.1937
     36  CA        23.0420   22.8980   24.1420 C.3    47  SER47       0.2055
     37  C         22.4730   23.9220   25.1340 C.2    47  SER47       0.2643
     38  O         23.0720   24.9860   25.3580 O.2    47  SER47      -0.2714
     39  CB        23.0070   23.4340   22.7110 C.3    47  SER47       0.2130
     40  OG        21.8330   23.0240   22.0290 O.3    47  SER47      -0.2179
     41  N         21.3330   23.5720   25.7390 N.am   48  GLY48      -0.1954
     42  CA        20.5940   24.4550   26.6340 C.3    48  GLY48       0.1869
     43  C         21.3840   25.1170   27.7480 C.2    48  GLY48       0.2309
     44  O         21.2200   26.3190   27.9940 O.2    48  GLY48      -0.2863
     45  N         23.0770   28.1760   26.8430 N.3    51  ALA51      -0.1245
     46  CA        22.2030   29.2320   26.3370 C.3    51  ALA51       0.1562
     47  C         21.7190   30.1610   27.4580 C.2    51  ALA51       0.2260
     48  O         20.6690   29.9140   28.0660 O.2    51  ALA51      -0.2867
     49  CB        21.0110   28.6270   25.5870 C.3    51  ALA51       0.0290
     50  N         21.7880   34.5660   24.5220 N.3    55  ASP55      -0.1225
     51  CA        21.6850   33.6220   23.4280 C.3    55  ASP55       0.1805
     52  C         20.2490   33.2330   23.1640 C.2    55  ASP55       0.2597
     53  O         19.8840   32.9350   22.0280 O.2    55  ASP55      -0.2718
     54  CB        22.5170   32.3780   23.7060 C.3    55  ASP55       0.1424
     55  CG        22.3620   31.3310   22.6190 C.2    55  ASP55       0.3668
     56  OD1       22.7080   31.5950   21.4280 O.co2  55  ASP55      -0.2456
     57  OD2       21.8820   30.2410   22.9710 O.co2  55  ASP55      -0.2456
     58  N         19.4180   33.2480   24.2000 N.am   56  ARG56      -0.1979
     59  CA        18.0190   32.8790   24.0050 C.3    56  ARG56       0.1597
     60  C         17.3230   33.9630   23.2130 C.2    56  ARG56       0.2287
     61  O         16.4080   33.7010   22.4300 O.2    56  ARG56      -0.2864
     62  CB        17.3210   32.7240   25.3390 C.3    56  ARG56       0.0334
     63  CG        17.8170   31.5270   26.1070 C.3    56  ARG56       0.0492
     64  CD        17.3750   31.5880   27.5410 C.3    56  ARG56       0.2205
     65  NE        17.5080   30.2800   28.1530 N.pl3  56  ARG56      -0.0865
     66  CZ        16.4820   29.5760   28.6050 C.cat  56  ARG56       0.5346
     67  NH1       15.2600   30.0800   28.5440 N.pl3  56  ARG56       0.1354
     68  NH2       16.6900   28.3870   29.1440 N.pl3  56  ARG56       0.1354
     69  N         18.5200   33.6330   19.6120 N.3    59  PHE59      -0.1227
     70  CA        17.9090   32.4000   19.1300 C.3    59  PHE59       0.1736
     71  C         16.4510   32.6090   18.7480 C.2    59  PHE59       0.2595
     72  O         16.0130   32.2040   17.6720 O.2    59  PHE59      -0.2718
     73  CB        18.0000   31.3580   20.2310 C.3    59  PHE59       0.0547
     74  CG        17.4280   30.0260   19.8680 C.ar   59  PHE59      -0.0202
     75  CD1       16.0780   29.7590   20.0700 C.ar   59  PHE59      -0.0042
     76  CD2       18.2500   29.0150   19.3740 C.ar   59  PHE59      -0.0042
     77  CE1       15.5470   28.5180   19.7560 C.ar   59  PHE59      -0.0003
     78  CE2       17.7220   27.7750   19.0620 C.ar   59  PHE59      -0.0003
     79  CZ        16.3780   27.5240   19.2590 C.ar   59  PHE59      -0.0000
     80  N         15.6870   33.2290   19.6380 N.am   60  ASN60      -0.1974
     81  CA        14.2930   33.5280   19.3490 C.3    60  ASN60       0.1688
     82  C         14.1760   34.5520   18.2450 C.2    60  ASN60       0.2292
     83  O         13.2730   34.4660   17.4160 O.2    60  ASN60      -0.2864
     84  CB        13.5950   34.0330   20.6050 C.3    60  ASN60       0.1181
     85  CG        13.4760   32.9520   21.6480 C.2    60  ASN60       0.2629
     86  OD1       13.2420   31.7830   21.3040 O.2    60  ASN60      -0.2716
     87  ND2       13.6720   33.3110   22.9220 N.am   60  ASN60      -0.0877
     88  N         16.5640   17.4690   21.9440 N.3    79  GLU79      -0.1245
     89  CA        16.3150   18.7690   22.5770 C.3    79  GLU79       0.1567
     90  C         14.8390   19.0280   22.8690 C.2    79  GLU79       0.2260
     91  O         14.4720   20.1390   23.2700 O.2    79  GLU79      -0.2867
     92  CB        16.9560   19.9240   21.7960 C.3    79  GLU79       0.0388
     93  CG        18.4710   19.7540   21.6850 C.3    79  GLU79       0.1160
     94  CD        19.2150   21.0500   21.4190 C.2    79  GLU79       0.3649
     95  OE1       18.6070   21.9960   20.8540 O.co2  79  GLU79      -0.2457
     96  OE2       20.4160   21.1160   21.7830 O.co2  79  GLU79      -0.2457
     97  N         12.1200   19.2220   20.9220 N.3    81  TYR81      -0.1241
     98  CA        11.4900   20.2520   20.1030 C.3    81  TYR81       0.1605
     99  C          9.9810   20.1510   20.1670 C.2    81  TYR81       0.2264
    100  O          9.4030   19.0700   19.9930 O.2    81  TYR81      -0.2867
    101  CB        11.9380   20.1790   18.6460 C.3    81  TYR81       0.0534
    102  CG        13.1350   21.0410   18.3720 C.ar   81  TYR81      -0.0201
    103  CD1       14.3010   20.8960   19.1230 C.ar   81  TYR81      -0.0009
    104  CD2       13.1100   21.9950   17.3670 C.ar   81  TYR81      -0.0009
    105  CE1       15.4190   21.6790   18.8760 C.ar   81  TYR81       0.0417
    106  CE2       14.2310   22.7800   17.0970 C.ar   81  TYR81       0.0417
    107  CZ        15.3800   22.6250   17.8590 C.ar   81  TYR81       0.1957
    108  OH        16.4950   23.4070   17.6030 O.3    81  TYR81      -0.2866
    109  N         18.7120   24.7990   13.1670 N.3   181  GLU181     -0.1245
    110  CA        19.2990   24.8170   14.4880 C.3   181  GLU181      0.1567
    111  C         19.9030   23.4740   14.7230 C.2   181  GLU181      0.2260
    112  O         20.0880   23.0700   15.8560 O.2   181  GLU181     -0.2867
    113  CB        18.2470   25.1040   15.5440 C.3   181  GLU181      0.0388
    114  CG        17.7800   26.5210   15.5110 C.3   181  GLU181      0.1160
    115  CD        16.3820   26.6520   16.0540 C.2   181  GLU181      0.3649
    116  OE1       15.7890   25.6100   16.4270 O.co2 181  GLU181     -0.2457
    117  OE2       15.8820   27.7930   16.1150 O.co2 181  GLU181     -0.2457
    118  N         26.8330   31.2500   18.4730 N.3   202  THR202     -0.1218
    119  CA        27.0690   31.7710   19.7930 C.3   202  THR202      0.1862
    120  C         28.2400   31.0170   20.3980 C.2   202  THR202      0.2287
    121  O         28.2660   29.7750   20.4420 O.2   202  THR202     -0.2866
    122  CB        25.8770   31.5740   20.6800 C.3   202  THR202      0.1770
    123  OG1       24.8040   32.3750   20.1880 O.3   202  THR202     -0.2211
    124  CG2       26.2310   32.0060   22.1100 C.3   202  THR202      0.0375
@<TRIPOS>BOND
     1   109   110    1
     2     1     2    1
     3    17    19   ar
     4    17    15   ar
     5    19    18   ar
     6    15    14   ar
     7     2     5    1
     8     2     3    1
     9   110   111    1
    10   110   113    1
    11   111   112    2
    12     5     6    1
    13    18    16   ar
    14     3     4    2
    15     3     9   am
    16    14    16   ar
    17    14    13    1
    18   114   113    1
    19   114   115    1
    20     9    10    1
    21   115   117   ar
    22   115   116   ar
    23    13    10    1
    24     6     7    2
    25     6     8   am
    26    10    11    1
    27   106   104   ar
    28   106   107   ar
    29   104   102   ar
    30    83    82    2
    31   108   107    1
    32    72    71    2
    33   107   105   ar
    34    12    11    2
    35    11    20   am
    36    82    81    1
    37   102   101    1
    38   102   103   ar
    39   118   119    1
    40   101    98    1
    41    71    70    1
    42    71    80   am
    43   105   103   ar
    44    78    79   ar
    45    78    76   ar
    46    70    69    1
    47    70    73    1
    48    20    21    1
    49    79    77   ar
    50    81    80    1
    51    81    84    1
    52    76    74   ar
    53    77    75   ar
    54   119   120    1
    55   119   122    1
    56    74    75   ar
    57    74    73    1
    58   100    99    2
    59    98    99    1
    60    98    97    1
    61   123   122    1
    62    21    22    1
    63    21    24    1
    64    23    22    2
    65   120   121    2
    66    84    85    1
    67   122   124    1
    68    95    94   ar
    69    86    85    2
    70    94    93    1
    71    94    96   ar
    72    56    55   ar
    73    24    26    1
    74    24    25    1
    75    85    87   am
    76    93    92    1
    77    92    89    1
    78    88    89    1
    79    53    52    2
    80    40    39    1
    81    61    60    2
    82    89    90    1
    83    55    57   ar
    84    55    54    1
    85    39    36    1
    86    25    27    1
    87    90    91    2
    88    52    51    1
    89    52    58   am
    90    60    59    1
    91    51    54    1
    92    51    50    1
    93    59    58    1
    94    59    62    1
    95    36    35    1
    96    36    37    1
    97    35    30   am
    98    29    30    1
    99    29    32    1
   100    29    28    1
   101    30    31    2
   102    37    38    2
   103    37    41   am
   104    32    34    1
   105    32    33    1
   106    62    63    1
   107    49    46    1
   108    41    42    1
   109    63    64    1
   110    46    45    1
   111    46    47    1
   112    42    43    1
   113    47    48    2
   114    64    65    1
   115    43    44    2
   116    65    66    2
   117    67    66    1
   118    66    68    1
