@<TRIPOS>MOLECULE
tmp/4xt8A01.pdb
 160 152 0 0 0
SMALL
GASTEIGER

@<TRIPOS>ATOM
      1  N         22.0710   28.5870   13.1860 N.3    32  ASN32      -0.1225
      2  CA        22.3570   29.1720   14.4750 C.3    32  ASN32       0.1785
      3  C         22.8140   28.0710   15.3910 C.2    32  ASN32       0.2597
      4  O         22.0680   27.1120   15.6430 O.2    32  ASN32      -0.2718
      5  CB        21.1220   29.8340   15.0830 C.3    32  ASN32       0.1169
      6  CG        21.4530   30.5610   16.3630 C.2    32  ASN32       0.2627
      7  OD1       22.6010   30.9690   16.5580 O.2    32  ASN32      -0.2716
      8  ND2       20.4620   30.7400   17.2360 N.am   32  ASN32      -0.0877
      9  N         24.0400   28.1980   15.8800 N.am   33  PHE33      -0.1962
     10  CA        24.5630   27.2490   16.8480 C.3    33  PHE33       0.1771
     11  C         25.1980   27.9600   18.0090 C.2    33  PHE33       0.2619
     12  O         25.4960   29.1550   17.9490 O.2    33  PHE33      -0.2715
     13  CB        25.5880   26.3270   16.1980 C.3    33  PHE33       0.0574
     14  CG        24.9710   25.2200   15.4120 C.ar   33  PHE33      -0.0200
     15  CD1       24.3320   25.4810   14.2050 C.ar   33  PHE33      -0.0042
     16  CD2       25.0010   23.9210   15.8890 C.ar   33  PHE33      -0.0042
     17  CE1       23.7390   24.4590   13.4840 C.ar   33  PHE33      -0.0003
     18  CE2       24.4300   22.8960   15.1700 C.ar   33  PHE33      -0.0003
     19  CZ        23.8110   23.1690   13.9570 C.ar   33  PHE33      -0.0000
     20  N         25.4210   27.2060   19.0730 N.am   34  ILE34      -0.1977
     21  CA        26.1830   27.7200   20.1920 C.3    34  ILE34       0.1596
     22  C         27.2790   26.7180   20.5220 C.2    34  ILE34       0.2287
     23  O         27.0750   25.5120   20.4340 O.2    34  ILE34      -0.2864
     24  CB        25.2630   27.9810   21.4040 C.3    34  ILE34       0.0276
     25  CG1       26.0580   28.5090   22.6050 C.3    34  ILE34       0.0022
     26  CG2       24.4660   26.7270   21.7660 C.3    34  ILE34       0.0022
     27  CD1       25.1400   29.1350   23.6650 C.3    34  ILE34       0.0001
     28  N         22.3570   21.6290   24.3710 N.3    47  SER47      -0.1202
     29  CA        23.0840   22.8830   24.1970 C.3    47  SER47       0.2020
     30  C         22.6630   23.9980   25.1540 C.2    47  SER47       0.2619
     31  O         23.4220   24.9440   25.3820 O.2    47  SER47      -0.2717
     32  CB        23.0110   23.3400   22.7350 C.3    47  SER47       0.2103
     33  OG        21.7430   23.0640   22.1800 O.3    47  SER47      -0.2182
     34  N         21.4710   23.8660   25.7330 N.am   48  GLY48      -0.1956
     35  CA        20.8670   24.9120   26.5430 C.3    48  GLY48       0.1869
     36  C         21.6490   25.4300   27.7360 C.2    48  GLY48       0.2309
     37  O         21.5280   26.6010   28.0870 O.2    48  GLY48      -0.2863
     38  N         23.5910   28.4370   27.0350 N.3    51  ALA51      -0.1245
     39  CA        22.8170   29.5510   26.5130 C.3    51  ALA51       0.1562
     40  C         22.2710   30.4030   27.6370 C.2    51  ALA51       0.2260
     41  O         21.4130   29.9610   28.3970 O.2    51  ALA51      -0.2867
     42  CB        21.6570   29.0300   25.6800 C.3    51  ALA51       0.0290
     43  N         21.9760   34.6930   24.5050 N.3    55  ASP55      -0.1225
     44  CA        21.8330   33.7270   23.4330 C.3    55  ASP55       0.1805
     45  C         20.3900   33.3680   23.2010 C.2    55  ASP55       0.2597
     46  O         19.9950   33.1630   22.0690 O.2    55  ASP55      -0.2718
     47  CB        22.6250   32.4560   23.6840 C.3    55  ASP55       0.1424
     48  CG        22.4540   31.4610   22.5580 C.2    55  ASP55       0.3668
     49  OD1       22.9070   31.7440   21.4270 O.co2  55  ASP55      -0.2456
     50  OD2       21.8490   30.4050   22.7900 O.co2  55  ASP55      -0.2456
     51  N         19.5920   33.2650   24.2570 N.am   56  ARG56      -0.1979
     52  CA        18.1790   32.9760   24.0520 C.3    56  ARG56       0.1597
     53  C         17.5470   34.1040   23.2590 C.2    56  ARG56       0.2287
     54  O         16.6950   33.8810   22.4100 O.2    56  ARG56      -0.2864
     55  CB        17.4610   32.8430   25.3890 C.3    56  ARG56       0.0334
     56  CG        17.8410   31.5920   26.1160 C.3    56  ARG56       0.0492
     57  CD        17.2160   31.5500   27.4950 C.3    56  ARG56       0.2205
     58  NE        17.3880   30.2300   28.0800 N.pl3  56  ARG56      -0.0865
     59  CZ        16.3920   29.4870   28.5450 C.cat  56  ARG56       0.5346
     60  NH1       15.1460   29.9490   28.5210 N.pl3  56  ARG56       0.1354
     61  NH2       16.6440   28.2940   29.0560 N.pl3  56  ARG56       0.1354
     62  N         18.6490   33.7590   19.6680 N.3    59  PHE59      -0.1227
     63  CA        18.0360   32.5210   19.1930 C.3    59  PHE59       0.1736
     64  C         16.5900   32.7770   18.7750 C.2    59  PHE59       0.2595
     65  O         16.1520   32.4410   17.6550 O.2    59  PHE59      -0.2718
     66  CB        18.1120   31.5070   20.3460 C.3    59  PHE59       0.0547
     67  CG        17.5020   30.1730   20.0490 C.ar   59  PHE59      -0.0202
     68  CD1       16.1460   29.9610   20.2470 C.ar   59  PHE59      -0.0042
     69  CD2       18.2930   29.1130   19.6240 C.ar   59  PHE59      -0.0042
     70  CE1       15.5770   28.7170   19.9830 C.ar   59  PHE59      -0.0003
     71  CE2       17.7360   27.8700   19.3640 C.ar   59  PHE59      -0.0003
     72  CZ        16.3730   27.6710   19.5510 C.ar   59  PHE59      -0.0000
     73  N         15.8550   33.4060   19.6840 N.am   60  ASN60      -0.1974
     74  CA        14.4710   33.7670   19.4350 C.3    60  ASN60       0.1688
     75  C         14.3510   34.7690   18.3140 C.2    60  ASN60       0.2292
     76  O         13.4490   34.6630   17.4940 O.2    60  ASN60      -0.2864
     77  CB        13.8230   34.2930   20.7150 C.3    60  ASN60       0.1181
     78  CG        13.5970   33.1950   21.7040 C.2    60  ASN60       0.2629
     79  OD1       13.3280   32.0550   21.3120 O.2    60  ASN60      -0.2716
     80  ND2       13.7410   33.5030   22.9830 N.am   60  ASN60      -0.0877
     81  N         14.7880   32.9640   15.0670 N.3    63  ARG63      -0.1245
     82  CA        13.5440   32.2630   14.7830 C.3    63  ARG63       0.1563
     83  C         12.4980   33.2170   14.2460 C.2    63  ARG63       0.2260
     84  O         11.7370   32.8820   13.3420 O.2    63  ARG63      -0.2867
     85  CB        13.0080   31.6080   16.0410 C.3    63  ARG63       0.0307
     86  CG        13.8220   30.4210   16.4330 C.3    63  ARG63       0.0489
     87  CD        13.0770   29.6140   17.4670 C.3    63  ARG63       0.2205
     88  NE        13.5920   28.2520   17.5060 N.pl3  63  ARG63      -0.0865
     89  CZ        12.9180   27.2380   18.0240 C.cat  63  ARG63       0.5346
     90  NH1       11.7130   27.4450   18.5310 N.pl3  63  ARG63       0.1354
     91  NH2       13.4490   26.0290   18.0260 N.pl3  63  ARG63       0.1354
     92  N         18.1350   16.3770   16.9830 N.3    75  THR75      -0.1218
     93  CA        18.0130   17.5630   17.8190 C.3    75  THR75       0.1862
     94  C         16.5910   17.7010   18.3450 C.2    75  THR75       0.2287
     95  O         16.3820   18.0180   19.5110 O.2    75  THR75      -0.2866
     96  CB        18.3700   18.8220   17.0250 C.3    75  THR75       0.1770
     97  OG1       19.6920   18.6770   16.5070 O.3    75  THR75      -0.2211
     98  CG2       18.3170   20.0520   17.9120 C.3    75  THR75       0.0375
     99  N         16.6600   17.8100   22.0880 N.3    79  GLU79      -0.1231
    100  CA        16.3920   19.1360   22.6390 C.3    79  GLU79       0.1699
    101  C         14.9150   19.3010   22.9520 C.2    79  GLU79       0.2593
    102  O         14.4910   20.3390   23.4550 O.2    79  GLU79      -0.2718
    103  CB        16.8600   20.2390   21.6900 C.3    79  GLU79       0.0402
    104  CG        18.3550   20.2270   21.4150 C.3    79  GLU79       0.1161
    105  CD        19.1770   20.7550   22.5700 C.2    79  GLU79       0.3649
    106  OE1       18.5840   21.1920   23.5850 O.co2  79  GLU79      -0.2457
    107  OE2       20.4230   20.7450   22.4580 O.co2  79  GLU79      -0.2457
    108  N         14.1330   18.2720   22.6480 N.am   80  GLY80      -0.1942
    109  CA        12.7210   18.2880   22.9690 C.3    80  GLY80       0.2014
    110  C         12.0000   19.4100   22.2610 C.2    80  GLY80       0.2639
    111  O         11.2620   20.1810   22.8870 O.2    80  GLY80      -0.2714
    112  N         12.2180   19.5110   20.9520 N.am   81  TYR81      -0.1959
    113  CA        11.5280   20.5070   20.1450 C.3    81  TYR81       0.1771
    114  C         10.0320   20.2950   20.1340 C.2    81  TYR81       0.2620
    115  O          9.5530   19.1750   19.9300 O.2    81  TYR81      -0.2715
    116  CB        12.0190   20.4700   18.6980 C.3    81  TYR81       0.0574
    117  CG        13.1990   21.3610   18.4440 C.ar   81  TYR81      -0.0198
    118  CD1       14.3780   21.1910   19.1490 C.ar   81  TYR81      -0.0009
    119  CD2       13.1390   22.3680   17.4860 C.ar   81  TYR81      -0.0009
    120  CE1       15.4690   21.9970   18.9200 C.ar   81  TYR81       0.0417
    121  CE2       14.2290   23.1780   17.2450 C.ar   81  TYR81       0.0417
    122  CZ        15.3910   22.9890   17.9640 C.ar   81  TYR81       0.1957
    123  OH        16.4880   23.7920   17.7370 O.3    81  TYR81      -0.2866
    124  N          9.3080   21.3870   20.3510 N.am   82  SER82      -0.1936
    125  CA         7.8810   21.4520   20.0760 C.3    82  SER82       0.2055
    126  C          7.7260   22.6390   19.1450 C.2    82  SER82       0.2643
    127  O          8.7230   23.1800   18.6560 O.2    82  SER82      -0.2714
    128  CB         7.0770   21.6740   21.3580 C.3    82  SER82       0.2130
    129  OG         7.5950   22.7750   22.0840 O.3    82  SER82      -0.2179
    130  N          6.4860   23.0530   18.9130 N.am   83  GLY83      -0.1954
    131  CA         6.2120   24.1270   17.9830 C.3    83  GLY83       0.1869
    132  C          6.9300   25.4080   18.3170 C.2    83  GLY83       0.2309
    133  O          7.2170   25.6980   19.4760 O.2    83  GLY83      -0.2863
    134  N          7.3330   29.0580   19.2030 N.3    85  ARG85      -0.1245
    135  CA         6.5030   30.0240   19.8910 C.3    85  ARG85       0.1563
    136  C          6.8430   31.4040   19.3660 C.2    85  ARG85       0.2260
    137  O          8.0150   31.7330   19.1540 O.2    85  ARG85      -0.2867
    138  CB         6.7530   29.9610   21.3980 C.3    85  ARG85       0.0307
    139  CG         6.6140   28.5740   22.0280 C.3    85  ARG85       0.0489
    140  CD         5.2130   28.3250   22.5730 C.3    85  ARG85       0.2205
    141  NE         4.2090   28.2370   21.5160 N.pl3  85  ARG85      -0.0865
    142  CZ         4.0230   27.1750   20.7470 C.cat  85  ARG85       0.5346
    143  NH1        4.7700   26.0950   20.9150 N.pl3  85  ARG85       0.1354
    144  NH2        3.0710   27.1750   19.8270 N.pl3  85  ARG85       0.1354
    145  N         18.7070   24.9470   13.1140 N.3   181  GLU181     -0.1245
    146  CA        19.2030   25.0180   14.4860 C.3   181  GLU181      0.1567
    147  C         19.9650   23.7740   14.8420 C.2   181  GLU181      0.2260
    148  O         20.3120   23.5600   15.9990 O.2   181  GLU181     -0.2867
    149  CB        18.0710   25.2680   15.4770 C.3   181  GLU181      0.0388
    150  CG        17.6340   26.7200   15.5030 C.3   181  GLU181      0.1160
    151  CD        16.3280   26.9230   16.1980 C.2   181  GLU181      0.3649
    152  OE1       15.7450   25.9180   16.6600 O.co2 181  GLU181     -0.2457
    153  OE2       15.8780   28.0900   16.2810 O.co2 181  GLU181     -0.2457
    154  N         26.9880   31.4090   18.4880 N.3   202  THR202     -0.1218
    155  CA        27.2450   31.9020   19.8120 C.3   202  THR202      0.1862
    156  C         28.4110   31.1510   20.4020 C.2   202  THR202      0.2287
    157  O         28.4310   29.9190   20.4880 O.2   202  THR202     -0.2866
    158  CB        26.0430   31.7280   20.7080 C.3   202  THR202      0.1770
    159  OG1       24.9340   32.3930   20.0970 O.3   202  THR202     -0.2211
    160  CG2       26.3300   32.3450   22.0750 C.3   202  THR202      0.0375
@<TRIPOS>BOND
     1   145   146    1
     2     1     2    1
     3    84    83    2
     4    17    19   ar
     5    17    15   ar
     6    19    18   ar
     7    15    14   ar
     8    83    82    1
     9     2     5    1
    10     2     3    1
    11   146   147    1
    12   146   149    1
    13    82    81    1
    14    82    85    1
    15   147   148    2
    16     5     6    1
    17    18    16   ar
    18     3     4    2
    19     3     9   am
    20    14    16   ar
    21    14    13    1
    22   149   150    1
    23   150   151    1
    24     9    10    1
    25    85    86    1
    26    13    10    1
    27   151   153   ar
    28   151   152   ar
    29     6     7    2
    30     6     8   am
    31    86    87    1
    32    97    96    1
    33    10    11    1
    34    92    93    1
    35    96    93    1
    36    96    98    1
    37   121   119   ar
    38   121   122   ar
    39    87    88    1
    40   119   117   ar
    41    76    75    2
    42    88    89    2
    43    65    64    2
    44   123   122    1
    45    93    94    1
    46    12    11    2
    47   122   120   ar
    48   131   132    1
    49   131   130    1
    50    11    20   am
    51    89    91    1
    52    89    90    1
    53    75    74    1
    54   132   133    2
    55    94    95    2
    56   117   116    1
    57   117   118   ar
    58   154   155    1
    59   127   126    2
    60   116   113    1
    61    64    63    1
    62    64    73   am
    63   130   126   am
    64   120   118   ar
    65    20    21    1
    66   126   125    1
    67   137   136    2
    68    63    62    1
    69    63    66    1
    70   134   135    1
    71    71    72   ar
    72    71    69   ar
    73   136   135    1
    74    74    73    1
    75    74    77    1
    76    72    70   ar
    77    69    67   ar
    78   155   156    1
    79   155   158    1
    80   144   142    1
    81   135   138    1
    82   115   114    2
    83    70    68   ar
    84    67    68   ar
    85    67    66    1
    86   125   124    1
    87   125   128    1
    88   159   158    1
    89   114   113    1
    90   114   124   am
    91   113   112    1
    92    21    22    1
    93    21    24    1
    94   156   157    2
    95    23    22    2
    96   158   160    1
    97    77    78    1
    98   142   143    1
    99   142   141    2
   100   112   110   am
   101    79    78    2
   102   128   129    1
   103   138   139    1
   104    24    26    1
   105    24    25    1
   106   104   103    1
   107   104   105    1
   108    49    48   ar
   109   141   140    1
   110   103   100    1
   111    78    80   am
   112   139   140    1
   113    46    45    2
   114    99   100    1
   115    33    32    1
   116   110   111    2
   117   110   109    1
   118    54    53    2
   119   107   105   ar
   120    48    50   ar
   121    48    47    1
   122   105   106   ar
   123    25    27    1
   124   100   101    1
   125   108   101   am
   126   108   109    1
   127    32    29    1
   128   101   102    2
   129    45    44    1
   130    45    51   am
   131    53    52    1
   132    44    47    1
   133    44    43    1
   134    52    51    1
   135    52    55    1
   136    29    28    1
   137    29    30    1
   138    30    31    2
   139    30    34   am
   140    55    56    1
   141    42    39    1
   142    34    35    1
   143    56    57    1
   144    39    38    1
   145    39    40    1
   146    35    36    1
   147    57    58    1
   148    40    41    2
   149    36    37    2
   150    58    59    2
   151    60    59    1
   152    59    61    1
