@<TRIPOS>MOLECULE
tmp/4xtaA00.pdb
 151 141 0 0 0
SMALL
GASTEIGER

@<TRIPOS>ATOM
      1  N         -2.1710    3.2260  -15.2600 N.3    19  PHE19      -0.1241
      2  CA        -3.2920    3.3850  -14.3150 C.3    19  PHE19       0.1605
      3  C         -2.8180    3.5180  -12.8610 C.2    19  PHE19       0.2264
      4  O         -2.3990    2.5370  -12.2550 O.2    19  PHE19      -0.2867
      5  CB        -4.2710    2.2010  -14.4190 C.3    19  PHE19       0.0534
      6  CG        -4.8240    1.9720  -15.7930 C.ar   19  PHE19      -0.0203
      7  CD1       -5.8040    2.8070  -16.3090 C.ar   19  PHE19      -0.0042
      8  CD2       -4.3960    0.8940  -16.5610 C.ar   19  PHE19      -0.0042
      9  CE1       -6.3330    2.5810  -17.5680 C.ar   19  PHE19      -0.0003
     10  CE2       -4.9300    0.6630  -17.8230 C.ar   19  PHE19      -0.0003
     11  CZ        -5.8920    1.5070  -18.3260 C.ar   19  PHE19      -0.0000
     12  N         -4.4490    3.9510   -9.9930 N.3    21  LEU21      -0.1245
     13  CA        -5.1260    3.1050   -9.0170 C.3    21  LEU21       0.1561
     14  C         -5.3340    1.7100   -9.5810 C.2    21  LEU21       0.2260
     15  O         -6.1740    1.4860  -10.4550 O.2    21  LEU21      -0.2867
     16  CB        -6.4660    3.6990   -8.5730 C.3    21  LEU21       0.0270
     17  CG        -7.1190    2.9850   -7.3810 C.3    21  LEU21       0.0019
     18  CD1       -6.0950    2.7310   -6.2810 C.3    21  LEU21       0.0001
     19  CD2       -8.2750    3.7960   -6.8250 C.3    21  LEU21       0.0001
     20  N        -19.1580   11.7440  -12.3560 N.3    64  CYS64      -0.1235
     21  CA       -18.9010   10.4950  -13.0600 C.3    64  CYS64       0.1677
     22  C        -18.4010   10.7830  -14.4770 C.2    64  CYS64       0.2270
     23  O        -17.5670   10.0500  -15.0100 O.2    64  CYS64      -0.2867
     24  CB       -20.1620    9.6260  -13.0950 C.3    64  CYS64       0.0956
     25  SG       -19.9290    7.9770  -13.8050 S.3    64  CYS64      -0.0801
     26  N        -14.7320   11.7190  -14.2720 N.3    67  ARG67      -0.1231
     27  CA       -13.8840   10.5710  -13.9660 C.3    67  ARG67       0.1694
     28  C        -13.8010    9.6360  -15.1760 C.2    67  ARG67       0.2592
     29  O        -12.7510    9.0450  -15.4430 O.2    67  ARG67      -0.2718
     30  CB       -14.3990    9.8270  -12.7220 C.3    67  ARG67       0.0321
     31  CG       -13.9380   10.4780  -11.4700 C.3    67  ARG67       0.0489
     32  CD       -13.8620    9.5860  -10.2410 C.3    67  ARG67       0.2205
     33  NE       -15.1330    8.9350   -9.9860 N.pl3  67  ARG67      -0.0865
     34  CZ       -16.2600    9.4710   -9.5300 C.cat  67  ARG67       0.5346
     35  NH1      -16.4640   10.7520   -9.2330 N.pl3  67  ARG67       0.1354
     36  NH2      -17.3010    8.6040   -9.3990 N.pl3  67  ARG67       0.1354
     37  N        -14.9000    9.5200  -15.9140 N.am   68  SER68      -0.1952
     38  CA       -14.9060    8.7670  -17.1700 C.3    68  SER68       0.1924
     39  C        -13.8790    9.3250  -18.1540 C.2    68  SER68       0.2314
     40  O        -13.1810    8.5750  -18.8330 O.2    68  SER68      -0.2863
     41  CB       -16.2910    8.7970  -17.8150 C.3    68  SER68       0.2116
     42  OG       -17.3150    8.4560  -16.8940 O.3    68  SER68      -0.2180
     43  N        -11.0350   11.0780  -17.6040 N.3    70  GLU70      -0.1231
     44  CA        -9.6830   10.7030  -17.2190 C.3    70  GLU70       0.1699
     45  C         -9.4460    9.2400  -17.5610 C.2    70  GLU70       0.2592
     46  O         -8.3910    8.8830  -18.0810 O.2    70  GLU70      -0.2718
     47  CB        -9.4440   10.9510  -15.7280 C.3    70  GLU70       0.0402
     48  CG        -9.8110   12.3860  -15.3690 C.3    70  GLU70       0.1161
     49  CD        -8.7980   13.4190  -15.7840 C.2    70  GLU70       0.3649
     50  OE1       -7.7770   13.0250  -16.3520 O.co2  70  GLU70      -0.2457
     51  OE2       -9.0250   14.6430  -15.5380 O.co2  70  GLU70      -0.2457
     52  N        -10.4430    8.4040  -17.2820 N.am   71  ALA71      -0.1980
     53  CA       -10.3770    6.9870  -17.6170 C.3    71  ALA71       0.1597
     54  C        -10.0310    6.7860  -19.0970 C.2    71  ALA71       0.2287
     55  O         -9.1760    5.9710  -19.4440 O.2    71  ALA71      -0.2864
     56  CB       -11.7060    6.2930  -17.2710 C.3    71  ALA71       0.0319
     57  N         -6.4210    7.5730  -19.7370 N.3    74  GLU74      -0.1231
     58  CA        -5.5480    6.5180  -19.2350 C.3    74  GLU74       0.1699
     59  C         -5.6250    5.2480  -20.0860 C.2    74  GLU74       0.2592
     60  O         -4.6080    4.6270  -20.4060 O.2    74  GLU74      -0.2718
     61  CB        -5.8940    6.2080  -17.7850 C.3    74  GLU74       0.0402
     62  CG        -5.8120    7.4250  -16.8830 C.3    74  GLU74       0.1161
     63  CD        -6.2530    7.1370  -15.4500 C.2    74  GLU74       0.3649
     64  OE1       -6.2720    5.9520  -15.0480 O.co2  74  GLU74      -0.2457
     65  OE2       -6.5800    8.1030  -14.7280 O.co2  74  GLU74      -0.2457
     66  N         -6.8380    4.8680  -20.4570 N.am   75  ILE75      -0.1980
     67  CA        -7.0330    3.7290  -21.3390 C.3    75  ILE75       0.1595
     68  C         -6.3630    3.9750  -22.7050 C.2    75  ILE75       0.2287
     69  O         -5.7290    3.0750  -23.2790 O.2    75  ILE75      -0.2864
     70  CB        -8.5370    3.4330  -21.4960 C.3    75  ILE75       0.0276
     71  CG1       -9.0940    2.8660  -20.1810 C.3    75  ILE75       0.0022
     72  CG2       -8.7980    2.4550  -22.6260 C.3    75  ILE75       0.0022
     73  CD1      -10.5790    3.0390  -20.0400 C.3    75  ILE75       0.0001
     74  N        -13.9740    0.5650  -18.8100 N.3   105  ILE105     -0.1245
     75  CA       -14.2610    1.3580  -17.6280 C.3   105  ILE105      0.1561
     76  C        -14.9990    0.5150  -16.6040 C.2   105  ILE105      0.2260
     77  O        -14.6620    0.5210  -15.4290 O.2   105  ILE105     -0.2867
     78  CB       -15.0900    2.6080  -17.9640 C.3   105  ILE105      0.0252
     79  CG1      -14.1790    3.7190  -18.4920 C.3   105  ILE105      0.0019
     80  CG2      -15.8360    3.1020  -16.7270 C.3   105  ILE105      0.0019
     81  CD1      -14.9270    4.9560  -18.9530 C.3   105  ILE105      0.0001
     82  N        -12.6980   -2.1810  -14.9610 N.3   108  MET108     -0.1230
     83  CA       -11.7940   -1.6530  -13.9650 C.3   108  MET108      0.1702
     84  C        -12.5870   -1.0220  -12.8390 C.2   108  MET108      0.2592
     85  O        -12.0930   -0.8790  -11.7230 O.2   108  MET108     -0.2718
     86  CB       -10.8330   -0.6550  -14.6120 C.3   108  MET108      0.0401
     87  CG        -9.9930   -1.3050  -15.7080 C.3   108  MET108      0.0596
     88  SD        -8.6990   -0.2710  -16.4400 S.3   108  MET108     -0.1393
     89  CE        -7.6160   -0.0220  -15.0360 C.3   108  MET108      0.0692
     90  N        -13.8280   -0.6570  -13.1370 N.am  109  LEU109     -0.1980
     91  CA       -14.7460   -0.1460  -12.1260 C.3   109  LEU109      0.1596
     92  C        -14.9890   -1.2120  -11.0810 C.2   109  LEU109      0.2287
     93  O        -15.0640   -0.9140   -9.8890 O.2   109  LEU109     -0.2864
     94  CB       -16.0650    0.2860  -12.7630 C.3   109  LEU109      0.0297
     95  CG       -16.9220    1.2880  -12.0100 C.3   109  LEU109      0.0022
     96  CD1      -16.0950    2.4760  -11.5450 C.3   109  LEU109      0.0001
     97  CD2      -18.0590    1.7300  -12.9170 C.3   109  LEU109      0.0001
     98  N        -12.8480   -1.3120   -8.1520 N.3   112  LEU112     -0.1245
     99  CA       -13.0370   -0.2970   -7.1300 C.3   112  LEU112      0.1561
    100  C        -14.2390   -0.6080   -6.2240 C.2   112  LEU112      0.2260
    101  O        -14.5790    0.1660   -5.3230 O.2   112  LEU112     -0.2867
    102  CB       -13.2120    1.0680   -7.8020 C.3   112  LEU112      0.0270
    103  CG       -12.1180    1.4270   -8.8150 C.3   112  LEU112      0.0019
    104  CD1      -12.3720    2.7890   -9.4390 C.3   112  LEU112      0.0001
    105  CD2      -10.7540    1.3940   -8.1580 C.3   112  LEU112      0.0001
    106  N        -18.4180    1.7230   -3.9060 N.3   118  VAL118     -0.1231
    107  CA       -17.3360    1.9060   -4.8680 C.3   118  VAL118      0.1692
    108  C        -16.3690    2.9850   -4.3940 C.2   118  VAL118      0.2592
    109  O        -16.7800    4.0110   -3.8300 O.2   118  VAL118     -0.2718
    110  CB       -17.8880    2.2590   -6.2950 C.3   118  VAL118      0.0266
    111  CG1      -18.8350    3.4570   -6.2360 C.3   118  VAL118      0.0020
    112  CG2      -16.7480    2.4870   -7.3150 C.3   118  VAL118      0.0020
    113  N        -15.0780    2.7130   -4.5850 N.am  119  LEU119     -0.1966
    114  CA       -14.0300    3.6920   -4.3470 C.3   119  LEU119      0.1728
    115  C        -14.0560    4.7870   -5.4170 C.2   119  LEU119      0.2616
    116  O        -14.3180    4.5210   -6.5970 O.2   119  LEU119     -0.2715
    117  CB       -12.6630    3.0190   -4.3400 C.3   119  LEU119      0.0311
    118  CG       -12.1550    2.2800   -3.1120 C.3   119  LEU119      0.0022
    119  CD1      -10.7810    1.6990   -3.4400 C.3   119  LEU119      0.0001
    120  CD2      -12.0830    3.2280   -1.9200 C.3   119  LEU119      0.0001
    121  N        -13.7790    6.0200   -5.0030 N.am  120  ILE120     -0.1963
    122  CA       -13.7340    7.1450   -5.9310 C.3   120  ILE120      0.1727
    123  C        -12.5550    8.0610   -5.6050 C.2   120  ILE120      0.2617
    124  O        -12.0480    8.0640   -4.4720 O.2   120  ILE120     -0.2715
    125  CB       -15.0430    7.9720   -5.8990 C.3   120  ILE120      0.0290
    126  CG1      -15.3000    8.5160   -4.4910 C.3   120  ILE120      0.0022
    127  CG2      -16.2250    7.1370   -6.3530 C.3   120  ILE120      0.0023
    128  CD1      -16.1270    9.7740   -4.4700 C.3   120  ILE120      0.0001
    129  N        -12.1270    8.8270   -6.6070 N.am  121  SER121     -0.1936
    130  CA       -11.0330    9.7930   -6.4720 C.3   121  SER121      0.2055
    131  C         -9.7310    9.1680   -5.9870 C.2   121  SER121      0.2642
    132  O         -9.1720    9.5940   -4.9810 O.2   121  SER121     -0.2714
    133  CB       -11.4340   10.9280   -5.5320 C.3   121  SER121      0.2130
    134  OG       -12.5820   11.5880   -6.0260 O.3   121  SER121     -0.2179
    135  N         -9.2520    8.1750   -6.7270 N.am  122  GLU122     -0.1976
    136  CA        -8.0290    7.4580   -6.3910 C.3   122  GLU122      0.1602
    137  C         -8.0830    6.9860   -4.9460 C.2   122  GLU122      0.2287
    138  O         -7.1830    7.2730   -4.1570 O.2   122  GLU122     -0.2864
    139  CB        -6.7880    8.3330   -6.6320 C.3   122  GLU122      0.0415
    140  CG        -6.5390    8.6660   -8.1020 C.3   122  GLU122      0.1163
    141  CD        -6.3590    7.4250   -8.9920 C.2   122  GLU122      0.3649
    142  OE1       -7.3740    6.8160   -9.4140 O.co2 122  GLU122     -0.2457
    143  OE2       -5.1930    7.0680   -9.2930 O.co2 122  GLU122     -0.2457
    144  N        -26.1600    3.1460  -10.7150 N.3   141  MET141     -0.1245
    145  CA       -24.9560    2.3450  -10.8990 C.3   141  MET141      0.1570
    146  C        -25.2190    0.8830  -10.5340 C.2   141  MET141      0.2261
    147  O        -24.2980    0.0650  -10.4750 O.2   141  MET141     -0.2867
    148  CB       -23.8020    2.9170  -10.0650 C.3   141  MET141      0.0387
    149  CG       -23.0120    4.0430  -10.7530 C.3   141  MET141      0.0595
    150  SD       -21.3080    3.6110  -11.2290 S.3   141  MET141     -0.1393
    151  CE       -20.4350    3.6340   -9.6480 C.3   141  MET141      0.0692
@<TRIPOS>BOND
     1    69    68    2
     2    68    67    1
     3    72    70    1
     4    70    67    1
     5    70    71    1
     6    67    66    1
     7    66    59   am
     8    60    59    2
     9    71    73    1
    10    59    58    1
    11    57    58    1
    12    55    54    2
    13    58    61    1
    14    54    53    1
    15    81    79    1
    16    40    39    2
    17    74    75    1
    18    79    78    1
    19    11    10   ar
    20    11     9   ar
    21    39    38    1
    22    46    45    2
    23    78    75    1
    24    78    80    1
    25    10     8   ar
    26    41    38    1
    27    41    42    1
    28    61    62    1
    29    75    76    1
    30    53    52    1
    31    53    56    1
    32    43    44    1
    33     9     7   ar
    34    45    52   am
    35    45    44    1
    36    44    47    1
    37    38    37    1
    38    62    63    1
    39    76    77    2
    40     8     6   ar
    41    88    87    1
    42    88    89    1
    43    50    49   ar
    44     7     6   ar
    45    37    28   am
    46     6     5    1
    47    49    51   ar
    48    49    48    1
    49    47    48    1
    50    87    86    1
    51    63    64   ar
    52    63    65   ar
    53    29    28    2
    54     1     2    1
    55    28    27    1
    56    23    22    2
    57    82    83    1
    58    86    83    1
    59    22    21    1
    60     5     2    1
    61     2     3    1
    62    26    27    1
    63    27    30    1
    64    83    84    1
    65    25    24    1
    66    90    84   am
    67    90    91    1
    68    24    21    1
    69    21    20    1
    70    97    95    1
    71     3     4    2
    72    84    85    2
    73    94    91    1
    74    94    95    1
    75    30    31    1
    76    91    92    1
    77    95    96    1
    78    31    32    1
    79   150   149    1
    80   150   151    1
    81    92    93    2
    82   145   144    1
    83   145   146    1
    84   145   148    1
    85   149   148    1
    86   146   147    2
    87    15    14    2
    88    32    33    1
    89    12    13    1
    90    33    34    2
    91    14    13    1
    92    34    36    1
    93    34    35    1
    94   104   103    1
    95   142   141   ar
    96   143   141   ar
    97    13    16    1
    98   141   140    1
    99   103   105    1
   100   103   102    1
   101    16    17    1
   102    98    99    1
   103   140   139    1
   104   102    99    1
   105    17    19    1
   106    17    18    1
   107   112   110    1
   108    99   100    1
   109   135   136    1
   110   135   131   am
   111   139   136    1
   112   129   130    1
   113   129   123   am
   114   116   115    2
   115   130   131    1
   116   130   133    1
   117   136   137    1
   118   127   125    1
   119   110   111    1
   120   110   107    1
   121   100   101    2
   122   134   133    1
   123   131   132    2
   124   122   125    1
   125   122   123    1
   126   122   121    1
   127   125   126    1
   128   123   124    2
   129   115   121   am
   130   115   114    1
   131   137   138    2
   132   107   108    1
   133   107   106    1
   134   113   108   am
   135   113   114    1
   136   126   128    1
   137   108   109    2
   138   114   117    1
   139   117   118    1
   140   119   118    1
   141   118   120    1
