@<TRIPOS>MOLECULE
tmp/4xtbA00.pdb
 85 83 0 0 0
SMALL
GASTEIGER

@<TRIPOS>ATOM
      1  N        -17.8250   15.8640   -5.8370 N.3     6  TYR6       -0.1227
      2  CA       -16.3600   15.8890   -6.0290 C.3     6  TYR6        0.1736
      3  C        -15.7900   17.2440   -5.6540 C.2     6  TYR6        0.2595
      4  O        -16.3370   18.2890   -6.0310 O.2     6  TYR6       -0.2718
      5  CB       -15.9730   15.5120   -7.4600 C.3     6  TYR6        0.0548
      6  CG       -16.1260   14.0380   -7.7060 C.ar    6  TYR6       -0.0200
      7  CD1      -17.3660   13.4820   -8.0040 C.ar    6  TYR6       -0.0009
      8  CD2      -15.0490   13.1820   -7.6280 C.ar    6  TYR6       -0.0009
      9  CE1      -17.5210   12.1210   -8.2160 C.ar    6  TYR6        0.0417
     10  CE2      -15.1930   11.8160   -7.8270 C.ar    6  TYR6        0.0417
     11  CZ       -16.4180   11.2890   -8.1210 C.ar    6  TYR6        0.1957
     12  OH       -16.5250    9.9360   -8.3170 O.3     6  TYR6       -0.2866
     13  N        -14.7170   17.2170   -4.8640 N.am    7  GLN7       -0.1965
     14  CA       -14.0080   18.4250   -4.4600 C.3     7  GLN7        0.1733
     15  C        -12.5420   18.1270   -4.6560 C.2     7  GLN7        0.2616
     16  O        -12.0470   17.1060   -4.1810 O.2     7  GLN7       -0.2715
     17  CB       -14.3000   18.7840   -3.0040 C.3     7  GLN7        0.0408
     18  CG       -15.7630   19.0840   -2.7000 C.3     7  GLN7        0.0908
     19  CD       -16.0250   19.5470   -1.2740 C.2     7  GLN7        0.2608
     20  OE1      -15.1760   20.1740   -0.6510 O.2     7  GLN7       -0.2717
     21  NE2      -17.2250   19.2630   -0.7630 N.am    7  GLN7       -0.0878
     22  N        -11.8410   18.9750   -5.3960 N.am    8  ASN8       -0.1958
     23  CA       -10.4310   18.7130   -5.7240 C.3     8  ASN8        0.1819
     24  C        -10.1990   17.3420   -6.3600 C.2     8  ASN8        0.2621
     25  O         -9.1630   16.7060   -6.1630 O.2     8  ASN8       -0.2715
     26  CB        -9.5450   18.9380   -4.5010 C.3     8  ASN8        0.1195
     27  CG        -9.7460   20.3110   -3.9250 C.2     8  ASN8        0.2630
     28  OD1       -9.5370   21.3080   -4.6130 O.2     8  ASN8       -0.2716
     29  ND2      -10.2360   20.3740   -2.7040 N.am    8  ASN8       -0.0877
     30  N        -11.1830   16.8900   -7.1330 N.am    9  GLY9       -0.1954
     31  CA       -11.1030   15.6180   -7.8190 C.3     9  GLY9        0.1869
     32  C        -11.3970   14.3920   -6.9990 C.2     9  GLY9        0.2309
     33  O        -11.2950   13.2920   -7.5120 O.2     9  GLY9       -0.2863
     34  N        -18.7190   10.1740  -13.8880 N.3    92  ARG92      -0.1245
     35  CA       -17.4810   10.5600  -14.5560 C.3    92  ARG92       0.1563
     36  C        -16.7490    9.2920  -15.0010 C.2    92  ARG92       0.2260
     37  O        -17.0700    8.2120  -14.5400 O.2    92  ARG92      -0.2867
     38  CB       -16.5960   11.4500  -13.6670 C.3    92  ARG92       0.0307
     39  CG       -16.3130   10.9140  -12.2660 C.3    92  ARG92       0.0489
     40  CD       -15.2210   11.7270  -11.5590 C.3    92  ARG92       0.2205
     41  NE       -15.6010   13.1170  -11.3020 N.pl3  92  ARG92      -0.0865
     42  CZ       -14.7580   14.1400  -11.0880 C.cat  92  ARG92       0.5346
     43  NH1      -15.2200   15.3710  -10.8980 N.pl3  92  ARG92       0.1354
     44  NH2      -13.4470   13.9580  -11.0640 N.pl3  92  ARG92       0.1354
     45  N        -10.9880    8.9830  -15.0750 N.3    96  SER96      -0.1202
     46  CA       -11.0450   10.2490  -14.3320 C.3    96  SER96       0.2020
     47  C        -10.1290   10.3500  -13.1070 C.2    96  SER96       0.2618
     48  O         -9.4780   11.3810  -12.8720 O.2    96  SER96      -0.2717
     49  CB       -12.5040   10.5330  -13.8910 C.3    96  SER96       0.2103
     50  OG       -12.9040    9.7180  -12.8180 O.3    96  SER96      -0.2182
     51  N        -10.1090    9.2770  -12.3300 N.am   97  HIS97      -0.1975
     52  CA        -9.5130    9.2760  -11.0000 C.3    97  HIS97       0.1656
     53  C         -7.9970    9.2800  -10.9680 C.2    97  HIS97       0.2291
     54  O         -7.4290    9.6180   -9.9370 O.2    97  HIS97      -0.2864
     55  CB       -10.0490    8.0800  -10.2080 C.3    97  HIS97       0.0771
     56  CG       -11.5480    8.0410  -10.1460 C.ar   97  HIS97       0.0820
     57  ND1      -12.2840    9.0060   -9.4860 N.ar   97  HIS97      -0.2267
     58  CD2      -12.4460    7.1870  -10.7000 C.ar   97  HIS97       0.1154
     59  CE1      -13.5710    8.7210   -9.5970 C.ar   97  HIS97       0.1986
     60  NE2      -13.6990    7.6280  -10.3340 N.ar   97  HIS97      -0.2212
     61  N         -5.5960   11.1840  -12.1340 N.3    99  ASN99      -0.1225
     62  CA        -4.9070   12.4670  -11.8730 C.3    99  ASN99       0.1785
     63  C         -5.5900   13.3090  -10.7860 C.2    99  ASN99       0.2597
     64  O         -5.4010   14.5300  -10.7290 O.2    99  ASN99      -0.2718
     65  CB        -4.7110   13.2700  -13.1770 C.3    99  ASN99       0.1169
     66  CG        -5.9900   13.4260  -13.9860 C.2    99  ASN99       0.2627
     67  OD1       -7.1000   13.3120  -13.4640 O.2    99  ASN99      -0.2716
     68  ND2       -5.8340   13.6770  -15.2770 N.am   99  ASN99      -0.0877
     69  N         -6.3440   12.6450   -9.9010 N.am  100  ALA100     -0.1966
     70  CA        -7.1120   13.3300   -8.8440 C.3   100  ALA100      0.1728
     71  C         -6.2520   14.1130   -7.8920 C.2   100  ALA100      0.2616
     72  O         -5.2100   13.6220   -7.4640 O.2   100  ALA100     -0.2715
     73  CB        -7.9400   12.3450   -8.0400 C.3   100  ALA100      0.0334
     74  N         -6.7100   15.3180   -7.5510 N.am  101  ALA101     -0.1963
     75  CA        -6.1050   16.1090   -6.4850 C.3   101  ALA101      0.1728
     76  C         -4.6280   16.3690   -6.7470 C.2   101  ALA101      0.2616
     77  O         -3.8230   16.3760   -5.8110 O.2   101  ALA101     -0.2715
     78  CB        -6.3060   15.4070   -5.1460 C.3   101  ALA101      0.0334
     79  N         -4.2900   16.5670   -8.0240 N.am  102  THR102     -0.1951
     80  CA        -2.9290   16.9140   -8.4460 C.3   102  THR102      0.1897
     81  C         -2.9650   18.3590   -8.9080 C.2   102  THR102      0.2313
     82  O         -3.8880   18.7650   -9.6360 O.2   102  THR102     -0.2863
     83  CB        -2.4110   16.0630   -9.6290 C.3   102  THR102      0.1794
     84  OG1       -3.1400   16.3900  -10.8190 O.3   102  THR102     -0.2208
     85  CG2       -2.5160   14.5640   -9.3540 C.3   102  THR102      0.0378
@<TRIPOS>BOND
     1    68    66   am
     2    45    46    1
     3    36    35    1
     4    36    37    2
     5    35    34    1
     6    35    38    1
     7    46    49    1
     8    46    47    1
     9    66    67    2
    10    66    65    1
    11    49    50    1
    12    38    39    1
    13    65    62    1
    14    47    48    2
    15    47    51   am
    16    51    52    1
    17    39    40    1
    18    61    62    1
    19    62    63    1
    20    40    41    1
    21    41    42    2
    22    42    44    1
    23    42    43    1
    24    52    53    1
    25    52    55    1
    26    53    54    2
    27    84    83    1
    28    63    64    2
    29    63    69   am
    30    58    60   ar
    31    58    56   ar
    32    60    59   ar
    33    55    56    1
    34    56    57   ar
    35    69    70    1
    36    82    81    2
    37    83    85    1
    38    83    80    1
    39    59    57   ar
    40    81    80    1
    41    70    73    1
    42    70    71    1
    43    80    79    1
    44    12    11    1
    45     9    11   ar
    46     9     7   ar
    47    11    10   ar
    48    79    76   am
    49     7     6   ar
    50    71    74   am
    51    71    72    2
    52    10     8   ar
    53    31    30    1
    54    31    32    1
    55     6     8   ar
    56     6     5    1
    57    74    75    1
    58    33    32    2
    59     5     2    1
    60    30    24   am
    61    76    75    1
    62    76    77    2
    63    75    78    1
    64    24    25    2
    65    24    23    1
    66     4     3    2
    67     2     1    1
    68     2     3    1
    69    23    22    1
    70    23    26    1
    71     3    13   am
    72    22    15   am
    73    13    14    1
    74    15    14    1
    75    15    16    2
    76    28    27    2
    77    26    27    1
    78    14    17    1
    79    27    29   am
    80    17    18    1
    81    18    19    1
    82    19    21   am
    83    19    20    2
