@<TRIPOS>MOLECULE
tmp/4xtcD02.pdb
 105 101 0 0 0
SMALL
GASTEIGER

@<TRIPOS>ATOM
      1  N        -45.6940   -1.8790    8.5150 N.3    20  ARG20      -0.1245
      2  CA       -44.9740   -3.1470    8.3990 C.3    20  ARG20       0.1563
      3  C        -44.5060   -3.4380    6.9750 C.2    20  ARG20       0.2260
      4  O        -44.2320   -4.5870    6.6320 O.2    20  ARG20      -0.2867
      5  CB       -45.8510   -4.2970    8.9050 C.3    20  ARG20       0.0307
      6  CG       -46.4720   -4.0350   10.2700 C.3    20  ARG20       0.0489
      7  CD       -47.3470   -5.1880   10.7350 C.3    20  ARG20       0.2205
      8  NE       -47.9590   -4.9080   12.0320 N.pl3  20  ARG20      -0.0865
      9  CZ       -48.7610   -5.7480   12.6800 C.cat  20  ARG20       0.5346
     10  NH1      -49.0520   -6.9290   12.1540 N.pl3  20  ARG20       0.1354
     11  NH2      -49.2710   -5.4050   13.8550 N.pl3  20  ARG20       0.1354
     12  N        -45.9390   -3.7660    4.3380 N.3    22  LYS22      -0.1245
     13  CA       -46.7450   -4.7880    3.6810 C.3    22  LYS22       0.1561
     14  C        -48.1290   -4.2710    3.3080 C.2    22  LYS22       0.2260
     15  O        -48.4730   -4.1750    2.1300 O.2    22  LYS22      -0.2867
     16  CB       -46.8680   -6.0220    4.5780 C.3    22  LYS22       0.0271
     17  CG       -45.5590   -6.7690    4.7790 C.3    22  LYS22       0.0035
     18  CD       -45.6390   -7.7350    5.9490 C.3    22  LYS22       0.0206
     19  CE       -44.2750   -8.3320    6.2600 C.3    22  LYS22       0.1093
     20  NZ       -44.3120   -9.2040    7.4660 N.3    22  LYS22      -0.1314
     21  N        -47.1650    1.7050   12.6110 N.3    74  ASP74      -0.1225
     22  CA       -46.3180    1.0510   13.6020 C.3    74  ASP74       0.1805
     23  C        -44.9910    1.7850   13.7610 C.2    74  ASP74       0.2597
     24  O        -44.4980    2.4000   12.8140 O.2    74  ASP74      -0.2718
     25  CB       -46.0630   -0.4060   13.2110 C.3    74  ASP74       0.1424
     26  CG       -45.1530   -0.5370   12.0070 C.2    74  ASP74       0.3668
     27  OD1      -45.6610   -0.4940   10.8690 O.co2  74  ASP74      -0.2456
     28  OD2      -43.9280   -0.6860   12.1980 O.co2  74  ASP74      -0.2456
     29  N        -44.4290    1.7170   14.9660 N.am   75  ASN75      -0.1974
     30  CA       -43.1530    2.3560   15.2910 C.3    75  ASN75       0.1688
     31  C        -43.1690    3.8580   15.0190 C.2    75  ASN75       0.2292
     32  O        -42.1300    4.4660   14.7640 O.2    75  ASN75      -0.2864
     33  CB       -42.0120    1.6860   14.5220 C.3    75  ASN75       0.1181
     34  CG       -41.8720    0.2130   14.8600 C.2    75  ASN75       0.2629
     35  OD1      -41.2230   -0.1520   15.8400 O.2    75  ASN75      -0.2716
     36  ND2      -42.4880   -0.6410   14.0500 N.am   75  ASN75      -0.0877
     37  N        -42.0710  -15.1750   22.0860 N.3   137  ARG137     -0.1245
     38  CA       -41.3370  -16.0660   21.1960 C.3   137  ARG137      0.1563
     39  C        -40.7230  -17.2530   21.9310 C.2   137  ARG137      0.2260
     40  O        -40.3870  -17.1650   23.1110 O.2   137  ARG137     -0.2867
     41  CB       -40.2450  -15.2900   20.4550 C.3   137  ARG137      0.0307
     42  CG       -40.7830  -14.2870   19.4450 C.3   137  ARG137      0.0489
     43  CD       -39.6710  -13.7190   18.5770 C.3   137  ARG137      0.2205
     44  NE       -40.1960  -12.9120   17.4780 N.pl3 137  ARG137     -0.0865
     45  CZ       -40.4220  -11.6050   17.5500 C.cat 137  ARG137      0.5346
     46  NH1      -40.1640  -10.9450   18.6710 N.pl3 137  ARG137      0.1354
     47  NH2      -40.9010  -10.9540   16.4990 N.pl3 137  ARG137      0.1354
     48  N        -38.7140  -15.6480    9.7060 N.3   186  ARG186     -0.1231
     49  CA       -39.3160  -14.6160    8.8680 C.3   186  ARG186      0.1694
     50  C        -38.9670  -13.2230    9.3810 C.2   186  ARG186      0.2592
     51  O        -39.3700  -12.2160    8.7990 O.2   186  ARG186     -0.2718
     52  CB       -40.8350  -14.7930    8.7860 C.3   186  ARG186      0.0321
     53  CG       -41.5800  -14.5260   10.0770 C.3   186  ARG186      0.0489
     54  CD       -43.0770  -14.4420    9.8270 C.3   186  ARG186      0.2205
     55  NE       -43.8100  -13.9930   11.0070 N.pl3 186  ARG186     -0.0865
     56  CZ       -45.1040  -13.6910   11.0100 C.cat 186  ARG186      0.5346
     57  NH1      -45.8110  -13.7870    9.8920 N.pl3 186  ARG186      0.1354
     58  NH2      -45.6910  -13.2890   12.1280 N.pl3 186  ARG186      0.1354
     59  N        -38.2190  -13.1770   10.4770 N.am  187  HIS187     -0.1976
     60  CA       -37.6840  -11.9240   10.9920 C.3   187  HIS187      0.1656
     61  C        -36.1680  -11.9310   10.8520 C.2   187  HIS187      0.2291
     62  O        -35.4940  -12.7580   11.4650 O.2   187  HIS187     -0.2864
     63  CB       -38.0820  -11.7120   12.4560 C.3   187  HIS187      0.0771
     64  CG       -39.5510  -11.5150   12.6650 C.ar  187  HIS187      0.0820
     65  ND1      -40.4920  -12.4310   12.2490 N.ar  187  HIS187     -0.2267
     66  CD2      -40.2410  -10.5100   13.2550 C.ar  187  HIS187      0.1154
     67  CE1      -41.6990  -11.9970   12.5690 C.ar  187  HIS187      0.1986
     68  NE2      -41.5730  -10.8340   13.1810 N.ar  187  HIS187     -0.2212
     69  N        -36.9220   -5.0080   18.5450 N.3   208  TYR208     -0.1241
     70  CA       -35.5350   -5.3210   18.2300 C.3   208  TYR208      0.1605
     71  C        -34.6400   -4.1020   18.4090 C.2   208  TYR208      0.2264
     72  O        -35.0620   -2.9720   18.1550 O.2   208  TYR208     -0.2867
     73  CB       -35.4120   -5.8530   16.8030 C.3   208  TYR208      0.0534
     74  CG       -36.1090   -7.1730   16.5730 C.ar  208  TYR208     -0.0201
     75  CD1      -35.6620   -8.3330   17.1920 C.ar  208  TYR208     -0.0009
     76  CD2      -37.2050   -7.2640   15.7250 C.ar  208  TYR208     -0.0009
     77  CE1      -36.2920   -9.5440   16.9810 C.ar  208  TYR208      0.0417
     78  CE2      -37.8410   -8.4710   15.5070 C.ar  208  TYR208      0.0417
     79  CZ       -37.3800   -9.6080   16.1380 C.ar  208  TYR208      0.1957
     80  OH       -38.0090  -10.8120   15.9240 O.3   208  TYR208     -0.2866
     81  N        -42.8640  -17.5260   16.6210 N.3   270  TRP270     -0.1241
     82  CA       -43.8380  -17.5060   17.7090 C.3   270  TRP270      0.1605
     83  C        -44.5230  -18.8650   17.8240 C.2   270  TRP270      0.2264
     84  O        -44.4750  -19.6630   16.8940 O.2   270  TRP270     -0.2867
     85  CB       -44.8810  -16.4060   17.4850 C.3   270  TRP270      0.0550
     86  CG       -44.3190  -15.0120   17.3680 C.ar  270  TRP270      0.0003
     87  CD1      -43.4360  -14.5580   16.4300 C.ar  270  TRP270      0.0946
     88  CD2      -44.6280  -13.8860   18.2010 C.ar  270  TRP270      0.0152
     89  NE1      -43.1640  -13.2280   16.6380 N.ar  270  TRP270     -0.2442
     90  CE2      -43.8850  -12.7910   17.7180 C.ar  270  TRP270      0.0810
     91  CE3      -45.4580  -13.7000   19.3110 C.ar  270  TRP270      0.0012
     92  CZ2      -43.9450  -11.5300   18.3070 C.ar  270  TRP270      0.0191
     93  CZ3      -45.5140  -12.4470   19.8960 C.ar  270  TRP270      0.0001
     94  CH2      -44.7630  -11.3790   19.3930 C.ar  270  TRP270      0.0015
     95  N        -47.2200   -1.1290   22.8960 N.3   313  ARG313     -0.1245
     96  CA       -46.0500   -1.1420   22.0030 C.3   313  ARG313      0.1563
     97  C        -46.0210    0.1750   21.2250 C.2   313  ARG313      0.2260
     98  O        -47.0180    0.8970   21.2000 O.2   313  ARG313     -0.2867
     99  CB       -46.0590   -2.3370   21.0350 C.3   313  ARG313      0.0307
    100  CG       -47.3450   -2.5590   20.2700 C.3   313  ARG313      0.0489
    101  CD       -47.2620   -3.8440   19.4570 C.3   313  ARG313      0.2205
    102  NE       -46.5310   -3.6660   18.2050 N.pl3 313  ARG313     -0.0865
    103  CZ       -45.2680   -4.0330   18.0120 C.cat 313  ARG313      0.5346
    104  NH1      -44.5830   -4.6080   18.9900 N.pl3 313  ARG313      0.1354
    105  NH2      -44.6920   -3.8270   16.8360 N.pl3 313  ARG313      0.1354
@<TRIPOS>BOND
     1    15    14    2
     2    14    13    1
     3    13    12    1
     4    13    16    1
     5    16    17    1
     6    17    18    1
     7    18    19    1
     8    19    20    1
     9     4     3    2
    10     3     2    1
    11     2     1    1
    12     2     5    1
    13    52    49    1
    14    52    53    1
    15    51    50    2
    16    49    50    1
    17    49    48    1
    18     5     6    1
    19    50    59   am
    20    54    53    1
    21    54    55    1
    22    57    56    1
    23     6     7    1
    24    59    60    1
    25     7     8    1
    26    61    60    1
    27    61    62    2
    28    27    26   ar
    29    60    63    1
    30    55    56    2
    31    56    58    1
    32    26    28   ar
    33    26    25    1
    34     8     9    2
    35    10     9    1
    36    65    67   ar
    37    65    64   ar
    38    63    64    1
    39    67    68   ar
    40    21    22    1
    41    64    66   ar
    42     9    11    1
    43    24    23    2
    44    68    66   ar
    45    25    22    1
    46    22    23    1
    47    23    29   am
    48    36    34   am
    49    33    34    1
    50    33    30    1
    51    32    31    2
    52    34    35    2
    53    29    30    1
    54    31    30    1
    55    78    76   ar
    56    78    79   ar
    57    76    74   ar
    58    80    79    1
    59    79    77   ar
    60    87    89   ar
    61    87    86   ar
    62    47    45    1
    63    74    73    1
    64    74    75   ar
    65    81    82    1
    66    89    90   ar
    67    73    70    1
    68   105   103    1
    69    84    83    2
    70    77    75   ar
    71    86    85    1
    72    86    88   ar
    73    44    45    2
    74    44    43    1
    75    85    82    1
    76    45    46    1
    77    82    83    1
    78    90    88   ar
    79    90    92   ar
    80   103   102    2
    81   103   104    1
    82    72    71    2
    83    88    91   ar
    84   102   101    1
    85    70    71    1
    86    70    69    1
    87    92    94   ar
    88    43    42    1
    89    91    93   ar
    90    94    93   ar
    91    42    41    1
    92   101   100    1
    93   100    99    1
    94    41    38    1
    95    99    96    1
    96    38    39    1
    97    38    37    1
    98    98    97    2
    99    97    96    1
   100    39    40    2
   101    96    95    1
