@<TRIPOS>MOLECULE
tmp/4xtcD00.pdb
 132 128 0 0 0
SMALL
GASTEIGER

@<TRIPOS>ATOM
      1  N        -51.7320    0.6750   20.3270 N.3   129  TYR129     -0.1241
      2  CA       -52.1340   -0.7200   20.1840 C.3   129  TYR129      0.1605
      3  C        -51.6340   -1.5190   21.3810 C.2   129  TYR129      0.2264
      4  O        -50.4440   -1.5110   21.6880 O.2   129  TYR129     -0.2867
      5  CB       -51.5980   -1.2940   18.8660 C.3   129  TYR129      0.0534
      6  CG       -51.5400   -2.8060   18.7800 C.ar  129  TYR129     -0.0201
      7  CD1      -52.6160   -3.5970   19.1640 C.ar  129  TYR129     -0.0009
      8  CD2      -50.4130   -3.4400   18.2770 C.ar  129  TYR129     -0.0009
      9  CE1      -52.5540   -4.9770   19.0790 C.ar  129  TYR129      0.0417
     10  CE2      -50.3450   -4.8160   18.1830 C.ar  129  TYR129      0.0417
     11  CZ       -51.4170   -5.5800   18.5840 C.ar  129  TYR129      0.1957
     12  OH       -51.3490   -6.9510   18.4890 O.3   129  TYR129     -0.2866
     13  N        -38.7140  -15.6480    9.7060 N.3   186  ARG186     -0.1245
     14  CA       -39.3160  -14.6160    8.8680 C.3   186  ARG186      0.1563
     15  C        -38.9670  -13.2230    9.3810 C.2   186  ARG186      0.2260
     16  O        -39.3700  -12.2160    8.7990 O.2   186  ARG186     -0.2867
     17  CB       -40.8350  -14.7930    8.7860 C.3   186  ARG186      0.0307
     18  CG       -41.5800  -14.5260   10.0770 C.3   186  ARG186      0.0489
     19  CD       -43.0770  -14.4420    9.8270 C.3   186  ARG186      0.2205
     20  NE       -43.8100  -13.9930   11.0070 N.pl3 186  ARG186     -0.0865
     21  CZ       -45.1040  -13.6910   11.0100 C.cat 186  ARG186      0.5346
     22  NH1      -45.8110  -13.7870    9.8920 N.pl3 186  ARG186      0.1354
     23  NH2      -45.6910  -13.2890   12.1280 N.pl3 186  ARG186      0.1354
     24  N        -42.8640  -17.5260   16.6210 N.3   270  TRP270     -0.1241
     25  CA       -43.8380  -17.5060   17.7090 C.3   270  TRP270      0.1605
     26  C        -44.5230  -18.8650   17.8240 C.2   270  TRP270      0.2264
     27  O        -44.4750  -19.6630   16.8940 O.2   270  TRP270     -0.2867
     28  CB       -44.8810  -16.4060   17.4850 C.3   270  TRP270      0.0550
     29  CG       -44.3190  -15.0120   17.3680 C.ar  270  TRP270      0.0003
     30  CD1      -43.4360  -14.5580   16.4300 C.ar  270  TRP270      0.0946
     31  CD2      -44.6280  -13.8860   18.2010 C.ar  270  TRP270      0.0152
     32  NE1      -43.1640  -13.2280   16.6380 N.ar  270  TRP270     -0.2442
     33  CE2      -43.8850  -12.7910   17.7180 C.ar  270  TRP270      0.0810
     34  CE3      -45.4580  -13.7000   19.3110 C.ar  270  TRP270      0.0012
     35  CZ2      -43.9450  -11.5300   18.3070 C.ar  270  TRP270      0.0191
     36  CZ3      -45.5140  -12.4470   19.8960 C.ar  270  TRP270      0.0001
     37  CH2      -44.7630  -11.3790   19.3930 C.ar  270  TRP270      0.0015
     38  N        -47.9550  -19.9600   18.2650 N.3   272  ALA272     -0.1231
     39  CA       -49.2060  -20.2870   17.5860 C.3   272  ALA272      0.1694
     40  C        -49.0490  -20.4530   16.0750 C.2   272  ALA272      0.2592
     41  O        -49.3820  -21.5040   15.5180 O.2   272  ALA272     -0.2718
     42  CB       -50.2480  -19.2220   17.8880 C.3   272  ALA272      0.0304
     43  N        -48.5380  -19.4160   15.4200 N.am  273  SER273     -0.1952
     44  CA       -48.4250  -19.4030   13.9660 C.3   273  SER273      0.1924
     45  C        -47.4890  -20.4920   13.4470 C.2   273  SER273      0.2314
     46  O        -47.6960  -21.0300   12.3590 O.2   273  SER273     -0.2863
     47  CB       -47.9470  -18.0320   13.4850 C.3   273  SER273      0.2116
     48  OG       -46.6710  -17.7250   14.0190 O.3   273  SER273     -0.2180
     49  N        -43.8310  -10.8710   25.6900 N.3   309  ARG309     -0.1245
     50  CA       -44.8330   -9.9920   25.1070 C.3   309  ARG309      0.1563
     51  C        -44.9840   -8.7480   25.9720 C.2   309  ARG309      0.2260
     52  O        -45.3320   -8.8310   27.1490 O.2   309  ARG309     -0.2867
     53  CB       -46.1750  -10.7110   24.9580 C.3   309  ARG309      0.0307
     54  CG       -47.2410   -9.8840   24.2570 C.3   309  ARG309      0.0489
     55  CD       -48.5050  -10.6920   24.0170 C.3   309  ARG309      0.2205
     56  NE       -48.2580  -11.8620   23.1790 N.pl3 309  ARG309     -0.0865
     57  CZ       -49.2040  -12.7000   22.7680 C.cat 309  ARG309      0.5346
     58  NH1      -50.4680  -12.4990   23.1160 N.pl3 309  ARG309      0.1354
     59  NH2      -48.8880  -13.7390   22.0070 N.pl3 309  ARG309      0.1354
     60  N        -54.1350  -15.2260   11.9870 N.3   375  ASN375     -0.1240
     61  CA       -53.6820  -13.8410   11.9830 C.3   375  ASN375      0.1653
     62  C        -53.3110  -13.3670   10.5820 C.2   375  ASN375      0.2266
     63  O        -53.5290  -12.2080   10.2350 O.2   375  ASN375     -0.2867
     64  CB       -52.4930  -13.6660   12.9300 C.3   375  ASN375      0.1155
     65  CG       -51.2990  -14.5100   12.5330 C.2   375  ASN375      0.2627
     66  OD1      -51.2180  -15.6910   12.8720 O.2   375  ASN375     -0.2716
     67  ND2      -50.3610  -13.9060   11.8140 N.am  375  ASN375     -0.0877
     68  N        -55.0900  -10.2420    8.7850 N.3   379  TYR379     -0.1241
     69  CA       -54.2780   -9.1790    8.2040 C.3   379  TYR379      0.1605
     70  C        -54.8550   -8.7340    6.8660 C.2   379  TYR379      0.2264
     71  O        -55.0510   -7.5430    6.6250 O.2   379  TYR379     -0.2867
     72  CB       -52.8330   -9.6410    8.0160 C.3   379  TYR379      0.0534
     73  CG       -52.0530   -9.8170    9.2970 C.ar  379  TYR379     -0.0201
     74  CD1      -52.4370   -9.1710   10.4640 C.ar  379  TYR379     -0.0009
     75  CD2      -50.9280  -10.6300    9.3380 C.ar  379  TYR379     -0.0009
     76  CE1      -51.7230   -9.3310   11.6360 C.ar  379  TYR379      0.0417
     77  CE2      -50.2080  -10.7960   10.5040 C.ar  379  TYR379      0.0417
     78  CZ       -50.6090  -10.1440   11.6490 C.ar  379  TYR379      0.1957
     79  OH       -49.8940  -10.3080   12.8130 O.3   379  TYR379     -0.2866
     80  N        -56.5440   -7.3630   13.4030 N.3   384  GLN384     -0.1245
     81  CA       -55.2500   -7.5040   14.0750 C.3   384  GLN384      0.1566
     82  C        -54.2090   -6.5630   13.4730 C.2   384  GLN384      0.2260
     83  O        -53.0080   -6.8310   13.5240 O.2   384  GLN384     -0.2867
     84  CB       -54.7560   -8.9530   14.0190 C.3   384  GLN384      0.0367
     85  CG       -55.5780   -9.9180   14.8540 C.3   384  GLN384      0.0905
     86  CD       -55.4660   -9.6420   16.3400 C.2   384  GLN384      0.2608
     87  OE1      -54.4280   -9.1860   16.8230 O.2   384  GLN384     -0.2717
     88  NE2      -56.5370   -9.9140   17.0750 N.am  384  GLN384     -0.0878
     89  N        -56.2780   -5.7960   22.0040 N.3   391  GLN391     -0.1245
     90  CA       -56.2560   -7.1970   21.5920 C.3   391  GLN391      0.1566
     91  C        -56.9110   -8.1140   22.6230 C.2   391  GLN391      0.2260
     92  O        -56.8350   -7.8700   23.8270 O.2   391  GLN391     -0.2867
     93  CB       -54.8170   -7.6550   21.3300 C.3   391  GLN391      0.0367
     94  CG       -54.7140   -8.9710   20.5680 C.3   391  GLN391      0.0905
     95  CD       -53.2860   -9.4660   20.4330 C.2   391  GLN391      0.2608
     96  OE1      -52.4920   -9.3690   21.3670 O.2   391  GLN391     -0.2717
     97  NE2      -52.9540  -10.0020   19.2630 N.am  391  GLN391     -0.0878
     98  N        -58.8290  -14.9270   21.2880 N.3   395  TYR395     -0.1227
     99  CA       -58.7560  -15.1170   19.8450 C.3   395  TYR395      0.1736
    100  C        -57.5210  -15.9300   19.4800 C.2   395  TYR395      0.2595
    101  O        -57.5550  -16.7380   18.5570 O.2   395  TYR395     -0.2718
    102  CB       -58.7440  -13.7650   19.1180 C.3   395  TYR395      0.0548
    103  CG       -57.4510  -13.4490   18.3900 C.ar  395  TYR395     -0.0200
    104  CD1      -57.2830  -13.7820   17.0500 C.ar  395  TYR395     -0.0009
    105  CD2      -56.4020  -12.8090   19.0400 C.ar  395  TYR395     -0.0009
    106  CE1      -56.1050  -13.4950   16.3850 C.ar  395  TYR395      0.0417
    107  CE2      -55.2220  -12.5200   18.3830 C.ar  395  TYR395      0.0417
    108  CZ       -55.0800  -12.8630   17.0560 C.ar  395  TYR395      0.1957
    109  OH       -53.9070  -12.5740   16.3980 O.3   395  TYR395     -0.2866
    110  N        -56.4360  -15.7120   20.2170 N.am  396  GLU396     -0.1979
    111  CA       -55.1950  -16.4410   19.9900 C.3   396  GLU396      0.1602
    112  C        -55.2750  -17.8350   20.6000 C.2   396  GLU396      0.2287
    113  O        -54.7170  -18.7910   20.0620 O.2   396  GLU396     -0.2864
    114  CB       -54.0050  -15.6720   20.5710 C.3   396  GLU396      0.0415
    115  CG       -52.6580  -16.3390   20.3380 C.3   396  GLU396      0.1163
    116  CD       -51.5040  -15.5340   20.9010 C.2   396  GLU396      0.3649
    117  OE1      -51.7320  -14.3810   21.3250 O.co2 396  GLU396     -0.2457
    118  OE2      -50.3690  -16.0550   20.9220 O.co2 396  GLU396     -0.2457
    119  N        -57.1440  -20.8510   18.1900 N.3   399  TRP399     -0.1241
    120  CA       -56.4210  -21.6070   17.1680 C.3   399  TRP399      0.1605
    121  C        -55.0550  -22.0860   17.6550 C.2   399  TRP399      0.2264
    122  O        -54.2770  -22.6500   16.8850 O.2   399  TRP399     -0.2867
    123  CB       -56.2640  -20.7810   15.8840 C.3   399  TRP399      0.0550
    124  CG       -55.6020  -19.4480   16.0610 C.ar  399  TRP399      0.0003
    125  CD1      -56.1540  -18.3300   16.6070 C.ar  399  TRP399      0.0946
    126  CD2      -54.2750  -19.0850   15.6590 C.ar  399  TRP399      0.0152
    127  NE1      -55.2510  -17.2950   16.5870 N.ar  399  TRP399     -0.2442
    128  CE2      -54.0890  -17.7320   16.0090 C.ar  399  TRP399      0.0810
    129  CE3      -53.2250  -19.7720   15.0440 C.ar  399  TRP399      0.0012
    130  CZ2      -52.8970  -17.0550   15.7650 C.ar  399  TRP399      0.0191
    131  CZ3      -52.0410  -19.0960   14.8020 C.ar  399  TRP399      0.0001
    132  CH2      -51.8880  -17.7520   15.1620 C.ar  399  TRP399      0.0015
@<TRIPOS>BOND
     1    71    70    2
     2    70    69    1
     3    72    69    1
     4    72    73    1
     5    69    68    1
     6    17    14    1
     7    17    18    1
     8    16    15    2
     9    14    15    1
    10    14    13    1
    11    73    75   ar
    12    73    74   ar
    13    75    77   ar
    14    19    18    1
    15    19    20    1
    16    22    21    1
    17    63    62    2
    18    74    76   ar
    19    77    78   ar
    20    62    61    1
    21    20    21    2
    22    21    23    1
    23    76    78   ar
    24    78    79    1
    25    67    65   am
    26    61    60    1
    27    61    64    1
    28    46    45    2
    29    65    66    2
    30    65    64    1
    31    80    81    1
    32    45    44    1
    33    82    83    2
    34    82    81    1
    35    47    44    1
    36    47    48    1
    37    44    43    1
    38    84    81    1
    39    84    85    1
    40   131   129   ar
    41   131   132   ar
    42    85    86    1
    43   129   126   ar
    44   132   130   ar
    45    43    40   am
    46    41    40    2
    47   126   128   ar
    48   126   124   ar
    49   130   128   ar
    50   123   124    1
    51   123   120    1
    52   128   127   ar
    53   124   125   ar
    54    40    39    1
    55    86    87    2
    56    86    88   am
    57   106   104   ar
    58   106   108   ar
    59   109   108    1
    60    30    32   ar
    61    30    29   ar
    62   127   125   ar
    63    24    25    1
    64    32    33   ar
    65   122   121    2
    66    27    26    2
    67   104   103   ar
    68   108   107   ar
    69   120   121    1
    70   120   119    1
    71    29    28    1
    72    29    31   ar
    73    28    25    1
    74    39    42    1
    75    39    38    1
    76    25    26    1
    77    33    31   ar
    78    33    35   ar
    79    10     8   ar
    80    10    11   ar
    81    31    34   ar
    82     8     6   ar
    83    35    37   ar
    84   107   105   ar
    85   103   105   ar
    86   103   102    1
    87    12    11    1
    88   101   100    2
    89    11     9   ar
    90     6     5    1
    91     6     7   ar
    92     5     2    1
    93     9     7   ar
    94   102    99    1
    95    97    95   am
    96    34    36   ar
    97    37    36   ar
    98   100    99    1
    99   100   110   am
   100    99    98    1
   101   111   110    1
   102   111   114    1
   103   111   112    1
   104   113   112    2
   105     2     1    1
   106     2     3    1
   107   115   114    1
   108   115   116    1
   109    95    94    1
   110    95    96    2
   111    94    93    1
   112   116   118   ar
   113   116   117   ar
   114    93    90    1
   115     3     4    2
   116    90    89    1
   117    90    91    1
   118    59    57    1
   119    91    92    2
   120    57    58    1
   121    57    56    2
   122    56    55    1
   123    55    54    1
   124    54    53    1
   125    53    50    1
   126    50    49    1
   127    50    51    1
   128    51    52    2
