@<TRIPOS>MOLECULE
tmp/4xtcD03.pdb
 128 123 0 0 0
SMALL
GASTEIGER

@<TRIPOS>ATOM
      1  N        -45.6940   -1.8790    8.5150 N.3    20  ARG20      -0.1231
      2  CA       -44.9740   -3.1470    8.3990 C.3    20  ARG20       0.1694
      3  C        -44.5060   -3.4380    6.9750 C.2    20  ARG20       0.2592
      4  O        -44.2320   -4.5870    6.6320 O.2    20  ARG20      -0.2718
      5  CB       -45.8510   -4.2970    8.9050 C.3    20  ARG20       0.0321
      6  CG       -46.4720   -4.0350   10.2700 C.3    20  ARG20       0.0489
      7  CD       -47.3470   -5.1880   10.7350 C.3    20  ARG20       0.2205
      8  NE       -47.9590   -4.9080   12.0320 N.pl3  20  ARG20      -0.0865
      9  CZ       -48.7610   -5.7480   12.6800 C.cat  20  ARG20       0.5346
     10  NH1      -49.0520   -6.9290   12.1540 N.pl3  20  ARG20       0.1354
     11  NH2      -49.2710   -5.4050   13.8550 N.pl3  20  ARG20       0.1354
     12  N        -44.4020   -2.3860    6.1660 N.am   21  ASP21      -0.1960
     13  CA       -43.9270   -2.4760    4.7840 C.3    21  ASP21       0.1840
     14  C        -44.6910   -3.5130    3.9610 C.2    21  ASP21       0.2621
     15  O        -44.1580   -4.0690    3.0000 O.2    21  ASP21      -0.2715
     16  CB       -42.4290   -2.7950    4.7590 C.3    21  ASP21       0.1450
     17  CG       -41.5990   -1.7530    5.4830 C.2    21  ASP21       0.3671
     18  OD1      -42.1110   -0.6370    5.7090 O.co2  21  ASP21      -0.2456
     19  OD2      -40.4330   -2.0480    5.8210 O.co2  21  ASP21      -0.2456
     20  N        -45.9390   -3.7660    4.3380 N.am   22  LYS22      -0.1977
     21  CA       -46.7450   -4.7880    3.6810 C.3    22  LYS22       0.1596
     22  C        -48.1290   -4.2710    3.3080 C.2    22  LYS22       0.2287
     23  O        -48.4730   -4.1750    2.1300 O.2    22  LYS22      -0.2864
     24  CB       -46.8680   -6.0220    4.5780 C.3    22  LYS22       0.0298
     25  CG       -45.5590   -6.7690    4.7790 C.3    22  LYS22       0.0038
     26  CD       -45.6390   -7.7350    5.9490 C.3    22  LYS22       0.0206
     27  CE       -44.2750   -8.3320    6.2600 C.3    22  LYS22       0.1093
     28  NZ       -44.3120   -9.2040    7.4660 N.3    22  LYS22      -0.1314
     29  N        -41.3690    0.8140    1.7350 N.3    53  ASN53      -0.1240
     30  CA       -41.0890    1.1880    3.1170 C.3    53  ASN53       0.1653
     31  C        -42.1720    2.0830    3.7140 C.2    53  ASN53       0.2266
     32  O        -42.5560    3.0900    3.1200 O.2    53  ASN53      -0.2867
     33  CB       -39.7310    1.8830    3.2140 C.3    53  ASN53       0.1155
     34  CG       -39.2930    2.1060    4.6470 C.2    53  ASN53       0.2627
     35  OD1      -39.5710    3.1480    5.2390 O.2    53  ASN53      -0.2716
     36  ND2      -38.6050    1.1210    5.2150 N.am   53  ASN53      -0.0877
     37  N        -47.1650    1.7050   12.6110 N.3    74  ASP74      -0.1225
     38  CA       -46.3180    1.0510   13.6020 C.3    74  ASP74       0.1805
     39  C        -44.9910    1.7850   13.7610 C.2    74  ASP74       0.2597
     40  O        -44.4980    2.4000   12.8140 O.2    74  ASP74      -0.2718
     41  CB       -46.0630   -0.4060   13.2110 C.3    74  ASP74       0.1424
     42  CG       -45.1530   -0.5370   12.0070 C.2    74  ASP74       0.3668
     43  OD1      -45.6610   -0.4940   10.8690 O.co2  74  ASP74      -0.2456
     44  OD2      -43.9280   -0.6860   12.1980 O.co2  74  ASP74      -0.2456
     45  N        -44.4290    1.7170   14.9660 N.am   75  ASN75      -0.1974
     46  CA       -43.1530    2.3560   15.2910 C.3    75  ASN75       0.1688
     47  C        -43.1690    3.8580   15.0190 C.2    75  ASN75       0.2292
     48  O        -42.1300    4.4660   14.7640 O.2    75  ASN75      -0.2864
     49  CB       -42.0120    1.6860   14.5220 C.3    75  ASN75       0.1181
     50  CG       -41.8720    0.2130   14.8600 C.2    75  ASN75       0.2629
     51  OD1      -41.2230   -0.1520   15.8400 O.2    75  ASN75      -0.2716
     52  ND2      -42.4880   -0.6410   14.0500 N.am   75  ASN75      -0.0877
     53  N        -38.2190  -13.1770   10.4770 N.3   187  HIS187     -0.1227
     54  CA       -37.6840  -11.9240   10.9920 C.3   187  HIS187      0.1737
     55  C        -36.1680  -11.9310   10.8520 C.2   187  HIS187      0.2438
     56  O        -35.4940  -12.7580   11.4650 O.2   187  HIS187     -0.2733
     57  CB       -38.0820  -11.7120   12.4560 C.3   187  HIS187      0.0758
     58  CG       -39.5510  -11.5150   12.6650 C.ar  187  HIS187      0.0818
     59  ND1      -40.4920  -12.4310   12.2490 N.ar  187  HIS187     -0.2268
     60  CD2      -40.2410  -10.5100   13.2550 C.ar  187  HIS187      0.1154
     61  CE1      -41.6990  -11.9970   12.5690 C.ar  187  HIS187      0.1986
     62  NE2      -41.5730  -10.8340   13.1810 N.ar  187  HIS187     -0.2212
     63  N        -35.6270  -11.0170   10.0330 N.am  188  PRO188     -0.2718
     64  CA       -34.1780  -10.9390    9.8190 C.3   188  PRO188      0.1535
     65  C        -33.4220  -10.6480   11.1110 C.2   188  PRO188      0.2598
     66  O        -32.3440  -11.2020   11.3310 O.2   188  PRO188     -0.2715
     67  CB       -34.0290   -9.7840    8.8210 C.3   188  PRO188      0.0310
     68  CG       -35.2860   -8.9870    8.9620 C.3   188  PRO188      0.0237
     69  CD       -36.3550   -9.9840    9.2770 C.3   188  PRO188      0.0939
     70  N        -34.0000   -9.8070   11.9630 N.am  189  ASP189     -0.1972
     71  CA       -33.3720   -9.4170   13.2220 C.3   189  ASP189      0.1709
     72  C        -33.0780  -10.6210   14.1150 C.2   189  ASP189      0.2293
     73  O        -32.1750  -10.5780   14.9530 O.2   189  ASP189     -0.2864
     74  CB       -34.2590   -8.4190   13.9670 C.3   189  ASP189      0.1436
     75  CG       -34.6620   -7.2390   13.1040 C.2   189  ASP189      0.3671
     76  OD1      -34.9150   -7.4410   11.8980 O.co2 189  ASP189     -0.2456
     77  OD2      -34.7230   -6.1080   13.6310 O.co2 189  ASP189     -0.2456
     78  N        -39.2960   -5.1500   21.0910 N.3   207  ASN207     -0.1225
     79  CA       -38.7760   -4.3790   19.9710 C.3   207  ASN207      0.1785
     80  C        -37.2940   -4.6550   19.7710 C.2   207  ASN207      0.2597
     81  O        -36.5040   -4.5560   20.7110 O.2   207  ASN207     -0.2718
     82  CB       -39.0110   -2.8840   20.1870 C.3   207  ASN207      0.1169
     83  CG       -40.4810   -2.5190   20.1800 C.2   207  ASN207      0.2627
     84  OD1      -41.1260   -2.4700   21.2280 O.2   207  ASN207     -0.2716
     85  ND2      -41.0200   -2.2630   18.9940 N.am  207  ASN207     -0.0877
     86  N        -36.9220   -5.0080   18.5450 N.am  208  TYR208     -0.1976
     87  CA       -35.5350   -5.3210   18.2300 C.3   208  TYR208      0.1639
     88  C        -34.6400   -4.1020   18.4090 C.2   208  TYR208      0.2290
     89  O        -35.0620   -2.9720   18.1550 O.2   208  TYR208     -0.2864
     90  CB       -35.4120   -5.8530   16.8030 C.3   208  TYR208      0.0560
     91  CG       -36.1090   -7.1730   16.5730 C.ar  208  TYR208     -0.0198
     92  CD1      -35.6620   -8.3330   17.1920 C.ar  208  TYR208     -0.0009
     93  CD2      -37.2050   -7.2640   15.7250 C.ar  208  TYR208     -0.0009
     94  CE1      -36.2920   -9.5440   16.9810 C.ar  208  TYR208      0.0417
     95  CE2      -37.8410   -8.4710   15.5070 C.ar  208  TYR208      0.0417
     96  CZ       -37.3800   -9.6080   16.1380 C.ar  208  TYR208      0.1957
     97  OH       -38.0090  -10.8120   15.9240 O.3   208  TYR208     -0.2866
     98  N        -37.7070  -12.7570    4.4760 N.3   251  LYS251     -0.1245
     99  CA       -38.7510  -12.1520    5.3050 C.3   251  LYS251      0.1561
    100  C        -40.0150  -13.0110    5.4270 C.2   251  LYS251      0.2260
    101  O        -39.9390  -14.1950    5.7450 O.2   251  LYS251     -0.2867
    102  CB       -39.1130  -10.7640    4.7630 C.3   251  LYS251      0.0271
    103  CG       -39.4580   -9.7440    5.8400 C.3   251  LYS251      0.0035
    104  CD       -39.7790   -8.3880    5.2330 C.3   251  LYS251      0.0206
    105  CE       -38.6190   -7.8660    4.3990 C.3   251  LYS251      0.1093
    106  NZ       -37.3720   -7.7260    5.2020 N.3   251  LYS251     -0.1314
    107  N        -47.2200   -1.1290   22.8960 N.3   313  ARG313     -0.1245
    108  CA       -46.0500   -1.1420   22.0030 C.3   313  ARG313      0.1563
    109  C        -46.0210    0.1750   21.2250 C.2   313  ARG313      0.2260
    110  O        -47.0180    0.8970   21.2000 O.2   313  ARG313     -0.2867
    111  CB       -46.0590   -2.3370   21.0350 C.3   313  ARG313      0.0307
    112  CG       -47.3450   -2.5590   20.2700 C.3   313  ARG313      0.0489
    113  CD       -47.2620   -3.8440   19.4570 C.3   313  ARG313      0.2205
    114  NE       -46.5310   -3.6660   18.2050 N.pl3 313  ARG313     -0.0865
    115  CZ       -45.2680   -4.0330   18.0120 C.cat 313  ARG313      0.5346
    116  NH1      -44.5830   -4.6080   18.9900 N.pl3 313  ARG313      0.1354
    117  NH2      -44.6920   -3.8270   16.8360 N.pl3 313  ARG313      0.1354
    118  N        -29.5950    3.4980   15.0570 N.3   442  ARG442     -0.1245
    119  CA       -30.0740    2.1340   14.8600 C.3   442  ARG442      0.1563
    120  C        -30.0260    1.7310   13.3880 C.2   442  ARG442      0.2260
    121  O        -29.8760    0.5510   13.0690 O.2   442  ARG442     -0.2867
    122  CB       -31.4930    1.9730   15.4190 C.3   442  ARG442      0.0307
    123  CG       -32.5340    2.9170   14.8380 C.3   442  ARG442      0.0489
    124  CD       -33.3660    2.2400   13.7660 C.3   442  ARG442      0.2205
    125  NE       -33.8340    0.9250   14.1950 N.pl3 442  ARG442     -0.0865
    126  CZ       -34.9140    0.7210   14.9420 C.cat 442  ARG442      0.5346
    127  NH1      -35.6460    1.7490   15.3500 N.pl3 442  ARG442      0.1354
    128  NH2      -35.2620   -0.5120   15.2830 N.pl3 442  ARG442      0.1354
@<TRIPOS>BOND
     1    29    30    1
     2    23    22    2
     3    15    14    2
     4    30    33    1
     5    30    31    1
     6    32    31    2
     7    33    34    1
     8    22    21    1
     9    21    20    1
    10    21    24    1
    11    14    20   am
    12    14    13    1
    13   105   106    1
    14   105   104    1
    15    98    99    1
    16    24    25    1
    17    34    36   am
    18    34    35    2
    19    16    13    1
    20    16    17    1
    21   102    99    1
    22   102   103    1
    23    25    26    1
    24    13    12    1
    25   104   103    1
    26    99   100    1
    27   100   101    2
    28    17    18   ar
    29    17    19   ar
    30    26    27    1
    31    12     3   am
    32    27    28    1
    33     4     3    2
    34     3     2    1
    35     2     1    1
    36     2     5    1
    37    67    68    1
    38    67    64    1
    39     5     6    1
    40    68    69    1
    41    69    63    1
    42    64    63    1
    43    64    65    1
    44    63    55   am
    45     6     7    1
    46    53    54    1
    47     7     8    1
    48    55    54    1
    49    55    56    2
    50    43    42   ar
    51    54    57    1
    52    65    66    2
    53    65    70   am
    54    76    75   ar
    55    70    71    1
    56    42    44   ar
    57    42    41    1
    58     8     9    2
    59    10     9    1
    60    59    61   ar
    61    59    58   ar
    62    57    58    1
    63    61    62   ar
    64    37    38    1
    65    58    60   ar
    66     9    11    1
    67    40    39    2
    68   121   120    2
    69    75    77   ar
    70    75    74    1
    71    62    60   ar
    72    41    38    1
    73    71    74    1
    74    71    72    1
    75   120   119    1
    76    38    39    1
    77    39    45   am
    78   124   125    1
    79   124   123    1
    80    52    50   am
    81    72    73    2
    82   125   126    2
    83    49    50    1
    84    49    46    1
    85    48    47    2
    86   123   122    1
    87   119   118    1
    88   119   122    1
    89    50    51    2
    90   126   128    1
    91   126   127    1
    92    45    46    1
    93    47    46    1
    94    95    93   ar
    95    95    96   ar
    96    93    91   ar
    97    97    96    1
    98    96    94   ar
    99    91    90    1
   100    91    92   ar
   101    90    87    1
   102   117   115    1
   103    94    92   ar
   104   115   114    2
   105   115   116    1
   106    89    88    2
   107   114   113    1
   108    87    88    1
   109    87    86    1
   110    86    80   am
   111    85    83   am
   112   113   112    1
   113    80    79    1
   114    80    81    2
   115    79    82    1
   116    79    78    1
   117    83    82    1
   118    83    84    2
   119   112   111    1
   120   111   108    1
   121   110   109    2
   122   109   108    1
   123   108   107    1
