@<TRIPOS>MOLECULE
tmp/4xtcD01.pdb
 133 127 0 0 0
SMALL
GASTEIGER

@<TRIPOS>ATOM
      1  N        -45.6940   -1.8790    8.5150 N.3    20  ARG20      -0.1245
      2  CA       -44.9740   -3.1470    8.3990 C.3    20  ARG20       0.1563
      3  C        -44.5060   -3.4380    6.9750 C.2    20  ARG20       0.2260
      4  O        -44.2320   -4.5870    6.6320 O.2    20  ARG20      -0.2867
      5  CB       -45.8510   -4.2970    8.9050 C.3    20  ARG20       0.0307
      6  CG       -46.4720   -4.0350   10.2700 C.3    20  ARG20       0.0489
      7  CD       -47.3470   -5.1880   10.7350 C.3    20  ARG20       0.2205
      8  NE       -47.9590   -4.9080   12.0320 N.pl3  20  ARG20      -0.0865
      9  CZ       -48.7610   -5.7480   12.6800 C.cat  20  ARG20       0.5346
     10  NH1      -49.0520   -6.9290   12.1540 N.pl3  20  ARG20       0.1354
     11  NH2      -49.2710   -5.4050   13.8550 N.pl3  20  ARG20       0.1354
     12  N        -51.7320    0.6750   20.3270 N.3   129  TYR129     -0.1241
     13  CA       -52.1340   -0.7200   20.1840 C.3   129  TYR129      0.1605
     14  C        -51.6340   -1.5190   21.3810 C.2   129  TYR129      0.2264
     15  O        -50.4440   -1.5110   21.6880 O.2   129  TYR129     -0.2867
     16  CB       -51.5980   -1.2940   18.8660 C.3   129  TYR129      0.0534
     17  CG       -51.5400   -2.8060   18.7800 C.ar  129  TYR129     -0.0201
     18  CD1      -52.6160   -3.5970   19.1640 C.ar  129  TYR129     -0.0009
     19  CD2      -50.4130   -3.4400   18.2770 C.ar  129  TYR129     -0.0009
     20  CE1      -52.5540   -4.9770   19.0790 C.ar  129  TYR129      0.0417
     21  CE2      -50.3450   -4.8160   18.1830 C.ar  129  TYR129      0.0417
     22  CZ       -51.4170   -5.5800   18.5840 C.ar  129  TYR129      0.1957
     23  OH       -51.3490   -6.9510   18.4890 O.3   129  TYR129     -0.2866
     24  N        -51.4040   -5.1360   22.7670 N.3   131  PRO131     -0.2116
     25  CA       -51.4640   -6.5960   22.6460 C.3   131  PRO131      0.1372
     26  C        -51.6350   -7.2760   24.0000 C.2   131  PRO131      0.2244
     27  O        -50.9500   -6.9210   24.9590 O.2   131  PRO131     -0.2868
     28  CB       -50.1110   -6.9520   22.0220 C.3   131  PRO131      0.0268
     29  CG       -49.2100   -5.8380   22.4270 C.3   131  PRO131      0.0207
     30  CD       -50.0720   -4.6100   22.4220 C.3   131  PRO131      0.0892
     31  N        -42.0710  -15.1750   22.0860 N.3   137  ARG137     -0.1245
     32  CA       -41.3370  -16.0660   21.1960 C.3   137  ARG137      0.1563
     33  C        -40.7230  -17.2530   21.9310 C.2   137  ARG137      0.2260
     34  O        -40.3870  -17.1650   23.1110 O.2   137  ARG137     -0.2867
     35  CB       -40.2450  -15.2900   20.4550 C.3   137  ARG137      0.0307
     36  CG       -40.7830  -14.2870   19.4450 C.3   137  ARG137      0.0489
     37  CD       -39.6710  -13.7190   18.5770 C.3   137  ARG137      0.2205
     38  NE       -40.1960  -12.9120   17.4780 N.pl3 137  ARG137     -0.0865
     39  CZ       -40.4220  -11.6050   17.5500 C.cat 137  ARG137      0.5346
     40  NH1      -40.1640  -10.9450   18.6710 N.pl3 137  ARG137      0.1354
     41  NH2      -40.9010  -10.9540   16.4990 N.pl3 137  ARG137      0.1354
     42  N        -38.7140  -15.6480    9.7060 N.3   186  ARG186     -0.1231
     43  CA       -39.3160  -14.6160    8.8680 C.3   186  ARG186      0.1694
     44  C        -38.9670  -13.2230    9.3810 C.2   186  ARG186      0.2592
     45  O        -39.3700  -12.2160    8.7990 O.2   186  ARG186     -0.2718
     46  CB       -40.8350  -14.7930    8.7860 C.3   186  ARG186      0.0321
     47  CG       -41.5800  -14.5260   10.0770 C.3   186  ARG186      0.0489
     48  CD       -43.0770  -14.4420    9.8270 C.3   186  ARG186      0.2205
     49  NE       -43.8100  -13.9930   11.0070 N.pl3 186  ARG186     -0.0865
     50  CZ       -45.1040  -13.6910   11.0100 C.cat 186  ARG186      0.5346
     51  NH1      -45.8110  -13.7870    9.8920 N.pl3 186  ARG186      0.1354
     52  NH2      -45.6910  -13.2890   12.1280 N.pl3 186  ARG186      0.1354
     53  N        -38.2190  -13.1770   10.4770 N.am  187  HIS187     -0.1976
     54  CA       -37.6840  -11.9240   10.9920 C.3   187  HIS187      0.1656
     55  C        -36.1680  -11.9310   10.8520 C.2   187  HIS187      0.2291
     56  O        -35.4940  -12.7580   11.4650 O.2   187  HIS187     -0.2864
     57  CB       -38.0820  -11.7120   12.4560 C.3   187  HIS187      0.0771
     58  CG       -39.5510  -11.5150   12.6650 C.ar  187  HIS187      0.0820
     59  ND1      -40.4920  -12.4310   12.2490 N.ar  187  HIS187     -0.2267
     60  CD2      -40.2410  -10.5100   13.2550 C.ar  187  HIS187      0.1154
     61  CE1      -41.6990  -11.9970   12.5690 C.ar  187  HIS187      0.1986
     62  NE2      -41.5730  -10.8340   13.1810 N.ar  187  HIS187     -0.2212
     63  N        -39.2410   -6.5440   23.4920 N.3   206  ASP206     -0.1239
     64  CA       -39.8370   -7.1700   22.3170 C.3   206  ASP206      0.1674
     65  C        -39.3830   -6.4750   21.0390 C.2   206  ASP206      0.2266
     66  O        -39.1190   -7.1260   20.0280 O.2   206  ASP206     -0.2867
     67  CB       -41.3640   -7.1520   22.4150 C.3   206  ASP206      0.1410
     68  CG       -42.0340   -7.7110   21.1760 C.2   206  ASP206      0.3668
     69  OD1      -42.1450   -8.9490   21.0650 O.co2 206  ASP206     -0.2456
     70  OD2      -42.4530   -6.9110   20.3120 O.co2 206  ASP206     -0.2456
     71  N        -42.8640  -17.5260   16.6210 N.3   270  TRP270     -0.1241
     72  CA       -43.8380  -17.5060   17.7090 C.3   270  TRP270      0.1605
     73  C        -44.5230  -18.8650   17.8240 C.2   270  TRP270      0.2264
     74  O        -44.4750  -19.6630   16.8940 O.2   270  TRP270     -0.2867
     75  CB       -44.8810  -16.4060   17.4850 C.3   270  TRP270      0.0550
     76  CG       -44.3190  -15.0120   17.3680 C.ar  270  TRP270      0.0003
     77  CD1      -43.4360  -14.5580   16.4300 C.ar  270  TRP270      0.0946
     78  CD2      -44.6280  -13.8860   18.2010 C.ar  270  TRP270      0.0152
     79  NE1      -43.1640  -13.2280   16.6380 N.ar  270  TRP270     -0.2442
     80  CE2      -43.8850  -12.7910   17.7180 C.ar  270  TRP270      0.0810
     81  CE3      -45.4580  -13.7000   19.3110 C.ar  270  TRP270      0.0012
     82  CZ2      -43.9450  -11.5300   18.3070 C.ar  270  TRP270      0.0191
     83  CZ3      -45.5140  -12.4470   19.8960 C.ar  270  TRP270      0.0001
     84  CH2      -44.7630  -11.3790   19.3930 C.ar  270  TRP270      0.0015
     85  N        -47.2200   -1.1290   22.8960 N.3   313  ARG313     -0.1245
     86  CA       -46.0500   -1.1420   22.0030 C.3   313  ARG313      0.1563
     87  C        -46.0210    0.1750   21.2250 C.2   313  ARG313      0.2260
     88  O        -47.0180    0.8970   21.2000 O.2   313  ARG313     -0.2867
     89  CB       -46.0590   -2.3370   21.0350 C.3   313  ARG313      0.0307
     90  CG       -47.3450   -2.5590   20.2700 C.3   313  ARG313      0.0489
     91  CD       -47.2620   -3.8440   19.4570 C.3   313  ARG313      0.2205
     92  NE       -46.5310   -3.6660   18.2050 N.pl3 313  ARG313     -0.0865
     93  CZ       -45.2680   -4.0330   18.0120 C.cat 313  ARG313      0.5346
     94  NH1      -44.5830   -4.6080   18.9900 N.pl3 313  ARG313      0.1354
     95  NH2      -44.6920   -3.8270   16.8360 N.pl3 313  ARG313      0.1354
     96  N        -54.1350  -15.2260   11.9870 N.3   375  ASN375     -0.1240
     97  CA       -53.6820  -13.8410   11.9830 C.3   375  ASN375      0.1653
     98  C        -53.3110  -13.3670   10.5820 C.2   375  ASN375      0.2266
     99  O        -53.5290  -12.2080   10.2350 O.2   375  ASN375     -0.2867
    100  CB       -52.4930  -13.6660   12.9300 C.3   375  ASN375      0.1155
    101  CG       -51.2990  -14.5100   12.5330 C.2   375  ASN375      0.2627
    102  OD1      -51.2180  -15.6910   12.8720 O.2   375  ASN375     -0.2716
    103  ND2      -50.3610  -13.9060   11.8140 N.am  375  ASN375     -0.0877
    104  N        -55.0900  -10.2420    8.7850 N.3   379  TYR379     -0.1241
    105  CA       -54.2780   -9.1790    8.2040 C.3   379  TYR379      0.1605
    106  C        -54.8550   -8.7340    6.8660 C.2   379  TYR379      0.2264
    107  O        -55.0510   -7.5430    6.6250 O.2   379  TYR379     -0.2867
    108  CB       -52.8330   -9.6410    8.0160 C.3   379  TYR379      0.0534
    109  CG       -52.0530   -9.8170    9.2970 C.ar  379  TYR379     -0.0201
    110  CD1      -52.4370   -9.1710   10.4640 C.ar  379  TYR379     -0.0009
    111  CD2      -50.9280  -10.6300    9.3380 C.ar  379  TYR379     -0.0009
    112  CE1      -51.7230   -9.3310   11.6360 C.ar  379  TYR379      0.0417
    113  CE2      -50.2080  -10.7960   10.5040 C.ar  379  TYR379      0.0417
    114  CZ       -50.6090  -10.1440   11.6490 C.ar  379  TYR379      0.1957
    115  OH       -49.8940  -10.3080   12.8130 O.3   379  TYR379     -0.2866
    116  N        -56.5440   -7.3630   13.4030 N.3   384  GLN384     -0.1245
    117  CA       -55.2500   -7.5040   14.0750 C.3   384  GLN384      0.1566
    118  C        -54.2090   -6.5630   13.4730 C.2   384  GLN384      0.2260
    119  O        -53.0080   -6.8310   13.5240 O.2   384  GLN384     -0.2867
    120  CB       -54.7560   -8.9530   14.0190 C.3   384  GLN384      0.0367
    121  CG       -55.5780   -9.9180   14.8540 C.3   384  GLN384      0.0905
    122  CD       -55.4660   -9.6420   16.3400 C.2   384  GLN384      0.2608
    123  OE1      -54.4280   -9.1860   16.8230 O.2   384  GLN384     -0.2717
    124  NE2      -56.5370   -9.9140   17.0750 N.am  384  GLN384     -0.0878
    125  N        -56.2780   -5.7960   22.0040 N.3   391  GLN391     -0.1245
    126  CA       -56.2560   -7.1970   21.5920 C.3   391  GLN391      0.1566
    127  C        -56.9110   -8.1140   22.6230 C.2   391  GLN391      0.2260
    128  O        -56.8350   -7.8700   23.8270 O.2   391  GLN391     -0.2867
    129  CB       -54.8170   -7.6550   21.3300 C.3   391  GLN391      0.0367
    130  CG       -54.7140   -8.9710   20.5680 C.3   391  GLN391      0.0905
    131  CD       -53.2860   -9.4660   20.4330 C.2   391  GLN391      0.2608
    132  OE1      -52.4920   -9.3690   21.3670 O.2   391  GLN391     -0.2717
    133  NE2      -52.9540  -10.0020   19.2630 N.am  391  GLN391     -0.0878
@<TRIPOS>BOND
     1   107   106    2
     2     4     3    2
     3   106   105    1
     4     3     2    1
     5   108   105    1
     6   108   109    1
     7   105   104    1
     8     2     1    1
     9     2     5    1
    10    46    43    1
    11    46    47    1
    12    45    44    2
    13    43    44    1
    14    43    42    1
    15     5     6    1
    16   109   111   ar
    17   109   110   ar
    18   111   113   ar
    19    44    53   am
    20    48    47    1
    21    48    49    1
    22    51    50    1
    23    99    98    2
    24     6     7    1
    25   110   112   ar
    26    53    54    1
    27   113   114   ar
    28    98    97    1
    29     7     8    1
    30    55    54    1
    31    55    56    2
    32    54    57    1
    33    49    50    2
    34    50    52    1
    35   112   114   ar
    36   114   115    1
    37   103   101   am
    38    97    96    1
    39    97   100    1
    40     8     9    2
    41    10     9    1
    42    59    61   ar
    43    59    58   ar
    44    57    58    1
    45   101   102    2
    46   101   100    1
    47    61    62   ar
    48    58    60   ar
    49     9    11    1
    50    62    60   ar
    51   116   117    1
    52   118   119    2
    53   118   117    1
    54   120   117    1
    55   120   121    1
    56   121   122    1
    57   122   123    2
    58   122   124   am
    59    77    79   ar
    60    77    76   ar
    61    41    39    1
    62    71    72    1
    63    79    80   ar
    64    95    93    1
    65    74    73    2
    66    76    75    1
    67    76    78   ar
    68    38    39    2
    69    38    37    1
    70    75    72    1
    71    39    40    1
    72    72    73    1
    73    80    78   ar
    74    80    82   ar
    75    93    92    2
    76    93    94    1
    77    21    19   ar
    78    21    22   ar
    79    78    81   ar
    80    92    91    1
    81    19    17   ar
    82    82    84   ar
    83    23    22    1
    84    37    36    1
    85    22    20   ar
    86    17    16    1
    87    17    18   ar
    88    16    13    1
    89    20    18   ar
    90   133   131   am
    91    81    83   ar
    92    84    83   ar
    93    36    35    1
    94    91    90    1
    95    66    65    2
    96    13    12    1
    97    13    14    1
    98    90    89    1
    99    70    68   ar
   100   131   130    1
   101   131   132    2
   102    35    32    1
   103   130   129    1
   104    89    86    1
   105    65    64    1
   106    69    68   ar
   107    68    67    1
   108    32    33    1
   109    32    31    1
   110    88    87    2
   111    87    86    1
   112   129   126    1
   113    14    15    2
   114   126   125    1
   115   126   127    1
   116    33    34    2
   117    86    85    1
   118    28    29    1
   119    28    25    1
   120    64    67    1
   121    64    63    1
   122    30    29    1
   123    30    24    1
   124   127   128    2
   125    25    24    1
   126    25    26    1
   127    26    27    2
