@<TRIPOS>MOLECULE
tmp/4xtdA00.pdb
 125 118 0 0 0
SMALL
GASTEIGER

@<TRIPOS>ATOM
      1  N         10.4250  145.9300   37.2250 N.3    68  SER68      -0.1217
      2  CA         9.0510  146.2680   36.8680 C.3    68  SER68       0.1889
      3  C          8.4820  147.4230   37.6950 C.2    68  SER68       0.2288
      4  O          8.8040  147.5610   38.8760 O.2    68  SER68      -0.2866
      5  CB         8.1600  145.0340   37.0330 C.3    68  SER68       0.2089
      6  OG         6.8020  145.3410   36.7750 O.3    68  SER68      -0.2183
      7  N          6.2190  148.2790   39.8650 N.3    70  MET70      -0.1245
      8  CA         5.2570  147.7800   40.8390 C.3    70  MET70       0.1570
      9  C          5.6400  148.3050   42.2170 C.2    70  MET70       0.2261
     10  O          6.8230  148.4920   42.5010 O.2    70  MET70      -0.2867
     11  CB         5.2220  146.2490   40.8190 C.3    70  MET70       0.0387
     12  CG         4.8640  145.6660   39.4550 C.3    70  MET70       0.0595
     13  SD         4.9950  143.8660   39.3690 S.3    70  MET70      -0.1393
     14  CE         3.7170  143.3830   40.5230 C.3    70  MET70       0.0692
     15  N          0.9150  147.4180   27.4910 N.3   183  ASN183     -0.1240
     16  CA         1.4760  146.1540   27.0070 C.3   183  ASN183      0.1653
     17  C          0.7950  145.6480   25.7380 C.2   183  ASN183      0.2266
     18  O         -0.3830  145.9220   25.5020 O.2   183  ASN183     -0.2867
     19  CB         1.3750  145.0830   28.0910 C.3   183  ASN183      0.1155
     20  CG         2.4080  145.2600   29.1870 C.2   183  ASN183      0.2627
     21  OD1        2.8170  146.3780   29.5010 O.2   183  ASN183     -0.2716
     22  ND2        2.8400  144.1470   29.7750 N.am  183  ASN183     -0.0877
     23  N          6.4870  147.0920   25.2760 N.3   202  ARG202     -0.1245
     24  CA         6.4410  146.2290   26.4470 C.3   202  ARG202      0.1563
     25  C          5.5260  145.0480   26.1410 C.2   202  ARG202      0.2260
     26  O          4.3490  145.2390   25.8400 O.2   202  ARG202     -0.2867
     27  CB         5.9490  147.0230   27.6580 C.3   202  ARG202      0.0307
     28  CG         6.1390  146.3530   29.0040 C.3   202  ARG202      0.0489
     29  CD         5.7620  147.3210   30.1140 C.3   202  ARG202      0.2205
     30  NE         5.5900  146.6640   31.4060 N.pl3 202  ARG202     -0.0865
     31  CZ         4.8930  147.1740   32.4170 C.cat 202  ARG202      0.5346
     32  NH1        4.2900  148.3510   32.2920 N.pl3 202  ARG202      0.1354
     33  NH2        4.7910  146.5050   33.5560 N.pl3 202  ARG202      0.1354
     34  N          2.4010  137.2380   33.9980 N.3   208  GLY208     -0.1210
     35  CA         2.9660  137.5900   35.2880 C.3   208  GLY208      0.1956
     36  C          2.6520  136.5690   36.3660 C.2   208  GLY208      0.2613
     37  O          1.5910  135.9450   36.3560 O.2   208  GLY208     -0.2717
     38  N          3.5790  136.4140   37.3060 N.am  209  SER209     -0.1938
     39  CA         3.4360  135.4520   38.3960 C.3   209  SER209      0.2055
     40  C          2.2460  135.7620   39.3050 C.2   209  SER209      0.2643
     41  O          1.6900  134.8640   39.9350 O.2   209  SER209     -0.2714
     42  CB         4.7220  135.4100   39.2300 C.3   209  SER209      0.2130
     43  OG         5.0780  136.6990   39.6970 O.3   209  SER209     -0.2179
     44  N          1.8650  137.0350   39.3700 N.am  210  ILE210     -0.1963
     45  CA         0.7540  137.4730   40.2170 C.3   210  ILE210      0.1727
     46  C         -0.4630  137.8980   39.3970 C.2   210  ILE210      0.2616
     47  O         -1.4440  138.3970   39.9500 O.2   210  ILE210     -0.2715
     48  CB         1.1690  138.6540   41.1380 C.3   210  ILE210      0.0290
     49  CG1        2.1210  139.6230   40.4230 C.3   210  ILE210      0.0022
     50  CG2        1.8320  138.1370   42.3990 C.3   210  ILE210      0.0023
     51  CD1        1.5740  140.2320   39.1450 C.3   210  ILE210      0.0001
     52  N         -0.3950  137.6960   38.0830 N.am  211  CYS211     -0.1968
     53  CA        -1.4500  138.1450   37.1800 C.3   211  CYS211      0.1712
     54  C         -2.4450  137.0320   36.8730 C.2   211  CYS211      0.2296
     55  O         -2.0710  135.8640   36.7580 O.2   211  CYS211     -0.2864
     56  CB        -0.8470  138.6690   35.8780 C.3   211  CYS211      0.0983
     57  SG        -2.0740  139.3010   34.7150 S.3   211  CYS211     -0.0798
     58  N          8.1130  141.1300   29.1910 N.3   244  ASP244     -0.1225
     59  CA         7.6310  141.4210   30.5370 C.3   244  ASP244      0.1805
     60  C          6.6700  140.3570   31.0610 C.2   244  ASP244      0.2598
     61  O          5.5550  140.2090   30.5580 O.2   244  ASP244     -0.2718
     62  CB         6.9560  142.7970   30.5460 C.3   244  ASP244      0.1424
     63  CG         6.3800  143.1640   31.8970 C.2   244  ASP244      0.3668
     64  OD1        6.8570  142.6390   32.9260 O.co2 244  ASP244     -0.2456
     65  OD2        5.4520  144.0000   31.9310 O.co2 244  ASP244     -0.2456
     66  N          7.1150  139.6270   32.0810 N.am  245  GLY245     -0.1942
     67  CA         6.2840  138.6440   32.7550 C.3   245  GLY245      0.2014
     68  C          6.7130  137.2130   32.4920 C.2   245  GLY245      0.2639
     69  O          7.1390  136.8710   31.3880 O.2   245  GLY245     -0.2714
     70  N          6.5930  136.3740   33.5160 N.am  246  GLY246     -0.1939
     71  CA         6.8510  134.9510   33.3790 C.3   246  GLY246      0.2014
     72  C          8.3150  134.5620   33.4750 C.2   246  GLY246      0.2639
     73  O          8.6560  133.3910   33.3120 O.2   246  GLY246     -0.2714
     74  N          9.1820  135.5360   33.7370 N.am  247  VAL247     -0.1963
     75  CA        10.6070  135.2610   33.9120 C.3   247  VAL247      0.1727
     76  C         10.8750  134.8720   35.3650 C.2   247  VAL247      0.2616
     77  O         10.5490  135.6210   36.2860 O.2   247  VAL247     -0.2715
     78  CB        11.4760  136.4790   33.5270 C.3   247  VAL247      0.0290
     79  CG1       12.9570  136.1250   33.5960 C.3   247  VAL247      0.0023
     80  CG2       11.1200  136.9690   32.1310 C.3   247  VAL247      0.0023
     81  N         11.4730  133.7010   35.5610 N.am  248  GLN248     -0.1977
     82  CA        11.7040  133.1650   36.8980 C.3   248  GLN248      0.1601
     83  C         13.1530  132.7360   37.0990 C.2   248  GLN248      0.2287
     84  O         13.6020  132.5660   38.2330 O.2   248  GLN248     -0.2864
     85  CB        10.7770  131.9760   37.1590 C.3   248  GLN248      0.0394
     86  CG         9.3270  132.4120   37.2550 C.3   248  GLN248      0.0908
     87  CD         9.0520  133.2510   38.4880 C.2   248  GLN248      0.2608
     88  OE1        9.6540  133.0440   39.5490 O.2   248  GLN248     -0.2717
     89  NE2        8.1580  134.1600   38.3730 N.am  248  GLN248     -0.0878
     90  N         11.8950  142.2180   31.5930 N.3   265  MET265     -0.1230
     91  CA        11.4120  142.8850   32.7920 C.3   265  MET265      0.1702
     92  C         11.0780  141.8550   33.8620 C.2   265  MET265      0.2592
     93  O         10.4680  140.8250   33.5710 O.2   265  MET265     -0.2718
     94  CB        10.1880  143.7410   32.4670 C.3   265  MET265      0.0401
     95  CG         9.5650  144.4170   33.6690 C.3   265  MET265      0.0596
     96  SD         8.2830  145.5890   33.1820 S.3   265  MET265     -0.1393
     97  CE         9.2770  146.9640   32.5990 C.3   265  MET265      0.0692
     98  N         11.4750  142.1450   35.0990 N.am  266  MET266     -0.1965
     99  CA        11.2680  141.2310   36.2170 C.3   266  MET266      0.1736
    100  C         10.5730  141.9130   37.3870 C.2   266  MET266      0.2617
    101  O         10.9520  143.0140   37.7920 O.2   266  MET266     -0.2715
    102  CB        12.6040  140.6610   36.6880 C.3   266  MET266      0.0427
    103  CG        13.3060  139.7880   35.6630 C.3   266  MET266      0.0599
    104  SD        14.9970  139.3910   36.1480 S.3   266  MET266     -0.1393
    105  CE        15.7910  140.9900   35.9870 C.3   266  MET266      0.0692
    106  N          9.5620  141.2410   37.9290 N.am  267  GLY267     -0.1940
    107  CA         8.8620  141.7130   39.1080 C.3   267  GLY267      0.2014
    108  C          9.0370  140.7490   40.2640 C.2   267  GLY267      0.2639
    109  O          9.6380  141.0920   41.2820 O.2   267  GLY267     -0.2714
    110  N          8.5390  139.5280   40.0930 N.am  268  GLY268     -0.1954
    111  CA         8.5740  138.5320   41.1490 C.3   268  GLY268      0.1869
    112  C          9.9800  138.1870   41.6060 C.2   268  GLY268      0.2309
    113  O         10.2280  138.0400   42.8020 O.2   268  GLY268     -0.2863
    114  N          4.3860  140.5910   47.7540 N.3   290  TYR290     -0.1241
    115  CA         4.4390  140.8580   46.3230 C.3   290  TYR290      0.1605
    116  C          3.0270  140.7590   45.7640 C.2   290  TYR290      0.2264
    117  O          2.3500  139.7470   45.9490 O.2   290  TYR290     -0.2867
    118  CB         5.3800  139.8840   45.6130 C.3   290  TYR290      0.0534
    119  CG         5.4400  140.0830   44.1140 C.ar  290  TYR290     -0.0201
    120  CD1        5.8160  141.3040   43.5690 C.ar  290  TYR290     -0.0009
    121  CD2        5.1270  139.0480   43.2430 C.ar  290  TYR290     -0.0009
    122  CE1        5.8710  141.4910   42.2000 C.ar  290  TYR290      0.0417
    123  CE2        5.1810  139.2250   41.8730 C.ar  290  TYR290      0.0417
    124  CZ         5.5520  140.4480   41.3580 C.ar  290  TYR290      0.1957
    125  OH         5.6060  140.6300   39.9960 O.3   290  TYR290     -0.2866
@<TRIPOS>BOND
     1    23    24    1
     2    18    17    2
     3    17    16    1
     4    26    25    2
     5    25    24    1
     6    24    27    1
     7    16    15    1
     8    16    19    1
     9    27    28    1
    10    19    20    1
    11    28    29    1
    12    20    21    2
    13    20    22   am
    14    58    59    1
    15    29    30    1
    16    59    62    1
    17    59    60    1
    18    62    63    1
    19    61    60    2
    20    60    66   am
    21    69    68    2
    22    30    31    2
    23    90    91    1
    24    63    65   ar
    25    63    64   ar
    26    66    67    1
    27    80    78    1
    28    32    31    1
    29    31    33    1
    30    94    91    1
    31    94    95    1
    32    68    67    1
    33    68    70   am
    34    97    96    1
    35    91    92    1
    36    96    95    1
    37    73    72    2
    38    71    72    1
    39    71    70    1
    40    72    74   am
    41    78    79    1
    42    78    75    1
    43    93    92    2
    44    74    75    1
    45    92    98   am
    46    75    76    1
    47    34    35    1
    48    57    56    1
    49    98    99    1
    50    35    36    1
    51    76    81   am
    52    76    77    2
    53    81    82    1
    54   103   104    1
    55   103   102    1
    56    56    53    1
    57   105   104    1
    58    99   102    1
    59    99   100    1
    60    37    36    2
    61    36    38   am
    62    55    54    2
    63     6     5    1
    64     2     5    1
    65     2     1    1
    66     2     3    1
    67    54    53    1
    68    82    83    1
    69    82    85    1
    70    83    84    2
    71    85    86    1
    72    53    52    1
    73    86    87    1
    74    38    39    1
    75   100   101    2
    76   100   106   am
    77     3     4    2
    78   106   107    1
    79    52    46   am
    80    89    87   am
    81    39    42    1
    82    39    40    1
    83    87    88    2
    84   107   108    1
    85    51    49    1
    86    42    43    1
    87    40    44   am
    88    40    41    2
    89    13    12    1
    90    13    14    1
    91    44    45    1
    92    46    47    2
    93    46    45    1
    94    12    11    1
    95     7     8    1
    96   125   124    1
    97   110   108   am
    98   110   111    1
    99    45    48    1
   100   108   109    2
   101    49    48    1
   102    11     8    1
   103     8     9    1
   104    48    50    1
   105   111   112    1
   106   124   123   ar
   107   124   122   ar
   108   112   113    2
   109   123   121   ar
   110   122   120   ar
   111     9    10    2
   112   121   119   ar
   113   120   119   ar
   114   119   118    1
   115   118   115    1
   116   116   117    2
   117   116   115    1
   118   115   114    1
