@<TRIPOS>MOLECULE
tmp/4xtlA09.pdb
 96 91 0 0 0
SMALL
GASTEIGER

@<TRIPOS>ATOM
      1  N         21.7800   32.8850   25.2030 N.3    73  LEU73      -0.1245
      2  CA        22.1040   31.7550   24.3410 C.3    73  LEU73       0.1561
      3  C         20.8700   31.2040   23.6540 C.2    73  LEU73       0.2260
      4  O         20.9630   30.7290   22.5110 O.2    73  LEU73      -0.2867
      5  CB        22.8700   30.6840   25.1130 C.3    73  LEU73       0.0270
      6  CG        24.3200   31.0680   25.4070 C.3    73  LEU73       0.0019
      7  CD1       24.9090   30.2180   26.5030 C.3    73  LEU73       0.0001
      8  CD2       25.1730   30.9460   24.1360 C.3    73  LEU73       0.0001
      9  N         24.4770   30.2300    8.1680 N.3   101  ASP101     -0.1239
     10  CA        25.5670   29.6130    8.9050 C.3   101  ASP101      0.1674
     11  C         25.2290   28.1920    9.3380 C.2   101  ASP101      0.2266
     12  O         26.0320   27.5210    9.9960 O.2   101  ASP101     -0.2867
     13  CB        25.9130   30.4580   10.1350 C.3   101  ASP101      0.1410
     14  CG        26.3570   31.8600    9.7670 C.2   101  ASP101      0.3668
     15  OD1       27.3470   31.9780    9.0170 O.co2 101  ASP101     -0.2456
     16  OD2       25.7180   32.8340   10.2240 O.co2 101  ASP101     -0.2456
     17  N         23.1070   25.2670   14.4650 N.3   104  ASN104     -0.1240
     18  CA        24.2170   24.8980   15.3070 C.3   104  ASN104      0.1653
     19  C         23.7240   24.6410   16.7260 C.2   104  ASN104      0.2266
     20  O         23.0910   25.5080   17.3260 O.2   104  ASN104     -0.2867
     21  CB        25.2330   26.0190   15.3080 C.3   104  ASN104      0.1155
     22  CG        26.5920   25.5630   15.7800 C.2   104  ASN104      0.2627
     23  OD1       26.7100   24.8590   16.7850 O.2   104  ASN104     -0.2716
     24  ND2       27.6300   25.9450   15.0450 N.am  104  ASN104     -0.0877
     25  N         25.5680   24.2790   19.2520 N.3   106  GLY106     -0.1210
     26  CA        26.5500   24.8110   20.1730 C.3   106  GLY106      0.1956
     27  C         25.9600   25.7640   21.1930 C.2   106  GLY106      0.2611
     28  O         26.4070   25.7740   22.3400 O.2   106  GLY106     -0.2717
     29  N         24.9700   26.5660   20.7930 N.am  107  TYR107     -0.1976
     30  CA        24.4160   27.5760   21.6850 C.3   107  TYR107      0.1639
     31  C         23.7760   26.8760   22.8890 C.2   107  TYR107      0.2290
     32  O         24.0040   27.2390   24.0460 O.2   107  TYR107     -0.2864
     33  CB        23.3840   28.4390   20.9680 C.3   107  TYR107      0.0560
     34  CG        23.9630   29.2250   19.8170 C.ar  107  TYR107     -0.0198
     35  CD1       24.8410   30.2750   20.0490 C.ar  107  TYR107     -0.0009
     36  CD2       23.6580   28.8920   18.4970 C.ar  107  TYR107     -0.0009
     37  CE1       25.3920   30.9910   18.9980 C.ar  107  TYR107      0.0417
     38  CE2       24.2060   29.6040   17.4390 C.ar  107  TYR107      0.0417
     39  CZ        25.0720   30.6510   17.7010 C.ar  107  TYR107      0.1957
     40  OH        25.6410   31.3630   16.6590 O.3   107  TYR107     -0.2866
     41  N         24.1720   23.6410   23.9280 N.3   109  TYR109     -0.1227
     42  CA        25.1420   22.8790   24.7050 C.3   109  TYR109      0.1736
     43  C         26.0560   23.7570   25.5600 C.2   109  TYR109      0.2595
     44  O         26.3930   23.3980   26.6950 O.2   109  TYR109     -0.2718
     45  CB        25.9500   21.9320   23.8200 C.3   109  TYR109      0.0548
     46  CG        25.1950   20.6560   23.4940 C.ar  109  TYR109     -0.0200
     47  CD1       24.1710   20.6500   22.5600 C.ar  109  TYR109     -0.0009
     48  CD2       25.4960   19.4620   24.1440 C.ar  109  TYR109     -0.0009
     49  CE1       23.4910   19.4810   22.2490 C.ar  109  TYR109      0.0417
     50  CE2       24.8250   18.2980   23.8400 C.ar  109  TYR109      0.0417
     51  CZ        23.8230   18.3090   22.9050 C.ar  109  TYR109      0.1957
     52  OH        23.1470   17.1380   22.6120 O.3   109  TYR109     -0.2866
     53  N         26.4410   24.9240   25.0460 N.am  110  LEU110     -0.1980
     54  CA        27.1870   25.8610   25.8700 C.3   110  LEU110      0.1596
     55  C         26.3450   26.3200   27.0440 C.2   110  LEU110      0.2287
     56  O         26.8420   26.4310   28.1830 O.2   110  LEU110     -0.2864
     57  CB        27.6550   27.0620   25.0550 C.3   110  LEU110      0.0297
     58  CG        28.4450   28.0990   25.8570 C.3   110  LEU110      0.0022
     59  CD1       29.6880   27.4860   26.5040 C.3   110  LEU110      0.0001
     60  CD2       28.8400   29.2620   24.9500 C.3   110  LEU110      0.0001
     61  N         26.4130   23.6480   29.6020 N.3   113  LEU113     -0.1245
     62  CA        27.7140   23.5590   30.2690 C.3   113  LEU113      0.1561
     63  C         27.8240   24.5970   31.3800 C.2   113  LEU113      0.2260
     64  O         28.3300   24.3070   32.4590 O.2   113  LEU113     -0.2867
     65  CB        28.8450   23.7170   29.2550 C.3   113  LEU113      0.0270
     66  CG        30.2440   23.4930   29.8020 C.3   113  LEU113      0.0019
     67  CD1       30.4140   22.0580   30.2750 C.3   113  LEU113      0.0001
     68  CD2       31.2950   23.8530   28.7530 C.3   113  LEU113      0.0001
     69  N         27.5760   16.8010   30.0530 N.3   149  ILE149     -0.1231
     70  CA        27.3570   17.6970   28.9250 C.3   149  ILE149      0.1692
     71  C         28.4610   17.5100   27.8770 C.2   149  ILE149      0.2591
     72  O         28.1900   17.5020   26.6780 O.2   149  ILE149     -0.2718
     73  CB        27.2860   19.1590   29.3830 C.3   149  ILE149      0.0266
     74  CG1       26.1150   19.3400   30.3490 C.3   149  ILE149      0.0019
     75  CG2       27.1320   20.1060   28.1950 C.3   149  ILE149      0.0020
     76  CD1       24.7960   18.7920   29.8310 C.3   149  ILE149      0.0001
     77  N         29.6900   17.3030   28.3290 N.am  150  ILE150     -0.1980
     78  CA        30.8080   17.1210   27.4020 C.3   150  ILE150      0.1595
     79  C         30.6060   15.8630   26.5560 C.2   150  ILE150      0.2287
     80  O         30.7450   15.9040   25.3240 O.2   150  ILE150     -0.2864
     81  CB        32.1400   17.0310   28.1440 C.3   150  ILE150      0.0276
     82  CG1       32.5400   18.4170   28.6680 C.3   150  ILE150      0.0022
     83  CG2       33.2240   16.4510   27.2450 C.3   150  ILE150      0.0022
     84  CD1       33.7030   18.3770   29.6310 C.3   150  ILE150      0.0001
     85  N         27.8250   16.2990   24.1430 N.3   153  TYR153     -0.1241
     86  CA        28.2400   17.1660   23.0360 C.3   153  TYR153      0.1605
     87  C         29.0150   16.3490   21.9930 C.2   153  TYR153      0.2264
     88  O         28.7770   16.4750   20.7850 O.2   153  TYR153     -0.2867
     89  CB        29.0980   18.3170   23.5330 C.3   153  TYR153      0.0534
     90  CG        29.3850   19.3560   22.4610 C.ar  153  TYR153     -0.0201
     91  CD1       28.3580   19.9570   21.7630 C.ar  153  TYR153     -0.0009
     92  CD2       30.6830   19.7340   22.1680 C.ar  153  TYR153     -0.0009
     93  CE1       28.6060   20.9110   20.7810 C.ar  153  TYR153      0.0417
     94  CE2       30.9460   20.6900   21.1980 C.ar  153  TYR153      0.0417
     95  CZ        29.9060   21.2720   20.5080 C.ar  153  TYR153      0.1957
     96  OH        30.1780   22.2250   19.5380 O.3   153  TYR153     -0.2866
@<TRIPOS>BOND
     1     9    10    1
     2    10    11    1
     3    10    13    1
     4    15    14   ar
     5    11    12    2
     6    14    13    1
     7    14    16   ar
     8    17    18    1
     9    24    22   am
    10    18    21    1
    11    18    19    1
    12    21    22    1
    13    22    23    2
    14    40    39    1
    15    19    20    2
    16    38    39   ar
    17    38    36   ar
    18    39    37   ar
    19    36    34   ar
    20    37    35   ar
    21    25    26    1
    22    96    95    1
    23    34    35   ar
    24    34    33    1
    25    26    27    1
    26    95    93   ar
    27    95    94   ar
    28    93    91   ar
    29    88    87    2
    30    29    27   am
    31    29    30    1
    32    33    30    1
    33    27    28    2
    34    94    92   ar
    35    30    31    1
    36    91    90   ar
    37    87    86    1
    38    92    90   ar
    39    49    47   ar
    40    49    51   ar
    41    90    89    1
    42     4     3    2
    43    47    46   ar
    44    52    51    1
    45    31    32    2
    46    51    50   ar
    47    86    89    1
    48    86    85    1
    49    46    45    1
    50    46    48   ar
    51     3     2    1
    52    45    42    1
    53    50    48   ar
    54    41    42    1
    55     8     6    1
    56     2     5    1
    57     2     1    1
    58    42    43    1
    59    60    58    1
    60    53    43   am
    61    53    54    1
    62    57    58    1
    63    57    54    1
    64     5     6    1
    65    80    79    2
    66     6     7    1
    67    43    44    2
    68    58    59    1
    69    54    55    1
    70    79    78    1
    71    72    71    2
    72    55    56    2
    73    83    81    1
    74    78    81    1
    75    78    77    1
    76    71    77   am
    77    71    70    1
    78    81    82    1
    79    75    73    1
    80    82    84    1
    81    68    66    1
    82    70    73    1
    83    70    69    1
    84    65    66    1
    85    65    62    1
    86    73    74    1
    87    61    62    1
    88    66    67    1
    89    76    74    1
    90    62    63    1
    91    63    64    2
