@<TRIPOS>MOLECULE
tmp/4xtlA13.pdb
 85 76 0 0 0
SMALL
GASTEIGER

@<TRIPOS>ATOM
      1  N          7.5540   19.7580   52.0520 N.3   201  LYS201     -0.1245
      2  CA         6.6420   19.5860   50.9310 C.3   201  LYS201      0.1561
      3  C          7.1890   20.2300   49.6750 C.2   201  LYS201      0.2260
      4  O          7.0910   19.6780   48.5790 O.2   201  LYS201     -0.2867
      5  CB         5.3040   20.2300   51.2740 C.3   201  LYS201      0.0271
      6  CG         4.2060   20.0980   50.2560 C.3   201  LYS201      0.0035
      7  CD         3.7040   18.6900   50.2510 C.3   201  LYS201      0.0206
      8  CE         2.4040   18.5790   49.4490 C.3   201  LYS201      0.1093
      9  NZ         2.6360   18.6810   48.0190 N.3   201  LYS201     -0.1314
     10  N          8.4120   18.4810   46.0260 N.3   205  ASN205     -0.1240
     11  CA         8.0330   18.9880   44.7130 C.3   205  ASN205      0.1653
     12  C          9.2600   19.3180   43.8670 C.2   205  ASN205      0.2266
     13  O          9.2790   19.0580   42.6670 O.2   205  ASN205     -0.2867
     14  CB         7.1140   20.1970   44.8390 C.3   205  ASN205      0.1155
     15  CG         5.7060   19.8110   45.3100 C.2   205  ASN205      0.2627
     16  OD1        4.9960   20.6170   45.9010 O.2   205  ASN205     -0.2716
     17  ND2        5.3210   18.5790   45.0540 N.am  205  ASN205     -0.0877
     18  N         10.5640   16.0450   42.3350 N.3   208  ILE208     -0.1231
     19  CA         9.7890   15.5660   41.1960 C.3   208  ILE208      0.1692
     20  C         10.0470   16.4310   39.9670 C.2   208  ILE208      0.2591
     21  O         10.2310   15.9260   38.8690 O.2   208  ILE208     -0.2718
     22  CB         8.2850   15.5410   41.5120 C.3   208  ILE208      0.0266
     23  CG1        8.0110   14.5320   42.6390 C.3   208  ILE208      0.0019
     24  CG2        7.4970   15.1620   40.2730 C.3   208  ILE208      0.0020
     25  CD1        6.6360   14.6960   43.2640 C.3   208  ILE208      0.0001
     26  N         10.0470   17.7360   40.1620 N.am  209  LEU209     -0.1980
     27  CA        10.3320   18.6820   39.0790 C.3   209  LEU209      0.1596
     28  C         11.6880   18.4130   38.4600 C.2   209  LEU209      0.2287
     29  O         11.8410   18.4140   37.2430 O.2   209  LEU209     -0.2864
     30  CB        10.2710   20.1010   39.6160 C.3   209  LEU209      0.0297
     31  CG        10.6840   21.2010   38.6020 C.3   209  LEU209      0.0022
     32  CD1        9.6610   21.3260   37.4880 C.3   209  LEU209      0.0001
     33  CD2       10.8980   22.5120   39.3200 C.3   209  LEU209      0.0001
     34  N         11.7830   14.9400   36.5430 N.3   212  ILE212     -0.1231
     35  CA        11.0940   15.0020   35.2720 C.3   212  ILE212      0.1692
     36  C         11.7870   15.9420   34.2800 C.2   212  ILE212      0.2592
     37  O         12.0590   15.5700   33.1470 O.2   212  ILE212     -0.2718
     38  CB         9.6250   15.3990   35.4520 C.3   212  ILE212      0.0266
     39  CG1        8.8980   14.3250   36.2640 C.3   212  ILE212      0.0019
     40  CG2        8.9520   15.5580   34.0870 C.3   212  ILE212      0.0020
     41  CD1        7.5340   14.7590   36.7210 C.3   212  ILE212      0.0001
     42  N         12.0920   17.1530   34.7130 N.am  213  SER213     -0.1952
     43  CA        12.5980   18.1570   33.7780 C.3   213  SER213      0.1924
     44  C         13.9680   17.7530   33.2470 C.2   213  SER213      0.2314
     45  O         14.2680   17.9510   32.0590 O.2   213  SER213     -0.2863
     46  CB        12.6210   19.5540   34.4120 C.3   213  SER213      0.2116
     47  OG        13.5330   19.6570   35.5060 O.3   213  SER213     -0.2180
     48  N         13.7920   15.0360   30.5820 N.3   216  LEU216     -0.1245
     49  CA        13.3130   15.4990   29.2680 C.3   216  LEU216      0.1561
     50  C         14.4640   15.7010   28.2840 C.2   216  LEU216      0.2260
     51  O         14.2700   15.5520   27.0770 O.2   216  LEU216     -0.2867
     52  CB        12.5110   16.7980   29.3760 C.3   216  LEU216      0.0270
     53  CG        11.1730   16.7100   30.0820 C.3   216  LEU216      0.0019
     54  CD1       10.5260   18.0800   30.1420 C.3   216  LEU216      0.0001
     55  CD2       10.2710   15.6980   29.3880 C.3   216  LEU216      0.0001
     56  N         10.4420   23.2720   26.9870 N.3   248  ILE248     -0.1245
     57  CA         9.7240   22.9070   28.2010 C.3   248  ILE248      0.1561
     58  C         10.7260   22.5790   29.3240 C.2   248  ILE248      0.2260
     59  O         10.5760   23.0510   30.4570 O.2   248  ILE248     -0.2867
     60  CB         8.7780   21.7100   27.9770 C.3   248  ILE248      0.0252
     61  CG1        7.6110   22.1210   27.0760 C.3   248  ILE248      0.0019
     62  CG2        8.2590   21.1700   29.3010 C.3   248  ILE248      0.0019
     63  CD1        6.7900   20.9450   26.6000 C.3   248  ILE248      0.0001
     64  N         11.3720   24.6300   32.8230 N.3   252  SER252     -0.1217
     65  CA        11.0870   23.9050   34.0500 C.3   252  SER252      0.1889
     66  C         12.3190   23.7970   34.9510 C.2   252  SER252      0.2288
     67  O         12.2640   24.0500   36.1710 O.2   252  SER252     -0.2866
     68  CB        10.5570   22.5130   33.6890 C.3   252  SER252      0.2089
     69  OG         9.3360   22.6560   32.9700 O.3   252  SER252     -0.2183
     70  N         11.1930   27.3550   36.7850 N.3   255  ILE255     -0.1245
     71  CA        10.3320   26.7980   37.7980 C.3   255  ILE255      0.1561
     72  C         11.1150   26.2800   38.9990 C.2   255  ILE255      0.2260
     73  O         10.7320   26.5210   40.1550 O.2   255  ILE255     -0.2867
     74  CB         9.4080   25.7030   37.2440 C.3   255  ILE255      0.0252
     75  CG1        8.5950   26.2270   36.0530 C.3   255  ILE255      0.0019
     76  CG2        8.4890   25.2310   38.3540 C.3   255  ILE255      0.0019
     77  CD1        7.6370   25.1950   35.4680 C.3   255  ILE255      0.0001
     78  N         10.6840   27.5720   42.8790 N.3   259  LEU259     -0.1245
     79  CA        10.4610   26.6800   44.0210 C.3   259  LEU259      0.1561
     80  C         11.5360   26.8270   45.0750 C.2   259  LEU259      0.2260
     81  O         11.2480   26.8270   46.2670 O.2   259  LEU259     -0.2867
     82  CB        10.3700   25.2190   43.5860 C.3   259  LEU259      0.0270
     83  CG         9.1450   24.8410   42.7540 C.3   259  LEU259      0.0019
     84  CD1        9.1840   23.3600   42.4140 C.3   259  LEU259      0.0001
     85  CD2        7.8750   25.2010   43.4880 C.3   259  LEU259      0.0001
@<TRIPOS>BOND
     1    63    61    1
     2    56    57    1
     3    61    60    1
     4    51    50    2
     5    60    57    1
     6    60    62    1
     7    57    58    1
     8    50    49    1
     9    49    52    1
    10    49    48    1
    11    58    59    2
    12    52    53    1
    13    55    53    1
    14    53    54    1
    15    45    44    2
    16    64    65    1
    17    69    68    1
    18    37    36    2
    19    44    43    1
    20    68    65    1
    21    43    46    1
    22    43    42    1
    23    65    66    1
    24    40    38    1
    25    36    42   am
    26    36    35    1
    27    46    47    1
    28    66    67    2
    29    35    38    1
    30    35    34    1
    31    38    39    1
    32    77    75    1
    33    75    74    1
    34    39    41    1
    35    70    71    1
    36    29    28    2
    37    74    71    1
    38    74    76    1
    39    32    31    1
    40    71    72    1
    41    28    27    1
    42    31    33    1
    43    31    30    1
    44    21    20    2
    45    72    73    2
    46    27    30    1
    47    27    26    1
    48    20    26   am
    49    20    19    1
    50    24    22    1
    51    19    22    1
    52    19    18    1
    53    22    23    1
    54    84    83    1
    55    23    25    1
    56    13    12    2
    57    83    85    1
    58    83    82    1
    59    78    79    1
    60    82    79    1
    61    12    11    1
    62    79    80    1
    63    11    14    1
    64    11    10    1
    65    14    15    1
    66    17    15   am
    67    80    81    2
    68    15    16    2
    69     9     8    1
    70     4     3    2
    71     8     7    1
    72     3     2    1
    73     7     6    1
    74     6     5    1
    75     2     5    1
    76     2     1    1
