@<TRIPOS>MOLECULE
tmp/4xtnJ09.pdb
 76 67 0 0 0
SMALL
GASTEIGER

@<TRIPOS>ATOM
      1  N         35.9570   16.5270  103.7340 N.3   207  ILE207     -0.1245
      2  CA        36.8530   16.5730  102.5920 C.3   207  ILE207      0.1561
      3  C         36.4480   15.5170  101.5670 C.2   207  ILE207      0.2260
      4  O         36.4250   15.7800  100.3650 O.2   207  ILE207     -0.2867
      5  CB        38.3130   16.3250  103.0190 C.3   207  ILE207      0.0252
      6  CG1       38.7600   17.3950  104.0090 C.3   207  ILE207      0.0019
      7  CG2       39.2340   16.3180  101.8060 C.3   207  ILE207      0.0019
      8  CD1       40.1560   17.1720  104.5460 C.3   207  ILE207      0.0001
      9  N         35.1300   16.4450   97.8100 N.3   211  ILE211     -0.1245
     10  CA        35.8360   15.9450   96.6380 C.3   211  ILE211      0.1561
     11  C         35.0110   14.9220   95.8440 C.2   211  ILE211      0.2260
     12  O         34.8680   15.0430   94.6210 O.2   211  ILE211     -0.2867
     13  CB        37.1870   15.3120   97.0300 C.3   211  ILE211      0.0252
     14  CG1       38.1400   16.3790   97.5640 C.3   211  ILE211      0.0019
     15  CG2       37.8300   14.6100   95.8380 C.3   211  ILE211      0.0019
     16  CD1       39.3470   15.7990   98.2730 C.3   211  ILE211      0.0001
     17  N         33.1340   15.3590   91.7910 N.3   215  LEU215     -0.1245
     18  CA        33.5750   14.5690   90.6390 C.3   215  LEU215      0.1561
     19  C         32.4250   14.2880   89.6700 C.2   215  LEU215      0.2260
     20  O         32.6480   14.1010   88.4750 O.2   215  LEU215     -0.2867
     21  CB        34.1910   13.2490   91.0970 C.3   215  LEU215      0.0270
     22  CG        35.5300   13.3330   91.8250 C.3   215  LEU215      0.0019
     23  CD1       35.8430   12.0080   92.5060 C.3   215  LEU215      0.0001
     24  CD2       36.6460   13.7240   90.8710 C.3   215  LEU215      0.0001
     25  N         33.0620   15.9950   81.3470 N.3   222  MET222     -0.1245
     26  CA        34.2610   15.2920   80.8720 C.3   222  MET222      0.1570
     27  C         34.6140   15.4190   79.3840 C.2   222  MET222      0.2261
     28  O         35.7620   15.7160   79.0480 O.2   222  MET222     -0.2867
     29  CB        34.1720   13.8060   81.2130 C.3   222  MET222      0.0387
     30  CG        35.4530   13.0500   80.9000 C.3   222  MET222      0.0595
     31  SD        36.8600   13.6130   81.8840 S.3   222  MET222     -0.1393
     32  CE        36.4070   13.0560   83.5250 C.3   222  MET222      0.0692
     33  N         36.1240   18.8870   78.7140 N.3   225  LEU225     -0.1245
     34  CA        37.0850   19.4890   79.6300 C.3   225  LEU225      0.1561
     35  C         38.3870   19.8550   78.9140 C.2   225  LEU225      0.2260
     36  O         39.2260   20.5470   79.4770 O.2   225  LEU225     -0.2867
     37  CB        37.3680   18.5610   80.8170 C.3   225  LEU225      0.0270
     38  CG        36.2790   18.4770   81.8910 C.3   225  LEU225      0.0019
     39  CD1       36.7380   17.5910   83.0320 C.3   225  LEU225      0.0001
     40  CD2       35.8990   19.8490   82.4310 C.3   225  LEU225      0.0001
     41  N         39.9290   14.7930   75.2260 N.3   231  LEU231     -0.1245
     42  CA        38.9190   14.0210   75.9460 C.3   231  LEU231      0.1561
     43  C         37.6390   13.7960   75.1350 C.2   231  LEU231      0.2260
     44  O         36.7650   13.0520   75.5630 O.2   231  LEU231     -0.2867
     45  CB        38.5720   14.6940   77.2730 C.3   231  LEU231      0.0270
     46  CG        39.6700   14.6970   78.3400 C.3   231  LEU231      0.0019
     47  CD1       39.2220   15.5230   79.5330 C.3   231  LEU231      0.0001
     48  CD2       40.0430   13.2850   78.7710 C.3   231  LEU231      0.0001
     49  N         37.6970    7.9030   80.8630 N.3   239  ALA239     -0.1245
     50  CA        37.8570    8.8150   81.9850 C.3   239  ALA239      0.1562
     51  C         36.5300    9.0520   82.6950 C.2   239  ALA239      0.2260
     52  O         36.4620    9.0750   83.9200 O.2   239  ALA239     -0.2867
     53  CB        38.4490   10.1300   81.5080 C.3   239  ALA239      0.0290
     54  N         35.5300    5.9570   84.7510 N.3   242  LEU242     -0.1231
     55  CA        36.4760    5.7950   85.8530 C.3   242  LEU242      0.1693
     56  C         36.1400    6.7820   86.9620 C.2   242  LEU242      0.2591
     57  O         36.0390    6.4010   88.1290 O.2   242  LEU242     -0.2718
     58  CB        37.9160    6.0110   85.3940 C.3   242  LEU242      0.0284
     59  CG        38.9300    6.1190   86.5400 C.3   242  LEU242      0.0019
     60  CD1       38.9560    4.8320   87.3500 C.3   242  LEU242      0.0001
     61  CD2       40.3230    6.4550   86.0230 C.3   242  LEU242      0.0001
     62  N         35.9500    8.0460   86.5890 N.am  243  VAL243     -0.1980
     63  CA        35.5660    9.0800   87.5560 C.3   243  VAL243      0.1595
     64  C         34.2670    8.7380   88.2880 C.2   243  VAL243      0.2287
     65  O         34.1760    8.9090   89.5040 O.2   243  VAL243     -0.2864
     66  CB        35.4080   10.4600   86.8890 C.3   243  VAL243      0.0276
     67  CG1       34.7490   11.4370   87.8500 C.3   243  VAL243      0.0022
     68  CG2       36.7600   10.9950   86.4320 C.3   243  VAL243      0.0022
     69  N         35.1520    5.9330   90.8580 N.3   246  ILE246     -0.1245
     70  CA        35.8700    6.4630   92.0050 C.3   246  ILE246      0.1561
     71  C         34.8890    7.2200   92.9000 C.2   246  ILE246      0.2260
     72  O         34.8740    7.0420   94.1200 O.2   246  ILE246     -0.2867
     73  CB        37.0130    7.3910   91.5550 C.3   246  ILE246      0.0252
     74  CG1       38.1370    6.5680   90.9130 C.3   246  ILE246      0.0019
     75  CG2       37.5540    8.2000   92.7270 C.3   246  ILE246      0.0019
     76  CD1       39.1610    7.4200   90.1930 C.3   246  ILE246      0.0001
@<TRIPOS>BOND
     1    43    44    2
     2    43    42    1
     3    41    42    1
     4    42    45    1
     5    45    46    1
     6    46    48    1
     7    46    47    1
     8    33    34    1
     9    35    36    2
    10    35    34    1
    11    28    27    2
    12    27    26    1
    13    34    37    1
    14    37    38    1
    15    49    50    1
    16    26    29    1
    17    26    25    1
    18    30    29    1
    19    30    31    1
    20    53    50    1
    21    31    32    1
    22    38    40    1
    23    38    39    1
    24    50    51    1
    25    51    52    2
    26    54    55    1
    27    58    55    1
    28    58    59    1
    29    55    56    1
    30    61    59    1
    31    68    66    1
    32    59    60    1
    33    62    56   am
    34    62    63    1
    35    66    63    1
    36    66    67    1
    37    56    57    2
    38    63    64    1
    39    64    65    2
    40    20    19    2
    41    19    18    1
    42    76    74    1
    43    18    21    1
    44    18    17    1
    45    69    70    1
    46    24    22    1
    47    74    73    1
    48    21    22    1
    49    73    70    1
    50    73    75    1
    51    22    23    1
    52    70    71    1
    53    71    72    2
    54    12    11    2
    55    15    13    1
    56    11    10    1
    57    10    13    1
    58    10     9    1
    59    13    14    1
    60    14    16    1
    61     4     3    2
    62     3     2    1
    63     7     5    1
    64     2     5    1
    65     2     1    1
    66     5     6    1
    67     6     8    1
