@<TRIPOS>MOLECULE
tmp/4xtnA05.pdb
 96 87 0 0 0
SMALL
GASTEIGER

@<TRIPOS>ATOM
      1  N         35.2920  -24.3000   32.2050 N.3    32  LEU32      -0.1245
      2  CA        35.9240  -24.5500   30.9200 C.3    32  LEU32       0.1561
      3  C         35.0180  -25.4540   30.0830 C.2    32  LEU32       0.2260
      4  O         34.7920  -25.2080   28.9000 O.2    32  LEU32      -0.2867
      5  CB        37.2830  -25.2140   31.1220 C.3    32  LEU32       0.0270
      6  CG        37.9580  -25.6980   29.8370 C.3    32  LEU32       0.0019
      7  CD1       38.0640  -24.5720   28.8270 C.3    32  LEU32       0.0001
      8  CD2       39.3300  -26.2770   30.1360 C.3    32  LEU32       0.0001
      9  N         33.4620  -24.3920   26.2990 N.3    36  VAL36      -0.1245
     10  CA        33.8120  -25.1150   25.0860 C.3    36  VAL36       0.1561
     11  C         32.5630  -25.5370   24.3180 C.2    36  VAL36       0.2260
     12  O         32.5270  -25.4640   23.0880 O.2    36  VAL36      -0.2867
     13  CB        34.6430  -26.3660   25.4090 C.3    36  VAL36       0.0252
     14  CG1       34.8530  -27.1970   24.1580 C.3    36  VAL36       0.0019
     15  CG2       35.9790  -25.9710   26.0210 C.3    36  VAL36       0.0019
     16  N         30.8290  -22.4230   22.6300 N.3    39  ALA39      -0.1231
     17  CA        31.6730  -22.0340   21.5220 C.3    39  ALA39       0.1694
     18  C         31.5250  -23.0570   20.3940 C.2    39  ALA39       0.2592
     19  O         31.4260  -22.6940   19.2230 O.2    39  ALA39      -0.2718
     20  CB        33.1170  -21.9390   21.9850 C.3    39  ALA39       0.0304
     21  N         31.5000  -24.3350   20.7630 N.am   40  GLY40      -0.1957
     22  CA        31.3340  -25.4230   19.8080 C.3    40  GLY40       0.1869
     23  C         30.0040  -25.3390   19.0830 C.2    40  GLY40       0.2309
     24  O         29.9250  -25.5790   17.8790 O.2    40  GLY40      -0.2863
     25  N         30.4660  -22.8860   16.3930 N.3    43  TYR43      -0.1241
     26  CA        31.2920  -23.4190   15.3200 C.3    43  TYR43       0.1605
     27  C         30.4670  -24.2910   14.3740 C.2    43  TYR43       0.2264
     28  O         30.5110  -24.1350   13.1490 O.2    43  TYR43      -0.2867
     29  CB        32.4620  -24.2320   15.8870 C.3    43  TYR43       0.0534
     30  CG        33.2230  -24.9700   14.8160 C.ar   43  TYR43      -0.0201
     31  CD1       34.2130  -24.3340   14.0810 C.ar   43  TYR43      -0.0009
     32  CD2       32.9350  -26.2910   14.5210 C.ar   43  TYR43      -0.0009
     33  CE1       34.9010  -25.0000   13.0890 C.ar   43  TYR43       0.0417
     34  CE2       33.6200  -26.9650   13.5290 C.ar   43  TYR43       0.0417
     35  CZ        34.5970  -26.3130   12.8180 C.ar   43  TYR43       0.1957
     36  OH        35.2790  -26.9760   11.8320 O.3    43  TYR43      -0.2866
     37  N         34.7480  -32.9070   25.7960 N.3   249  VAL249     -0.1245
     38  CA        35.3370  -32.1450   24.7010 C.3   249  VAL249      0.1561
     39  C         35.6920  -33.0820   23.5450 C.2   249  VAL249      0.2260
     40  O         35.3900  -32.7990   22.3840 O.2   249  VAL249     -0.2867
     41  CB        36.6030  -31.3940   25.1470 C.3   249  VAL249      0.0252
     42  CG1       37.1920  -30.6140   23.9840 C.3   249  VAL249      0.0019
     43  CG2       36.2880  -30.4620   26.2990 C.3   249  VAL249      0.0019
     44  N         32.8750  -32.4280   20.7880 N.3   252  VAL252     -0.1231
     45  CA        33.4120  -31.3630   19.9390 C.3   252  VAL252      0.1692
     46  C         34.3820  -31.9050   18.8900 C.2   252  VAL252      0.2591
     47  O         34.1660  -31.7420   17.6910 O.2   252  VAL252     -0.2718
     48  CB        34.1190  -30.2790   20.7690 C.3   252  VAL252      0.0266
     49  CG1       34.6410  -29.1780   19.8600 C.3   252  VAL252      0.0020
     50  CG2       33.1620  -29.7090   21.8030 C.3   252  VAL252      0.0020
     51  N         35.4490  -32.5500   19.3380 N.am  253  ILE253     -0.1980
     52  CA        36.4390  -33.0640   18.4090 C.3   253  ILE253      0.1595
     53  C         35.7960  -34.0800   17.4580 C.2   253  ILE253      0.2287
     54  O         35.9630  -33.9870   16.2490 O.2   253  ILE253     -0.2864
     55  CB        37.6430  -33.6610   19.1520 C.3   253  ILE253      0.0276
     56  CG1       38.2870  -32.5740   20.0200 C.3   253  ILE253      0.0022
     57  CG2       38.6510  -34.2200   18.1630 C.3   253  ILE253      0.0022
     58  CD1       39.4990  -33.0290   20.8060 C.3   253  ILE253      0.0001
     59  N         33.8390  -32.3170   14.8530 N.3   256  VAL256     -0.1245
     60  CA        34.7070  -31.6130   13.9150 C.3   256  VAL256      0.1561
     61  C         35.2670  -32.5840   12.8730 C.2   256  VAL256      0.2260
     62  O         35.3040  -32.2720   11.6850 O.2   256  VAL256     -0.2867
     63  CB        35.8850  -30.9210   14.6320 C.3   256  VAL256      0.0252
     64  CG1       36.9110  -30.4390   13.6180 C.3   256  VAL256      0.0019
     65  CG2       35.3910  -29.7650   15.4880 C.3   256  VAL256      0.0019
     66  N         34.7370  -32.7200    8.8260 N.3   260  ASN260     -0.1240
     67  CA        35.8510  -32.7670    7.8980 C.3   260  ASN260      0.1653
     68  C         35.7360  -33.9420    6.9280 C.2   260  ASN260      0.2266
     69  O         35.9600  -33.7910    5.7280 O.2   260  ASN260     -0.2867
     70  CB        37.1610  -32.8260    8.6770 C.3   260  ASN260      0.1155
     71  CG        37.5070  -31.5000    9.3150 C.2   260  ASN260      0.2627
     72  OD1       36.7950  -30.5150    9.1340 O.2   260  ASN260     -0.2716
     73  ND2       38.6000  -31.4650   10.0640 N.am  260  ASN260     -0.0877
     74  N         33.2610  -32.7990    4.4210 N.3   263  ILE263     -0.1245
     75  CA        33.8560  -31.9420    3.4000 C.3   263  ILE263      0.1561
     76  C         34.5470  -32.8270    2.3580 C.2   263  ILE263      0.2260
     77  O         34.3400  -32.6750    1.1590 O.2   263  ILE263     -0.2867
     78  CB        34.8810  -30.9630    4.0040 C.3   263  ILE263      0.0252
     79  CG1       34.1770  -29.9220    4.8710 C.3   263  ILE263      0.0019
     80  CG2       35.6640  -30.2560    2.9070 C.3   263  ILE263      0.0019
     81  CD1       35.1290  -29.0420    5.6490 C.3   263  ILE263      0.0001
     82  N         39.3120  -30.0740    2.0170 N.3   271  LEU271     -0.1231
     83  CA        39.8580  -29.4700    3.2250 C.3   271  LEU271      0.1693
     84  C         40.9780  -28.5070    2.8520 C.2   271  LEU271      0.2591
     85  O         41.4880  -28.5430    1.7340 O.2   271  LEU271     -0.2718
     86  CB        40.3800  -30.5460    4.1830 C.3   271  LEU271      0.0284
     87  CG        39.3090  -31.4460    4.8150 C.3   271  LEU271      0.0019
     88  CD1       39.9440  -32.6310    5.5250 C.3   271  LEU271      0.0001
     89  CD2       38.4370  -30.6540    5.7750 C.3   271  LEU271      0.0001
     90  N         41.3530  -27.6450    3.7920 N.am  272  VAL272     -0.1980
     91  CA        42.4190  -26.6750    3.5650 C.3   272  VAL272      0.1595
     92  C         43.7640  -27.2340    4.0180 C.2   272  VAL272      0.2287
     93  O         44.3370  -28.1040    3.3610 O.2   272  VAL272     -0.2864
     94  CB        42.1380  -25.3580    4.3130 C.3   272  VAL272      0.0276
     95  CG1       43.3630  -24.4560    4.2910 C.3   272  VAL272      0.0022
     96  CG2       40.9320  -24.6550    3.7060 C.3   272  VAL272      0.0022
@<TRIPOS>BOND
     1    77    76    2
     2    85    84    2
     3    82    83    1
     4    76    75    1
     5    84    83    1
     6    84    90   am
     7    80    78    1
     8    83    86    1
     9    93    92    2
    10    75    78    1
    11    75    74    1
    12    91    90    1
    13    91    92    1
    14    91    94    1
    15    96    94    1
    16    78    79    1
    17    86    87    1
    18    95    94    1
    19    87    88    1
    20    87    89    1
    21    79    81    1
    22    69    68    2
    23    68    67    1
    24    67    70    1
    25    67    66    1
    26    70    71    1
    27    72    71    2
    28    71    73   am
    29    62    61    2
    30    36    35    1
    31    35    33   ar
    32    35    34   ar
    33    61    60    1
    34    33    31   ar
    35    28    27    2
    36    34    32   ar
    37    64    63    1
    38    60    63    1
    39    60    59    1
    40    31    30   ar
    41    27    26    1
    42    32    30   ar
    43    63    65    1
    44    30    29    1
    45    26    29    1
    46    26    25    1
    47    54    53    2
    48    53    52    1
    49    47    46    2
    50    24    23    2
    51    57    55    1
    52    52    55    1
    53    52    51    1
    54    46    51   am
    55    46    45    1
    56    23    22    1
    57    55    56    1
    58    19    18    2
    59    22    21    1
    60    49    48    1
    61    45    48    1
    62    45    44    1
    63    56    58    1
    64    18    21   am
    65    18    17    1
    66    48    50    1
    67    17    20    1
    68    17    16    1
    69    40    39    2
    70    12    11    2
    71    39    38    1
    72    42    41    1
    73    14    13    1
    74    11    10    1
    75    38    41    1
    76    38    37    1
    77    10    13    1
    78    10     9    1
    79    41    43    1
    80    13    15    1
    81     7     6    1
    82     4     3    2
    83     6     8    1
    84     6     5    1
    85     3     2    1
    86     2     5    1
    87     2     1    1
