@<TRIPOS>MOLECULE
tmp/4xtnD09.pdb
 76 68 0 0 0
SMALL
GASTEIGER

@<TRIPOS>ATOM
      1  N          0.8550  -16.5930   35.5080 N.3    28  ILE28      -0.1245
      2  CA         0.3240  -15.8020   34.4190 C.3    28  ILE28       0.1561
      3  C          1.3810  -14.8130   33.9190 C.2    28  ILE28       0.2260
      4  O          1.4770  -14.5390   32.7240 O.2    28  ILE28      -0.2867
      5  CB        -0.9740  -15.0840   34.8360 C.3    28  ILE28       0.0252
      6  CG1       -1.7770  -14.6810   33.6010 C.3    28  ILE28       0.0019
      7  CG2       -0.6830  -13.8790   35.7120 C.3    28  ILE28       0.0019
      8  CD1       -2.3000  -15.8600   32.8100 C.3    28  ILE28       0.0001
      9  N          3.6850  -17.1690   31.7990 N.3    31  LEU31      -0.1245
     10  CA         3.1040  -17.4080   30.5000 C.3    31  LEU31       0.1561
     11  C          3.3770  -16.1930   29.6150 C.2    31  LEU31       0.2260
     12  O          3.8170  -16.3220   28.4730 O.2    31  LEU31      -0.2867
     13  CB         1.6000  -17.6360   30.6220 C.3    31  LEU31       0.0270
     14  CG         0.8400  -17.7010   29.2970 C.3    31  LEU31       0.0019
     15  CD1        1.2880  -18.9140   28.4970 C.3    31  LEU31       0.0001
     16  CD2       -0.6610  -17.7450   29.5260 C.3    31  LEU31       0.0001
     17  N         -9.9480   -6.1220   17.5950 N.3   207  LEU207     -0.1245
     18  CA        -8.8450   -6.5500   18.4560 C.3   207  LEU207      0.1561
     19  C         -8.1710   -5.3530   19.1340 C.2   207  LEU207      0.2260
     20  O         -8.0110   -5.3150   20.3550 O.2   207  LEU207     -0.2867
     21  CB        -7.8160   -7.3110   17.6220 C.3   207  LEU207      0.0270
     22  CG        -6.5210   -7.7000   18.3370 C.3   207  LEU207      0.0019
     23  CD1       -6.7990   -8.7880   19.3560 C.3   207  LEU207      0.0001
     24  CD2       -5.4710   -8.1680   17.3450 C.3   207  LEU207      0.0001
     25  N         -3.9230  -10.9390   35.1780 N.3   241  LEU241     -0.1245
     26  CA        -4.5500  -11.7320   34.1360 C.3   241  LEU241      0.1561
     27  C         -4.9620  -10.8160   32.9890 C.2   241  LEU241      0.2260
     28  O         -4.7280  -11.1240   31.8300 O.2   241  LEU241     -0.2867
     29  CB        -5.7670  -12.4880   34.6750 C.3   241  LEU241      0.0270
     30  CG        -6.6600  -13.1480   33.6200 C.3   241  LEU241      0.0019
     31  CD1       -5.8580  -14.0730   32.7170 C.3   241  LEU241      0.0001
     32  CD2       -7.7910  -13.9080   34.2930 C.3   241  LEU241      0.0001
     33  N         -1.9880   -9.5720   30.9900 N.3   244  THR244     -0.1203
     34  CA        -1.3930  -10.6080   30.1630 C.3   244  THR244      0.1994
     35  C         -2.2570  -10.8940   28.9400 C.2   244  THR244      0.2617
     36  O         -1.7440  -11.1120   27.8490 O.2   244  THR244     -0.2717
     37  CB        -1.1720  -11.9000   30.9570 C.3   244  THR244      0.1784
     38  OG1       -0.2870  -11.6360   32.0460 O.3   244  THR244     -0.2211
     39  CG2       -0.5630  -12.9770   30.0760 C.3   244  THR244      0.0376
     40  N         -3.5700  -10.8980   29.1180 N.am  245  ILE245     -0.1979
     41  CA        -4.4580  -11.0740   27.9860 C.3   245  ILE245      0.1595
     42  C         -4.2650   -9.9140   27.0190 C.2   245  ILE245      0.2287
     43  O         -4.1820  -10.1060   25.8070 O.2   245  ILE245     -0.2864
     44  CB        -5.9290  -11.1330   28.4190 C.3   245  ILE245      0.0276
     45  CG1       -6.2120  -12.4370   29.1620 C.3   245  ILE245      0.0022
     46  CG2       -6.8340  -11.0290   27.2060 C.3   245  ILE245      0.0022
     47  CD1       -7.5510  -12.4470   29.8690 C.3   245  ILE245      0.0001
     48  N         -0.7120  -10.1370   25.1360 N.3   248  VAL248     -0.1231
     49  CA        -0.6870  -11.1260   24.0690 C.3   248  VAL248      0.1692
     50  C         -1.5390  -10.6660   22.8880 C.2   248  VAL248      0.2592
     51  O         -1.1720  -10.8780   21.7230 O.2   248  VAL248     -0.2718
     52  CB        -1.2000  -12.4990   24.5540 C.3   248  VAL248      0.0266
     53  CG1       -1.1860  -13.5120   23.4150 C.3   248  VAL248      0.0020
     54  CG2       -0.3720  -13.0010   25.7250 C.3   248  VAL248      0.0020
     55  N         -2.6810  -10.0500   23.1880 N.am  249  SER249     -0.1952
     56  CA        -3.6050   -9.5850   22.1500 C.3   249  SER249      0.1924
     57  C         -3.0970   -8.3420   21.4170 C.2   249  SER249      0.2314
     58  O         -3.1300   -8.2830   20.1800 O.2   249  SER249     -0.2863
     59  CB        -4.9760   -9.2810   22.7540 C.3   249  SER249      0.2116
     60  OG        -5.5480  -10.4350   23.3260 O.3   249  SER249     -0.2180
     61  N         -1.0580  -11.1500   18.7320 N.3   252  ILE252     -0.1245
     62  CA        -2.1750  -11.3800   17.8250 C.3   252  ILE252      0.1561
     63  C         -2.2800  -10.2490   16.8020 C.2   252  ILE252      0.2260
     64  O         -2.4330  -10.4930   15.6010 O.2   252  ILE252     -0.2867
     65  CB        -3.4980  -11.5450   18.5920 C.3   252  ILE252      0.0252
     66  CG1       -3.3950  -12.7330   19.5510 C.3   252  ILE252      0.0019
     67  CG2       -4.6560  -11.7580   17.6280 C.3   252  ILE252      0.0019
     68  CD1       -4.6720  -13.0160   20.3130 C.3   252  ILE252      0.0001
     69  N         -1.8390  -10.6620   12.7410 N.3   256  LEU256     -0.1245
     70  CA        -2.8890  -10.2540   11.8180 C.3   256  LEU256      0.1561
     71  C         -2.3520   -9.2820   10.7760 C.2   256  LEU256      0.2260
     72  O         -2.7130   -9.3620    9.5960 O.2   256  LEU256     -0.2867
     73  CB        -4.0690   -9.6330   12.5710 C.3   256  LEU256      0.0270
     74  CG        -4.8920  -10.5960   13.4340 C.3   256  LEU256      0.0019
     75  CD1       -6.0690   -9.8760   14.0680 C.3   256  LEU256      0.0001
     76  CD2       -5.3830  -11.7850   12.6280 C.3   256  LEU256      0.0001
@<TRIPOS>BOND
     1    72    71    2
     2    71    70    1
     3    70    73    1
     4    70    69    1
     5    73    74    1
     6    76    74    1
     7    74    75    1
     8    64    63    2
     9    63    62    1
    10    24    22    1
    11    17    18    1
    12    21    22    1
    13    21    18    1
    14    67    65    1
    15    62    65    1
    16    62    61    1
    17    22    23    1
    18    18    19    1
    19    65    66    1
    20    19    20    2
    21    66    68    1
    22    58    57    2
    23    57    56    1
    24    51    50    2
    25    56    59    1
    26    56    55    1
    27    59    60    1
    28    50    55   am
    29    50    49    1
    30    53    52    1
    31    49    52    1
    32    49    48    1
    33    52    54    1
    34    43    42    2
    35    42    41    1
    36    46    44    1
    37    36    35    2
    38    41    44    1
    39    41    40    1
    40    44    45    1
    41    12    11    2
    42    15    14    1
    43    35    40   am
    44    35    34    1
    45    45    47    1
    46    14    16    1
    47    14    13    1
    48    11    10    1
    49    39    37    1
    50    34    37    1
    51    34    33    1
    52    10    13    1
    53    10     9    1
    54    37    38    1
    55    28    27    2
    56    31    30    1
    57     4     3    2
    58     8     6    1
    59    27    26    1
    60     6     5    1
    61    30    32    1
    62    30    29    1
    63     3     2    1
    64    26    29    1
    65    26    25    1
    66     2     5    1
    67     2     1    1
    68     5     7    1
