@<TRIPOS>MOLECULE
tmp/4xtnA00.pdb
 90 87 0 0 0
SMALL
GASTEIGER

@<TRIPOS>ATOM
      1  N         22.7750  -32.5560    8.1620 N.3    57  MET57      -0.1245
      2  CA        22.1300  -33.0880    9.3480 C.3    57  MET57       0.1570
      3  C         23.1600  -33.3740   10.4380 C.2    57  MET57       0.2261
      4  O         22.8850  -33.1830   11.6220 O.2    57  MET57      -0.2867
      5  CB        21.3530  -34.3540    9.0190 C.3    57  MET57       0.0387
      6  CG        20.5470  -34.9000   10.1900 C.3    57  MET57       0.0595
      7  SD        19.3600  -33.7240   10.8850 S.3    57  MET57      -0.1393
      8  CE        18.4110  -33.2770    9.4310 C.3    57  MET57       0.0692
      9  N         22.9830  -32.0410   14.2390 N.3    61  LEU61      -0.1245
     10  CA        22.9700  -32.8860   15.4260 C.3    61  LEU61       0.1561
     11  C         24.1580  -32.5980   16.3430 C.2    61  LEU61       0.2260
     12  O         24.0710  -32.8020   17.5540 O.2    61  LEU61      -0.2867
     13  CB        22.9630  -34.3600   15.0350 C.3    61  LEU61       0.0270
     14  CG        21.7400  -34.8380   14.2620 C.3    61  LEU61       0.0019
     15  CD1       21.9280  -36.3000   13.8930 C.3    61  LEU61       0.0001
     16  CD2       20.4660  -34.6370   15.0700 C.3    61  LEU61       0.0001
     17  N         22.8550  -29.6820   18.2500 N.3    64  VAL64      -0.1245
     18  CA        21.9190  -30.1940   19.2240 C.3    64  VAL64       0.1561
     19  C         22.6660  -30.6770   20.4550 C.2    64  VAL64       0.2260
     20  O         22.2860  -30.3600   21.5790 O.2    64  VAL64      -0.2867
     21  CB        21.0750  -31.3460   18.6490 C.3    64  VAL64       0.0252
     22  CG1       20.4680  -32.1750   19.7650 C.3    64  VAL64       0.0019
     23  CG2       19.9780  -30.7970   17.7550 C.3    64  VAL64       0.0019
     24  N         21.0980  -39.1880   27.6860 N.3   112  LEU112     -0.1231
     25  CA        19.9810  -39.7140   26.9090 C.3   112  LEU112      0.1693
     26  C         19.7500  -38.8620   25.6790 C.2   112  LEU112      0.2591
     27  O         19.1060  -39.3000   24.7340 O.2   112  LEU112     -0.2718
     28  CB        18.7020  -39.7810   27.7400 C.3   112  LEU112      0.0284
     29  CG        18.7100  -40.8240   28.8530 C.3   112  LEU112      0.0019
     30  CD1       17.4340  -40.7190   29.6680 C.3   112  LEU112      0.0001
     31  CD2       18.8730  -42.2190   28.2700 C.3   112  LEU112      0.0001
     32  N         20.2700  -37.6390   25.6940 N.am  113  ILE113     -0.1980
     33  CA        20.2840  -36.8080   24.5000 C.3   113  ILE113      0.1595
     34  C         21.5760  -37.0730   23.7380 C.2   113  ILE113      0.2287
     35  O         21.5650  -37.4890   22.5780 O.2   113  ILE113     -0.2864
     36  CB        20.2350  -35.3100   24.8510 C.3   113  ILE113      0.0276
     37  CG1       18.9710  -34.9800   25.6360 C.3   113  ILE113      0.0022
     38  CG2       20.2980  -34.4580   23.5950 C.3   113  ILE113      0.0022
     39  CD1       18.9600  -33.5660   26.1740 C.3   113  ILE113      0.0001
     40  N         22.5550  -40.9690   22.1050 N.3   116  PRO116     -0.2102
     41  CA        21.7900  -41.3140   20.9130 C.3   116  PRO116      0.1504
     42  C         22.1090  -40.4360   19.7010 C.2   116  PRO116      0.2575
     43  O         22.1350  -40.9280   18.5720 O.2   116  PRO116     -0.2718
     44  CB        20.3470  -41.1120   21.3640 C.3   116  PRO116      0.0282
     45  CG        20.3850  -41.3910   22.8260 C.3   116  PRO116      0.0208
     46  CD        21.6900  -40.8110   23.2860 C.3   116  PRO116      0.0893
     47  N         22.3520  -39.1510   19.9280 N.am  117  MET117     -0.1980
     48  CA        22.5890  -38.2260   18.8270 C.3   117  MET117      0.1605
     49  C         23.9840  -38.3890   18.2270 C.2   117  MET117      0.2287
     50  O         24.1540  -38.3140   17.0050 O.2   117  MET117     -0.2864
     51  CB        22.4080  -36.7880   19.2930 C.3   117  MET117      0.0413
     52  CG        20.9810  -36.4100   19.6510 C.3   117  MET117      0.0598
     53  SD        19.7790  -36.7490   18.3550 S.3   117  MET117     -0.1393
     54  CE        19.1290  -38.3260   18.9000 C.3   117  MET117      0.0692
     55  N         23.9730  -41.4700   16.2510 N.3   120  PHE120     -0.1241
     56  CA        23.0940  -41.3120   15.1050 C.3   120  PHE120      0.1605
     57  C         23.7530  -40.5060   13.9880 C.2   120  PHE120      0.2264
     58  O         23.6220  -40.8400   12.8110 O.2   120  PHE120     -0.2867
     59  CB        21.8100  -40.6140   15.5650 C.3   120  PHE120      0.0534
     60  CG        20.6880  -40.6570   14.5710 C.ar  120  PHE120     -0.0203
     61  CD1       20.5640  -41.7070   13.6810 C.ar  120  PHE120     -0.0042
     62  CD2       19.7260  -39.6560   14.5610 C.ar  120  PHE120     -0.0042
     63  CE1       19.5170  -41.7440   12.7780 C.ar  120  PHE120     -0.0003
     64  CE2       18.6770  -39.6880   13.6660 C.ar  120  PHE120     -0.0003
     65  CZ        18.5710  -40.7360   12.7730 C.ar  120  PHE120     -0.0000
     66  N         24.6110  -40.1350    8.9980 N.3   124  PHE124     -0.1241
     67  CA        24.2760  -39.1530    7.9700 C.3   124  PHE124      0.1605
     68  C         25.5070  -38.7240    7.1850 C.2   124  PHE124      0.2264
     69  O         25.4100  -37.8850    6.2950 O.2   124  PHE124     -0.2867
     70  CB        23.6010  -37.9240    8.5930 C.3   124  PHE124      0.0534
     71  CG        22.2000  -38.1880    9.0580 C.ar  124  PHE124     -0.0203
     72  CD1       21.1350  -38.0890    8.1780 C.ar  124  PHE124     -0.0042
     73  CD2       21.9530  -38.5740   10.3600 C.ar  124  PHE124     -0.0042
     74  CE1       19.8450  -38.3580    8.5960 C.ar  124  PHE124     -0.0003
     75  CE2       20.6700  -38.8470   10.7850 C.ar  124  PHE124     -0.0003
     76  CZ        19.6140  -38.7390    9.9020 C.ar  124  PHE124     -0.0000
     77  N         20.4670  -46.8300   19.8680 N.3   141  TRP141     -0.1241
     78  CA        19.5960  -46.1420   20.8070 C.3   141  TRP141      0.1605
     79  C         19.1630  -47.0290   21.9600 C.2   141  TRP141      0.2264
     80  O         19.0910  -46.5690   23.0990 O.2   141  TRP141     -0.2867
     81  CB        18.3730  -45.5750   20.0920 C.3   141  TRP141      0.0550
     82  CG        18.7030  -44.4320   19.2060 C.ar  141  TRP141      0.0003
     83  CD1       19.9100  -43.8190   19.0850 C.ar  141  TRP141      0.0946
     84  CD2       17.8060  -43.7330   18.3380 C.ar  141  TRP141      0.0152
     85  NE1       19.8300  -42.7900   18.1800 N.ar  141  TRP141     -0.2442
     86  CE2       18.5470  -42.7130   17.7090 C.ar  141  TRP141      0.0810
     87  CE3       16.4470  -43.8700   18.0300 C.ar  141  TRP141      0.0012
     88  CZ2       17.9780  -41.8370   16.7810 C.ar  141  TRP141      0.0191
     89  CZ3       15.8830  -43.0030   17.1100 C.ar  141  TRP141      0.0001
     90  CH2       16.6470  -41.9970   16.4970 C.ar  141  TRP141      0.0015
@<TRIPOS>BOND
     1    69    68    2
     2    68    67    1
     3    67    70    1
     4    67    66    1
     5     1     2    1
     6    72    74   ar
     7    72    71   ar
     8    70    71    1
     9    74    76   ar
    10     5     2    1
    11     5     6    1
    12    71    73   ar
    13     2     3    1
    14     8     7    1
    15    76    75   ar
    16     6     7    1
    17    73    75   ar
    18     3     4    2
    19    65    63   ar
    20    65    64   ar
    21    63    61   ar
    22    58    57    2
    23    64    62   ar
    24    61    60   ar
    25    15    14    1
    26    57    56    1
    27     9    10    1
    28    14    13    1
    29    14    16    1
    30    62    60   ar
    31    60    59    1
    32    13    10    1
    33    56    59    1
    34    56    55    1
    35    10    11    1
    36    11    12    2
    37    90    88   ar
    38    90    89   ar
    39    88    86   ar
    40    50    49    2
    41    89    87   ar
    42    86    85   ar
    43    86    84   ar
    44    23    21    1
    45    87    84   ar
    46    85    83   ar
    47    49    48    1
    48    17    18    1
    49    84    82   ar
    50    53    54    1
    51    53    52    1
    52    43    42    2
    53    21    18    1
    54    21    22    1
    55    48    51    1
    56    48    47    1
    57    83    82   ar
    58    82    81    1
    59    18    19    1
    60    51    52    1
    61    42    47   am
    62    42    41    1
    63    77    78    1
    64    81    78    1
    65    19    20    2
    66    78    79    1
    67    41    44    1
    68    41    40    1
    69    44    45    1
    70    79    80    2
    71    40    46    1
    72    35    34    2
    73    45    46    1
    74    38    36    1
    75    34    33    1
    76    33    36    1
    77    33    32    1
    78    27    26    2
    79    36    37    1
    80    37    39    1
    81    26    32   am
    82    26    25    1
    83    25    24    1
    84    25    28    1
    85    28    29    1
    86    31    29    1
    87    29    30    1
