@<TRIPOS>MOLECULE
tmp/4xtnH08.pdb
 91 82 0 0 0
SMALL
GASTEIGER

@<TRIPOS>ATOM
      1  N        -10.3620  -25.8870  108.5070 N.3   204  ASN204     -0.1240
      2  CA        -9.9870  -25.0890  107.3500 C.3   204  ASN204      0.1653
      3  C         -8.8600  -25.7410  106.5550 C.2   204  ASN204      0.2266
      4  O         -8.9430  -25.8590  105.3380 O.2   204  ASN204     -0.2867
      5  CB        -9.5550  -23.6980  107.7950 C.3   204  ASN204      0.1155
      6  CG       -10.7030  -22.8930  108.3560 C.2   204  ASN204      0.2627
      7  OD1      -11.8560  -23.3000  108.2580 O.2   204  ASN204     -0.2716
      8  ND2      -10.3970  -21.7520  108.9530 N.am  204  ASN204     -0.0877
      9  N        -10.0960  -28.6080  104.3980 N.3   207  ILE207     -0.1231
     10  CA       -10.8430  -28.1800  103.2200 C.3   207  ILE207      0.1692
     11  C         -9.8900  -27.5930  102.1800 C.2   207  ILE207      0.2591
     12  O         -9.9860  -27.9030  100.9930 O.2   207  ILE207     -0.2718
     13  CB       -11.9270  -27.1480  103.5810 C.3   207  ILE207      0.0266
     14  CG1      -13.0550  -27.8210  104.3620 C.3   207  ILE207      0.0019
     15  CG2      -12.4990  -26.5110  102.3250 C.3   207  ILE207      0.0020
     16  CD1      -14.1380  -26.8630  104.8080 C.3   207  ILE207      0.0001
     17  N         -8.9670  -26.7550  102.6410 N.am  208  LEU208     -0.1980
     18  CA        -7.9340  -26.1900  101.7790 C.3   208  LEU208      0.1596
     19  C         -7.1350  -27.2970  101.1060 C.2   208  LEU208      0.2287
     20  O         -6.8840  -27.2640   99.9040 O.2   208  LEU208     -0.2864
     21  CB        -6.9860  -25.3180  102.5970 C.3   208  LEU208      0.0297
     22  CG        -5.8400  -24.7010  101.7910 C.3   208  LEU208      0.0022
     23  CD1       -6.3650  -23.5650  100.9370 C.3   208  LEU208      0.0001
     24  CD2       -4.7290  -24.2060  102.7000 C.3   208  LEU208      0.0001
     25  N         -9.3640  -29.2830   98.4540 N.3   211  ILE211     -0.1231
     26  CA        -9.6470  -28.5480   97.2390 C.3   211  ILE211      0.1692
     27  C         -8.3700  -28.3240   96.4270 C.2   211  ILE211      0.2592
     28  O         -8.3110  -28.6970   95.2500 O.2   211  ILE211     -0.2718
     29  CB       -10.3150  -27.2020   97.5330 C.3   211  ILE211      0.0266
     30  CG1      -11.6730  -27.4220   98.2050 C.3   211  ILE211      0.0019
     31  CG2      -10.4900  -26.4140   96.2450 C.3   211  ILE211      0.0020
     32  CD1      -12.2840  -26.1520   98.7560 C.3   211  ILE211      0.0001
     33  N         -7.3450  -27.7400   97.0520 N.am  212  SER212     -0.1952
     34  CA        -6.1180  -27.3830   96.3240 C.3   212  SER212      0.1924
     35  C         -5.4340  -28.6080   95.7130 C.2   212  SER212      0.2314
     36  O         -4.9760  -28.5660   94.5730 O.2   212  SER212     -0.2863
     37  CB        -5.1420  -26.5970   97.2080 C.3   212  SER212      0.2116
     38  OG        -4.6060  -27.3770   98.2570 O.3   212  SER212     -0.2180
     39  N         -7.1440  -29.8920   92.5280 N.3   215  LEU215     -0.1245
     40  CA        -6.9410  -29.0660   91.3450 C.3   215  LEU215      0.1561
     41  C         -5.8780  -29.6540   90.4240 C.2   215  LEU215      0.2260
     42  O         -5.9530  -29.4880   89.2050 O.2   215  LEU215     -0.2867
     43  CB        -6.5260  -27.6570   91.7400 C.3   215  LEU215      0.0270
     44  CG        -7.5920  -26.8160   92.4280 C.3   215  LEU215      0.0019
     45  CD1       -7.0240  -25.4460   92.7500 C.3   215  LEU215      0.0001
     46  CD2       -8.8340  -26.7080   91.5560 C.3   215  LEU215      0.0001
     47  N         -3.5370  -21.2810   85.1050 N.3   242  LEU242     -0.1231
     48  CA        -4.2280  -20.5870   86.1930 C.3   242  LEU242      0.1693
     49  C         -4.5250  -21.5500   87.3390 C.2   242  LEU242      0.2591
     50  O         -4.3040  -21.2300   88.5040 O.2   242  LEU242     -0.2718
     51  CB        -5.5370  -19.9730   85.6980 C.3   242  LEU242      0.0284
     52  CG        -6.4590  -19.4180   86.7880 C.3   242  LEU242      0.0019
     53  CD1       -5.8200  -18.2360   87.4880 C.3   242  LEU242      0.0001
     54  CD2       -7.7850  -18.9980   86.1870 C.3   242  LEU242      0.0001
     55  N         -5.0270  -22.7330   87.0050 N.am  243  VAL243     -0.1980
     56  CA        -5.3520  -23.7350   88.0160 C.3   243  VAL243      0.1595
     57  C         -4.1040  -24.1690   88.7910 C.2   243  VAL243      0.2287
     58  O         -4.1370  -24.2610   90.0150 O.2   243  VAL243     -0.2864
     59  CB        -6.0530  -24.9580   87.3870 C.3   243  VAL243      0.0276
     60  CG1       -6.1230  -26.1090   88.3640 C.3   243  VAL243      0.0022
     61  CG2       -7.4530  -24.5850   86.9380 C.3   243  VAL243      0.0022
     62  N         -3.0970  -21.2490   91.1950 N.3   246  ILE246     -0.1245
     63  CA        -3.9990  -21.2060   92.3290 C.3   246  ILE246      0.1561
     64  C         -3.6900  -22.3820   93.2740 C.2   246  ILE246      0.2260
     65  O         -3.6100  -22.2040   94.4880 O.2   246  ILE246     -0.2867
     66  CB        -5.4690  -21.2640   91.8700 C.3   246  ILE246      0.0252
     67  CG1       -5.8660  -19.9450   91.2040 C.3   246  ILE246      0.0019
     68  CG2       -6.3940  -21.5500   93.0450 C.3   246  ILE246      0.0019
     69  CD1       -7.1350  -20.0440   90.3830 C.3   246  ILE246      0.0001
     70  N         -2.1830  -22.0780   97.0400 N.3   250  SER250     -0.1217
     71  CA        -3.0400  -22.5930   98.1020 C.3   250  SER250      0.1889
     72  C         -2.4050  -23.7330   98.8720 C.2   250  SER250      0.2288
     73  O         -2.4090  -23.7310  100.1030 O.2   250  SER250     -0.2866
     74  CB        -4.3610  -23.0800   97.5180 C.3   250  SER250      0.2089
     75  OG        -5.0170  -22.0210   96.8600 O.3   250  SER250     -0.2183
     76  N         -0.6820  -20.7960  101.5330 N.3   253  ILE253     -0.1245
     77  CA        -1.8060  -20.6650  102.4540 C.3   253  ILE253      0.1561
     78  C         -1.7880  -21.8090  103.4650 C.2   253  ILE253      0.2260
     79  O         -1.9440  -21.5930  104.6650 O.2   253  ILE253     -0.2867
     80  CB        -3.1580  -20.6100  101.7100 C.3   253  ILE253      0.0252
     81  CG1       -3.2200  -19.3610  100.8250 C.3   253  ILE253      0.0019
     82  CG2       -4.3080  -20.5830  102.7040 C.3   253  ILE253      0.0019
     83  CD1       -4.4810  -19.2580   99.9910 C.3   253  ILE253      0.0001
     84  N         -1.5240  -21.2930  107.5810 N.3   257  LEU257     -0.1245
     85  CA        -2.4890  -21.8400  108.5320 C.3   257  LEU257      0.1561
     86  C         -1.7960  -22.7220  109.5700 C.2   257  LEU257      0.2260
     87  O         -2.0300  -22.5760  110.7620 O.2   257  LEU257     -0.2867
     88  CB        -3.5830  -22.6220  107.8010 C.3   257  LEU257      0.0270
     89  CG        -4.4720  -21.8110  106.8480 C.3   257  LEU257      0.0019
     90  CD1       -5.5260  -22.6990  106.2100 C.3   257  LEU257      0.0001
     91  CD2       -5.1350  -20.6400  107.5480 C.3   257  LEU257      0.0001
@<TRIPOS>BOND
     1    47    48    1
     2    51    48    1
     3    51    52    1
     4    54    52    1
     5    48    49    1
     6    52    53    1
     7    61    59    1
     8    55    49   am
     9    55    56    1
    10    49    50    2
    11    59    56    1
    12    59    60    1
    13    56    57    1
    14    57    58    2
    15    42    41    2
    16    69    67    1
    17    41    40    1
    18    62    63    1
    19    67    66    1
    20    40    43    1
    21    40    39    1
    22    46    44    1
    23    43    44    1
    24    66    63    1
    25    66    68    1
    26    63    64    1
    27    44    45    1
    28    64    65    2
    29    36    35    2
    30    28    27    2
    31    35    34    1
    32    31    29    1
    33    34    33    1
    34    34    37    1
    35    27    33   am
    36    27    26    1
    37    75    74    1
    38    70    71    1
    39    37    38    1
    40    26    29    1
    41    26    25    1
    42    74    71    1
    43    29    30    1
    44    71    72    1
    45    30    32    1
    46    72    73    2
    47    20    19    2
    48    83    81    1
    49    81    80    1
    50    23    22    1
    51    12    11    2
    52    19    18    1
    53    76    77    1
    54    80    77    1
    55    80    82    1
    56    18    21    1
    57    18    17    1
    58    22    21    1
    59    22    24    1
    60    11    17   am
    61    11    10    1
    62    15    13    1
    63    77    78    1
    64    10    13    1
    65    10     9    1
    66    78    79    2
    67    13    14    1
    68    14    16    1
    69     4     3    2
    70    90    89    1
    71     3     2    1
    72    89    91    1
    73    89    88    1
    74     2     5    1
    75     2     1    1
    76    84    85    1
    77     5     6    1
    78    88    85    1
    79     7     6    2
    80     6     8   am
    81    85    86    1
    82    86    87    2
