@<TRIPOS>MOLECULE
tmp/4xtnH09.pdb
 82 77 0 0 0
SMALL
GASTEIGER

@<TRIPOS>ATOM
      1  N         -3.2540  -16.0860   70.8710 N.3    19  SER19      -0.1217
      2  CA        -3.5640  -14.6570   70.8380 C.3    19  SER19       0.1889
      3  C         -2.7130  -13.9110   71.8570 C.2    19  SER19       0.2288
      4  O         -2.0850  -14.5220   72.7240 O.2    19  SER19      -0.2866
      5  CB        -5.0310  -14.4320   71.1730 C.3    19  SER19       0.2089
      6  OG        -5.3030  -14.8350   72.5060 O.3    19  SER19      -0.2183
      7  N         -3.7050  -12.0970   74.3350 N.3    21  ILE21      -0.1245
      8  CA        -4.2340  -12.2730   75.6780 C.3    21  ILE21       0.1561
      9  C         -3.8270  -13.6300   76.2520 C.2    21  ILE21       0.2260
     10  O         -3.3720  -13.7240   77.3880 O.2    21  ILE21      -0.2867
     11  CB        -5.7680  -12.1120   75.7020 C.3    21  ILE21       0.0252
     12  CG1       -6.1310  -10.6390   75.5070 C.3    21  ILE21       0.0019
     13  CG2       -6.3320  -12.6240   77.0170 C.3    21  ILE21       0.0019
     14  CD1       -7.6160  -10.3390   75.5510 C.3    21  ILE21       0.0001
     15  N         -1.3260  -13.5340   79.4280 N.3    25  PHE25      -0.1241
     16  CA        -1.8850  -14.0330   80.6660 C.3    25  PHE25       0.1605
     17  C         -1.0670  -15.1990   81.2220 C.2    25  PHE25       0.2264
     18  O         -0.7390  -15.2210   82.4040 O.2    25  PHE25      -0.2867
     19  CB        -3.3240  -14.4940   80.4790 C.3    25  PHE25       0.0534
     20  CG        -3.8880  -15.1390   81.7030 C.ar   25  PHE25      -0.0203
     21  CD1       -4.2030  -14.3720   82.8140 C.ar   25  PHE25      -0.0042
     22  CD2       -4.0530  -16.5090   81.7660 C.ar   25  PHE25      -0.0042
     23  CE1       -4.7030  -14.9570   83.9560 C.ar   25  PHE25      -0.0003
     24  CE2       -4.5430  -17.1020   82.9070 C.ar   25  PHE25      -0.0003
     25  CZ        -4.8730  -16.3250   84.0020 C.ar   25  PHE25      -0.0000
     26  N        -14.2420  -26.8860   74.1060 N.3   230  PHE230     -0.1227
     27  CA       -13.8860  -25.4900   74.2870 C.3   230  PHE230      0.1736
     28  C        -12.5360  -25.3550   75.0050 C.2   230  PHE230      0.2595
     29  O        -11.7940  -24.3990   74.7800 O.2   230  PHE230     -0.2718
     30  CB       -15.0160  -24.8000   75.0640 C.3   230  PHE230      0.0547
     31  CG       -14.5790  -23.6510   75.9160 C.ar  230  PHE230     -0.0202
     32  CD1      -14.3470  -22.4040   75.3590 C.ar  230  PHE230     -0.0042
     33  CD2      -14.4460  -23.8060   77.2860 C.ar  230  PHE230     -0.0042
     34  CE1      -13.9620  -21.3350   76.1500 C.ar  230  PHE230     -0.0003
     35  CE2      -14.0590  -22.7450   78.0840 C.ar  230  PHE230     -0.0003
     36  CZ       -13.8170  -21.5060   77.5150 C.ar  230  PHE230     -0.0000
     37  N        -12.2200  -26.3240   75.8580 N.am  231  LEU231     -0.1980
     38  CA       -10.9600  -26.3150   76.5950 C.3   231  LEU231      0.1596
     39  C         -9.7890  -26.8780   75.7870 C.2   231  LEU231      0.2287
     40  O         -8.6340  -26.6960   76.1750 O.2   231  LEU231     -0.2864
     41  CB       -11.1030  -27.0900   77.9070 C.3   231  LEU231      0.0297
     42  CG       -11.9420  -26.3720   78.9590 C.3   231  LEU231      0.0022
     43  CD1      -12.1480  -27.2520   80.1760 C.3   231  LEU231      0.0001
     44  CD2      -11.2860  -25.0600   79.3450 C.3   231  LEU231      0.0001
     45  N         -6.4720  -22.5290   73.2410 N.3   234  GLU234     -0.1231
     46  CA        -5.6690  -21.6240   74.0500 C.3   234  GLU234      0.1699
     47  C         -6.3390  -21.3420   75.3910 C.2   234  GLU234      0.2592
     48  O         -5.6660  -21.0540   76.3760 O.2   234  GLU234     -0.2718
     49  CB        -5.3670  -20.3190   73.3010 C.3   234  GLU234      0.0402
     50  CG        -6.5750  -19.4910   72.9050 C.3   234  GLU234      0.1161
     51  CD        -6.1800  -18.2040   72.1960 C.2   234  GLU234      0.3649
     52  OE1       -5.0850  -18.1530   71.6010 O.co2 234  GLU234     -0.2457
     53  OE2       -6.9520  -17.2300   72.2350 O.co2 234  GLU234     -0.2457
     54  N         -7.6630  -21.4410   75.4350 N.am  235  ASP235     -0.1974
     55  CA        -8.4040  -21.1820   76.6740 C.3   235  ASP235      0.1709
     56  C         -8.1130  -22.2490   77.7250 C.2   235  ASP235      0.2293
     57  O         -8.0500  -21.9540   78.9140 O.2   235  ASP235     -0.2864
     58  CB        -9.9110  -21.1280   76.4010 C.3   235  ASP235      0.1436
     59  CG       -10.2980  -19.9790   75.4910 C.2   235  ASP235      0.3671
     60  OD1       -9.6230  -18.9300   75.5300 O.co2 235  ASP235     -0.2456
     61  OD2      -11.2770  -20.1280   74.7330 O.co2 235  ASP235     -0.2456
     62  N         -4.5980  -21.5630   79.0290 N.3   238  MET238     -0.1230
     63  CA        -4.7050  -20.5560   80.0690 C.3   238  MET238      0.1702
     64  C         -5.2470  -21.1780   81.3520 C.2   238  MET238      0.2592
     65  O         -4.6760  -20.9940   82.4270 O.2   238  MET238     -0.2718
     66  CB        -5.6350  -19.4290   79.6290 C.3   238  MET238      0.0401
     67  CG        -5.1190  -18.6030   78.4670 C.3   238  MET238      0.0596
     68  SD        -6.4150  -17.5410   77.8180 S.3   238  MET238     -0.1393
     69  CE        -6.5290  -16.3200   79.1080 C.3   238  MET238      0.0692
     70  N         -6.3570  -21.9040   81.2360 N.am  239  ALA239     -0.1980
     71  CA        -7.0250  -22.4690   82.4060 C.3   239  ALA239      0.1597
     72  C         -6.0920  -23.3940   83.1760 C.2   239  ALA239      0.2287
     73  O         -6.0480  -23.3660   84.4020 O.2   239  ALA239     -0.2864
     74  CB        -8.2860  -23.2160   81.9890 C.3   239  ALA239      0.0319
     75  N         -3.5370  -21.2810   85.1050 N.3   242  LEU242     -0.1245
     76  CA        -4.2280  -20.5870   86.1930 C.3   242  LEU242      0.1561
     77  C         -4.5250  -21.5500   87.3390 C.2   242  LEU242      0.2260
     78  O         -4.3040  -21.2300   88.5040 O.2   242  LEU242     -0.2867
     79  CB        -5.5370  -19.9730   85.6980 C.3   242  LEU242      0.0270
     80  CG        -6.4590  -19.4180   86.7880 C.3   242  LEU242      0.0019
     81  CD1       -5.8200  -18.2360   87.4880 C.3   242  LEU242      0.0001
     82  CD2       -7.7850  -18.9980   86.1870 C.3   242  LEU242      0.0001
@<TRIPOS>BOND
     1     2     1    1
     2     2     5    1
     3     2     3    1
     4     5     6    1
     5    52    51   ar
     6     3     4    2
     7    51    53   ar
     8    51    50    1
     9    50    49    1
    10    45    46    1
    11    49    46    1
    12    46    47    1
    13    26    27    1
    14    27    28    1
    15    27    30    1
    16     7     8    1
    17    61    59   ar
    18    29    28    2
    19    28    37   am
    20    30    31    1
    21    32    31   ar
    22    32    34   ar
    23    47    54   am
    24    47    48    2
    25    54    55    1
    26    59    60   ar
    27    59    58    1
    28    12    14    1
    29    12    11    1
    30     8    11    1
    31     8     9    1
    32    11    13    1
    33    39    40    2
    34    39    38    1
    35    37    38    1
    36    31    33   ar
    37    34    36   ar
    38     9    10    2
    39    58    55    1
    40    38    41    1
    41    55    56    1
    42    33    35   ar
    43    36    35   ar
    44    56    57    2
    45    68    67    1
    46    68    69    1
    47    41    42    1
    48    67    66    1
    49    42    44    1
    50    42    43    1
    51    62    63    1
    52    15    16    1
    53    66    63    1
    54    63    64    1
    55    19    16    1
    56    19    20    1
    57    16    17    1
    58    17    18    2
    59    70    64   am
    60    70    71    1
    61    64    65    2
    62    20    22   ar
    63    20    21   ar
    64    22    24   ar
    65    74    71    1
    66    71    72    1
    67    21    23   ar
    68    24    25   ar
    69    72    73    2
    70    23    25   ar
    71    75    76    1
    72    79    76    1
    73    79    80    1
    74    82    80    1
    75    76    77    1
    76    80    81    1
    77    77    78    2
