@<TRIPOS>MOLECULE
tmp/4xtrB01.pdb
 143 137 0 0 0
SMALL
GASTEIGER

@<TRIPOS>ATOM
      1  N         32.2760  -19.7820  -20.2490 N.3    24  GLY24      -0.1210
      2  CA        32.1130  -18.5440  -20.9850 C.3    24  GLY24       0.1956
      3  C         31.6420  -18.7500  -22.4140 C.2    24  GLY24       0.2612
      4  O         32.1320  -19.6320  -23.1180 O.2    24  GLY24      -0.2717
      5  N         30.6800  -17.9340  -22.8390 N.am   25  GLY25      -0.1942
      6  CA        30.2330  -17.9260  -24.2220 C.3    25  GLY25       0.2014
      7  C         29.4130  -19.1230  -24.6860 C.2    25  GLY25       0.2639
      8  O         29.1750  -19.2790  -25.8850 O.2    25  GLY25      -0.2714
      9  N         28.9730  -19.9700  -23.7610 N.am   26  VAL26      -0.1963
     10  CA        28.2160  -21.1640  -24.1430 C.3    26  VAL26       0.1727
     11  C         26.7430  -20.8460  -24.3990 C.2    26  VAL26       0.2617
     12  O         26.0860  -21.5380  -25.1780 O.2    26  VAL26      -0.2715
     13  CB        28.3120  -22.2740  -23.0720 C.3    26  VAL26       0.0290
     14  CG1       29.7570  -22.7220  -22.9020 C.3    26  VAL26       0.0023
     15  CG2       27.7250  -21.8070  -21.7470 C.3    26  VAL26       0.0023
     16  N         26.2310  -19.8030  -23.7490 N.am   27  GLY27      -0.1940
     17  CA        24.8680  -19.3540  -23.9790 C.3    27  GLY27       0.2014
     18  C         24.0580  -19.1320  -22.7170 C.2    27  GLY27       0.2639
     19  O         22.8320  -19.2800  -22.7320 O.2    27  GLY27      -0.2714
     20  N         24.7340  -18.7690  -21.6300 N.am   28  LYS28      -0.1963
     21  CA        24.0630  -18.4610  -20.3690 C.3    28  LYS28       0.1728
     22  C         23.0180  -17.3620  -20.5330 C.2    28  LYS28       0.2617
     23  O         21.8630  -17.5230  -20.1380 O.2    28  LYS28      -0.2715
     24  CB        25.0800  -18.0320  -19.3090 C.3    28  LYS28       0.0311
     25  CG        26.0230  -19.1250  -18.8480 C.3    28  LYS28       0.0038
     26  CD        26.9360  -18.6270  -17.7300 C.3    28  LYS28       0.0206
     27  CE        27.8850  -17.5310  -18.2030 C.3    28  LYS28       0.1093
     28  NZ        28.7390  -17.9820  -19.3370 N.3    28  LYS28      -0.1314
     29  N         23.4370  -16.2420  -21.1130 N.am   29  THR29      -0.1937
     30  CA        22.5700  -15.0810  -21.2640 C.3    29  THR29       0.2028
     31  C         21.3870  -15.3890  -22.1720 C.2    29  THR29       0.2642
     32  O         20.2450  -15.0660  -21.8490 O.2    29  THR29      -0.2714
     33  CB        23.3490  -13.8820  -21.8310 C.3    29  THR29       0.1808
     34  OG1       24.3640  -13.4940  -20.8990 O.3    29  THR29      -0.2208
     35  CG2       22.4220  -12.6960  -22.0910 C.3    29  THR29       0.0379
     36  N         21.6720  -16.0040  -23.3140 N.am   30  THR30      -0.1950
     37  CA        20.6310  -16.4090  -24.2500 C.3    30  THR30       0.1897
     38  C         19.6620  -17.3880  -23.5890 C.2    30  THR30       0.2313
     39  O         18.4450  -17.2740  -23.7530 O.2    30  THR30      -0.2863
     40  CB        21.2300  -17.0630  -25.5160 C.3    30  THR30       0.1794
     41  OG1       22.2000  -16.1840  -26.1010 O.3    30  THR30      -0.2208
     42  CG2       20.1400  -17.3630  -26.5420 C.3    30  THR30       0.0378
     43  N         26.7030  -11.3030  -13.7490 N.3    54  ASN54      -0.1240
     44  CA        27.9030  -11.0990  -14.5510 C.3    54  ASN54       0.1653
     45  C         28.2000   -9.6010  -14.6290 C.2    54  ASN54       0.2266
     46  O         27.3890   -8.8490  -15.1690 O.2    54  ASN54      -0.2867
     47  CB        27.7210  -11.6810  -15.9550 C.3    54  ASN54       0.1155
     48  CG        29.0180  -11.7140  -16.7520 C.2    54  ASN54       0.2627
     49  OD1       30.0150  -11.0950  -16.3750 O.2    54  ASN54      -0.2716
     50  ND2       29.0030  -12.4350  -17.8690 N.am   54  ASN54      -0.0877
     51  N         24.9680   -8.2810  -20.1270 N.3    58  ASN58      -0.1240
     52  CA        24.5420   -8.4850  -21.5100 C.3    58  ASN58       0.1653
     53  C         23.0250   -8.5880  -21.6770 C.2    58  ASN58       0.2266
     54  O         22.5400   -8.8480  -22.7780 O.2    58  ASN58      -0.2867
     55  CB        25.2010   -9.7460  -22.0790 C.3    58  ASN58       0.1155
     56  CG        26.6320   -9.5070  -22.5200 C.2    58  ASN58       0.2627
     57  OD1       27.5510  -10.1980  -22.0830 O.2    58  ASN58      -0.2716
     58  ND2       26.8280   -8.5240  -23.3950 N.am   58  ASN58      -0.0877
     59  N         21.1970  -14.7690  -14.4180 N.3   144  ASP144     -0.1239
     60  CA        22.1170  -14.8660  -15.5410 C.3   144  ASP144      0.1674
     61  C         23.5250  -14.6650  -15.0010 C.2   144  ASP144      0.2266
     62  O         23.9750  -13.5330  -14.8250 O.2   144  ASP144     -0.2867
     63  CB        21.7930  -13.8250  -16.6110 C.3   144  ASP144      0.1410
     64  CG        22.7740  -13.8530  -17.7660 C.2   144  ASP144      0.3668
     65  OD1       23.0280  -12.7870  -18.3650 O.co2 144  ASP144     -0.2456
     66  OD2       23.2910  -14.9450  -18.0750 O.co2 144  ASP144     -0.2456
     67  N         30.5420  -16.5310  -15.6660 N.3   147  PRO147     -0.2116
     68  CA        31.1340  -17.8460  -15.9220 C.3   147  PRO147      0.1372
     69  C         31.5040  -18.6030  -14.6500 C.2   147  PRO147      0.2244
     70  O         31.9600  -17.9910  -13.6840 O.2   147  PRO147     -0.2868
     71  CB        32.3960  -17.5150  -16.7260 C.3   147  PRO147      0.0268
     72  CG        32.2020  -16.1230  -17.2470 C.3   147  PRO147      0.0207
     73  CD        30.9610  -15.5390  -16.6680 C.3   147  PRO147      0.0892
     74  N         24.0300  -26.4250  -26.1790 N.3   235  ASN235     -0.1225
     75  CA        23.6830  -25.3450  -27.0940 C.3   235  ASN235      0.1785
     76  C         24.5440  -25.3470  -28.3560 C.2   235  ASN235      0.2597
     77  O         25.5820  -26.0090  -28.4070 O.2   235  ASN235     -0.2718
     78  CB        23.8230  -24.0100  -26.3580 C.3   235  ASN235      0.1169
     79  CG        23.1690  -22.8550  -27.0910 C.2   235  ASN235      0.2627
     80  OD1       22.3520  -23.0430  -27.9980 O.2   235  ASN235     -0.2716
     81  ND2       23.5200  -21.6420  -26.6860 N.am  235  ASN235     -0.0877
     82  N         24.0920  -24.6200  -29.3750 N.am  236  GLN236     -0.1979
     83  CA        24.8750  -24.3830  -30.5890 C.3   236  GLN236      0.1601
     84  C         25.1720  -25.6620  -31.3700 C.2   236  GLN236      0.2287
     85  O         26.2330  -25.7910  -31.9820 O.2   236  GLN236     -0.2864
     86  CB        26.1890  -23.6790  -30.2360 C.3   236  GLN236      0.0394
     87  CG        26.0110  -22.4490  -29.3580 C.3   236  GLN236      0.0908
     88  CD        27.3160  -21.7160  -29.1090 C.2   236  GLN236      0.2608
     89  OE1       28.2230  -21.7440  -29.9390 O.2   236  GLN236     -0.2717
     90  NE2       27.4170  -21.0580  -27.9600 N.am  236  GLN236     -0.0878
     91  N         19.5720  -25.8810  -31.1580 N.3   273  PRO273     -0.2102
     92  CA        20.2980  -25.7340  -32.4230 C.3   273  PRO273      0.1504
     93  C         21.0800  -24.4320  -32.5450 C.2   273  PRO273      0.2576
     94  O         20.7200  -23.4300  -31.9280 O.2   273  PRO273     -0.2718
     95  CB        19.1780  -25.7700  -33.4620 C.3   273  PRO273      0.0282
     96  CG        18.0290  -25.1350  -32.7610 C.3   273  PRO273      0.0208
     97  CD        18.1380  -25.5710  -31.3200 C.3   273  PRO273      0.0893
     98  N         22.1410  -24.4610  -33.3450 N.am  274  LEU274     -0.1966
     99  CA        22.8110  -23.2440  -33.7780 C.3   274  LEU274      0.1728
    100  C         21.9630  -22.5790  -34.8580 C.2   274  LEU274      0.2616
    101  O         21.6390  -23.1960  -35.8690 O.2   274  LEU274     -0.2715
    102  CB        24.2140  -23.5480  -34.3100 C.3   274  LEU274      0.0311
    103  CG        25.0470  -22.3380  -34.7410 C.3   274  LEU274      0.0022
    104  CD1       25.4570  -21.5120  -33.5330 C.3   274  LEU274      0.0001
    105  CD2       26.2690  -22.7730  -35.5380 C.3   274  LEU274      0.0001
    106  N         21.6010  -21.3220  -34.6290 N.am  275  CYS275     -0.1968
    107  CA        20.7860  -20.5640  -35.5710 C.3   275  CYS275      0.1712
    108  C         21.6730  -19.7220  -36.4790 C.2   275  CYS275      0.2296
    109  O         22.7800  -19.3370  -36.0980 O.2   275  CYS275     -0.2864
    110  CB        19.7930  -19.6710  -34.8240 C.3   275  CYS275      0.0983
    111  SG        18.6440  -20.5740  -33.7620 S.3   275  CYS275     -0.0798
    112  N         20.6160  -16.7720  -37.8000 N.3   277  GLY277     -0.1210
    113  CA        20.3400  -15.3890  -37.4580 C.3   277  GLY277      0.1956
    114  C         20.7800  -15.0370  -36.0500 C.2   277  GLY277      0.2612
    115  O         21.3340  -15.8710  -35.3320 O.2   277  GLY277     -0.2717
    116  N         20.5220  -13.7940  -35.6570 N.am  278  GLU278     -0.1965
    117  CA        20.9120  -13.2970  -34.3420 C.3   278  GLU278      0.1733
    118  C         19.7820  -13.4570  -33.3360 C.2   278  GLU278      0.2616
    119  O         18.6650  -12.9880  -33.5630 O.2   278  GLU278     -0.2715
    120  CB        21.3260  -11.8270  -34.4320 C.3   278  GLU278      0.0429
    121  CG        22.5310  -11.5890  -35.3220 C.3   278  GLU278      0.1163
    122  CD        22.9240  -10.1310  -35.3850 C.2   278  GLU278      0.3649
    123  OE1       22.0570   -9.2660  -35.1420 O.co2 278  GLU278     -0.2457
    124  OE2       24.1040   -9.8460  -35.6770 O.co2 278  GLU278     -0.2457
    125  N         20.0750  -14.1210  -32.2230 N.am  279  ILE279     -0.1977
    126  CA        19.0790  -14.3300  -31.1810 C.3   279  ILE279      0.1596
    127  C         19.0860  -13.1420  -30.2230 C.2   279  ILE279      0.2287
    128  O         19.6890  -13.1910  -29.1500 O.2   279  ILE279     -0.2864
    129  CB        19.3240  -15.6380  -30.4050 C.3   279  ILE279      0.0276
    130  CG1       19.4280  -16.8140  -31.3800 C.3   279  ILE279      0.0022
    131  CG2       18.1950  -15.8810  -29.4090 C.3   279  ILE279      0.0022
    132  CD1       19.8030  -18.1300  -30.7340 C.3   279  ILE279      0.0001
    133  N         13.1810  -18.7420  -30.0390 N.3   288  PHE288     -0.1241
    134  CA        14.2400  -19.6740  -29.6600 C.3   288  PHE288      0.1605
    135  C         13.8710  -20.4240  -28.3820 C.2   288  PHE288      0.2264
    136  O         14.1240  -21.6230  -28.2570 O.2   288  PHE288     -0.2867
    137  CB        15.5620  -18.9210  -29.4740 C.3   288  PHE288      0.0534
    138  CG        16.7240  -19.7940  -29.0730 C.ar  288  PHE288     -0.0203
    139  CD1       17.3380  -20.6270  -29.9940 C.ar  288  PHE288     -0.0042
    140  CD2       17.2200  -19.7560  -27.7790 C.ar  288  PHE288     -0.0042
    141  CE1       18.4140  -21.4180  -29.6270 C.ar  288  PHE288     -0.0003
    142  CE2       18.2960  -20.5440  -27.4060 C.ar  288  PHE288     -0.0003
    143  CZ        18.8920  -21.3750  -28.3310 C.ar  288  PHE288     -0.0000
@<TRIPOS>BOND
     1   112   113    1
     2   113   114    1
     3   108   109    2
     4   108   107    1
     5   114   116   am
     6   114   115    2
     7   101   100    2
     8   124   122   ar
     9   116   117    1
    10   107   110    1
    11   107   106    1
    12   105   103    1
    13   122   121    1
    14   122   123   ar
    15   121   120    1
    16   100   106   am
    17   100    99    1
    18   110   111    1
    19   103   102    1
    20   103   104    1
    21   120   117    1
    22   117   118    1
    23   102    99    1
    24    99    98    1
    25   119   118    2
    26    95    96    1
    27    95    92    1
    28    98    93   am
    29   118   125   am
    30    96    97    1
    31    93    92    1
    32    93    94    2
    33    92    91    1
    34   125   126    1
    35    85    84    2
    36   130   132    1
    37   130   129    1
    38    84    83    1
    39    97    91    1
    40   126   129    1
    41   126   127    1
    42    83    86    1
    43    83    82    1
    44   129   131    1
    45    86    87    1
    46   127   128    2
    47   133   134    1
    48   139   141   ar
    49   139   138   ar
    50    89    88    2
    51   134   137    1
    52   134   135    1
    53   141   143   ar
    54   137   138    1
    55    82    76   am
    56    87    88    1
    57    88    90   am
    58   138   140   ar
    59    77    76    2
    60   135   136    2
    61    76    75    1
    62   143   142   ar
    63    80    79    2
    64   140   142   ar
    65    75    78    1
    66    75    74    1
    67    79    81   am
    68    79    78    1
    69    42    40    1
    70    41    40    1
    71     8     7    2
    72    40    37    1
    73    12    11    2
    74     7     6    1
    75     7     9   am
    76    11    10    1
    77    11    16   am
    78    37    38    1
    79    37    36    1
    80     6     5    1
    81    10     9    1
    82    10    13    1
    83    17    16    1
    84    17    18    1
    85    39    38    2
    86    58    56   am
    87    36    31   am
    88     4     3    2
    89    13    14    1
    90    13    15    1
    91     5     3   am
    92    54    53    2
    93    19    18    2
    94    18    20   am
    95    56    57    2
    96    56    55    1
    97     3     2    1
    98    31    32    2
    99    31    30    1
   100    35    33    1
   101    55    52    1
   102    33    30    1
   103    33    34    1
   104    53    52    1
   105    20    21    1
   106    52    51    1
   107    30    29    1
   108    29    22   am
   109     2     1    1
   110    22    21    1
   111    22    23    2
   112    21    24    1
   113    28    27    1
   114    24    25    1
   115    25    26    1
   116    65    64   ar
   117    27    26    1
   118    66    64   ar
   119    50    48   am
   120    64    63    1
   121    72    71    1
   122    72    73    1
   123    48    49    2
   124    48    47    1
   125    71    68    1
   126    73    67    1
   127    63    60    1
   128    47    44    1
   129    68    67    1
   130    68    69    1
   131    60    61    1
   132    60    59    1
   133    46    45    2
   134    61    62    2
   135    69    70    2
   136    45    44    1
   137    44    43    1
