@<TRIPOS>MOLECULE
tmp/4xttB00.pdb
 94 91 0 0 0
SMALL
GASTEIGER

@<TRIPOS>ATOM
      1  N         -5.2230  -42.4460   15.2600 N.3    31  ILE31      -0.1231
      2  CA        -5.4220  -42.4550   13.8200 C.3    31  ILE31       0.1692
      3  C         -4.1040  -42.7220   13.0890 C.2    31  ILE31       0.2591
      4  O         -4.1060  -42.9900   11.8890 O.2    31  ILE31      -0.2718
      5  CB        -6.0220  -41.1220   13.2970 C.3    31  ILE31       0.0266
      6  CG1       -4.9260  -40.0770   13.0940 C.3    31  ILE31       0.0019
      7  CG2       -7.1370  -40.6130   14.2100 C.3    31  ILE31       0.0020
      8  CD1       -5.4590  -38.6870   12.7920 C.3    31  ILE31       0.0001
      9  N         -2.9920  -42.7260   13.8180 N.am   32  ILE32      -0.1980
     10  CA        -1.7170  -43.1210   13.2320 C.3    32  ILE32       0.1595
     11  C         -1.5160  -44.6330   13.4270 C.2    32  ILE32       0.2287
     12  O         -0.7650  -45.2710   12.6820 O.2    32  ILE32      -0.2864
     13  CB        -0.5210  -42.3470   13.8410 C.3    32  ILE32       0.0276
     14  CG1        0.6870  -42.4070   12.9060 C.3    32  ILE32       0.0022
     15  CG2       -0.1420  -42.9000   15.2070 C.3    32  ILE32       0.0022
     16  CD1        1.9270  -41.7480   13.4620 C.3    32  ILE32       0.0001
     17  N         -3.5330  -45.9000   10.7390 N.3    35  ASP35      -0.1225
     18  CA        -2.8370  -45.4470    9.5300 C.3    35  ASP35       0.1805
     19  C         -3.7990  -45.1200    8.3850 C.2    35  ASP35       0.2598
     20  O         -3.6370  -45.6010    7.2660 O.2    35  ASP35      -0.2718
     21  CB        -1.8410  -46.5140    9.0750 C.3    35  ASP35       0.1424
     22  CG        -0.6790  -45.9310    8.2750 C.2    35  ASP35       0.3668
     23  OD1       -0.3750  -44.7230    8.4410 O.co2  35  ASP35      -0.2456
     24  OD2       -0.0770  -46.6820    7.4690 O.co2  35  ASP35      -0.2456
     25  N         -4.7630  -44.2500    8.6590 N.am   36  ILE36      -0.1966
     26  CA        -5.9400  -44.1280    7.8080 C.3    36  ILE36       0.1727
     27  C         -5.6880  -43.6600    6.3670 C.2    36  ILE36       0.2616
     28  O         -6.1180  -44.3270    5.4300 O.2    36  ILE36      -0.2715
     29  CB        -6.9640  -43.1970    8.4780 C.3    36  ILE36       0.0290
     30  CG1       -7.4970  -43.8860    9.7310 C.3    36  ILE36       0.0022
     31  CG2       -8.0980  -42.8650    7.5260 C.3    36  ILE36       0.0023
     32  CD1       -8.3600  -43.0370   10.5710 C.3    36  ILE36       0.0001
     33  N         -4.9790  -42.5530    6.1680 N.am   37  ARG37      -0.1963
     34  CA        -4.8160  -42.0570    4.8040 C.3    37  ARG37       0.1729
     35  C         -3.9710  -43.0110    3.9570 C.2    37  ARG37       0.2616
     36  O         -4.2100  -43.1590    2.7610 O.2    37  ARG37      -0.2715
     37  CB        -4.1930  -40.6610    4.7720 C.3    37  ARG37       0.0348
     38  CG        -4.3040  -40.0190    3.3780 C.3    37  ARG37       0.0492
     39  CD        -2.9900  -39.4530    2.8530 C.3    37  ARG37       0.2205
     40  NE        -1.8810  -40.3860    2.9620 N.pl3  37  ARG37      -0.0865
     41  CZ        -1.4560  -41.1740    1.9780 C.cat  37  ARG37       0.5346
     42  NH1       -0.4220  -41.9850    2.1830 N.pl3  37  ARG37       0.1354
     43  NH2       -2.0550  -41.1530    0.7920 N.pl3  37  ARG37       0.1354
     44  N         -2.9780  -43.6420    4.5740 N.am   38  ALA38      -0.1977
     45  CA        -2.1250  -44.5730    3.8470 C.3    38  ALA38       0.1597
     46  C         -2.8790  -45.8440    3.4940 C.2    38  ALA38       0.2287
     47  O         -2.5110  -46.5490    2.5610 O.2    38  ALA38      -0.2864
     48  CB        -0.8830  -44.9040    4.6570 C.3    38  ALA38       0.0319
     49  N         -8.2790  -41.4990    2.9190 N.3    42  ILE42      -0.1231
     50  CA        -9.1880  -40.5970    3.6240 C.3    42  ILE42       0.1692
     51  C         -8.4520  -39.5760    4.4870 C.2    42  ILE42       0.2592
     52  O         -7.4290  -39.8980    5.0900 O.2    42  ILE42      -0.2718
     53  CB       -10.1480  -41.3860    4.5390 C.3    42  ILE42       0.0266
     54  CG1      -10.9620  -42.3830    3.7320 C.3    42  ILE42       0.0019
     55  CG2      -11.0930  -40.4620    5.2780 C.3    42  ILE42       0.0020
     56  CD1      -11.9470  -43.1400    4.5940 C.3    42  ILE42       0.0001
     57  N         -8.9700  -38.3520    4.5420 N.am   43  ASN43      -0.1960
     58  CA        -8.4400  -37.3370    5.4440 C.3    43  ASN43       0.1819
     59  C         -9.3870  -37.0600    6.6070 C.2    43  ASN43       0.2621
     60  O        -10.5780  -36.8180    6.4030 O.2    43  ASN43      -0.2715
     61  CB        -8.1510  -36.0480    4.6860 C.3    43  ASN43       0.1195
     62  CG        -7.6090  -34.9550    5.5800 C.2    43  ASN43       0.2630
     63  OD1       -6.9210  -35.2180    6.5600 O.2    43  ASN43      -0.2716
     64  ND2       -7.8860  -33.7130    5.2200 N.am   43  ASN43      -0.0877
     65  N         -8.8640  -37.1250    7.8280 N.am   44  ILE44      -0.1977
     66  CA        -9.6690  -36.8140    8.9970 C.3    44  ILE44       0.1596
     67  C         -9.5030  -35.3650    9.3860 C.2    44  ILE44       0.2287
     68  O         -8.4230  -34.9320    9.7820 O.2    44  ILE44      -0.2864
     69  CB        -9.3360  -37.7220   10.1890 C.3    44  ILE44       0.0276
     70  CG1       -9.7740  -39.1490    9.8700 C.3    44  ILE44       0.0022
     71  CG2      -10.0740  -37.2570   11.4370 C.3    44  ILE44       0.0022
     72  CD1       -9.8080  -40.0360   11.0700 C.3    44  ILE44       0.0001
     73  N         -7.0700  -33.0370   14.5670 N.3    57  PRO57      -0.2116
     74  CA        -6.7240  -33.9150   15.6860 C.3    57  PRO57       0.1372
     75  C         -5.2790  -34.3730   15.6500 C.2    57  PRO57       0.2244
     76  O         -4.7660  -34.7140   14.5940 O.2    57  PRO57      -0.2868
     77  CB        -7.6710  -35.1070   15.5010 C.3    57  PRO57       0.0268
     78  CG        -8.7880  -34.5800   14.6820 C.3    57  PRO57       0.0207
     79  CD        -8.1490  -33.6070   13.7470 C.3    57  PRO57       0.0892
     80  N         -2.6160  -36.8480   15.5900 N.3    59  PRO59      -0.2102
     81  CA        -2.7330  -38.2340   15.1260 C.3    59  PRO59       0.1504
     82  C         -2.2480  -39.2690   16.1420 C.2    59  PRO59       0.2575
     83  O         -2.4330  -40.4710   15.9190 O.2    59  PRO59      -0.2718
     84  CB        -1.8610  -38.2510   13.8650 C.3    59  PRO59       0.0282
     85  CG        -0.8740  -37.1540   14.0750 C.3    59  PRO59       0.0208
     86  CD        -1.6180  -36.0840   14.8220 C.3    59  PRO59       0.0893
     87  N         -1.6470  -38.8180   17.2390 N.am   60  ASN60      -0.1975
     88  CA        -1.0850  -39.7460   18.2160 C.3    60  ASN60       0.1688
     89  C         -1.9210  -39.9230   19.4850 C.2    60  ASN60       0.2292
     90  O         -1.5570  -40.7160   20.3570 O.2    60  ASN60      -0.2864
     91  CB         0.3230  -39.3080   18.5870 C.3    60  ASN60       0.1181
     92  CG         1.1890  -39.0890   17.3720 C.2    60  ASN60       0.2629
     93  OD1        1.8390  -40.0120   16.8850 O.2    60  ASN60      -0.2716
     94  ND2        1.2110  -37.8600   16.8760 N.am   60  ASN60      -0.0877
@<TRIPOS>BOND
     1    43    41    1
     2    41    42    1
     3    41    40    2
     4    47    46    2
     5    36    35    2
     6    39    40    1
     7    39    38    1
     8    49    50    1
     9    38    37    1
    10    46    45    1
    11    50    51    1
    12    50    53    1
    13    54    53    1
    14    54    56    1
    15    45    44    1
    16    45    48    1
    17    35    44   am
    18    35    34    1
    19    51    57   am
    20    51    52    2
    21    53    55    1
    22    57    58    1
    23    61    58    1
    24    61    62    1
    25    37    34    1
    26    34    33    1
    27    64    62   am
    28    28    27    2
    29    58    59    1
    30    62    63    2
    31    33    27   am
    32    27    26    1
    33    60    59    2
    34    59    65   am
    35    20    19    2
    36    24    22   ar
    37    31    29    1
    38    26    29    1
    39    26    25    1
    40    65    66    1
    41    22    23   ar
    42    22    21    1
    43    19    25   am
    44    19    18    1
    45    29    30    1
    46    66    67    1
    47    66    69    1
    48    21    18    1
    49    67    68    2
    50    18    17    1
    51    30    32    1
    52    70    69    1
    53    70    72    1
    54    69    71    1
    55     4     3    2
    56    12    11    2
    57     8     6    1
    58    14    16    1
    59    14    13    1
    60     3     9   am
    61     3     2    1
    62     6     5    1
    63    10    11    1
    64    10     9    1
    65    10    13    1
    66     5     2    1
    67     5     7    1
    68    79    73    1
    69    79    78    1
    70     2     1    1
    71    13    15    1
    72    84    85    1
    73    84    81    1
    74    85    86    1
    75    73    74    1
    76    76    75    2
    77    78    77    1
    78    86    80    1
    79    81    80    1
    80    81    82    1
    81    77    74    1
    82    75    74    1
    83    83    82    2
    84    82    87   am
    85    94    92   am
    86    93    92    2
    87    87    88    1
    88    92    91    1
    89    88    91    1
    90    88    89    1
    91    89    90    2
