@<TRIPOS>MOLECULE
tmp/4xu0A00.pdb
 213 201 0 0 0
SMALL
GASTEIGER

@<TRIPOS>ATOM
      1  N          4.4150   -9.0620   18.5410 N.3    37  SER37      -0.1202
      2  CA         3.3950   -9.5650   17.6280 C.3    37  SER37       0.2020
      3  C          3.0450  -10.9970   17.9920 C.2    37  SER37       0.2619
      4  O          3.9210  -11.8570   18.0200 O.2    37  SER37      -0.2717
      5  CB         3.8780   -9.4920   16.1780 C.3    37  SER37       0.2103
      6  OG         3.0960  -10.3230   15.3380 O.3    37  SER37      -0.2182
      7  N          1.7690  -11.2510   18.2700 N.am   38  THR38      -0.1938
      8  CA         1.3280  -12.5940   18.6310 C.3    38  THR38       0.2028
      9  C          1.5520  -13.5790   17.4920 C.2    38  THR38       0.2642
     10  O          1.8670  -14.7410   17.7290 O.2    38  THR38      -0.2714
     11  CB        -0.1560  -12.6220   19.0290 C.3    38  THR38       0.1808
     12  OG1       -0.9530  -12.1260   17.9470 O.3    38  THR38      -0.2208
     13  CG2       -0.3910  -11.7710   20.2690 C.3    38  THR38       0.0379
     14  N          1.3820  -13.1140   16.2570 N.am   39  ASN39      -0.1971
     15  CA         1.6620  -13.9520   15.1000 C.3    39  ASN39       0.1688
     16  C          3.1270  -14.3610   15.0620 C.2    39  ASN39       0.2292
     17  O          3.4430  -15.5320   14.8770 O.2    39  ASN39      -0.2864
     18  CB         1.2840  -13.2360   13.8030 C.3    39  ASN39       0.1181
     19  CG        -0.0750  -13.6560   13.2840 C.2    39  ASN39       0.2629
     20  OD1       -0.9630  -14.0030   14.0610 O.2    39  ASN39      -0.2716
     21  ND2       -0.2420  -13.6420   11.9650 N.am   39  ASN39      -0.0877
     22  N         -0.0840   -4.9340   22.1250 N.3    62  GLN62      -0.1245
     23  CA         0.8070   -5.3670   21.0550 C.3    62  GLN62       0.1566
     24  C          1.5470   -4.1660   20.4700 C.2    62  GLN62       0.2260
     25  O          0.9290   -3.2650   19.9040 O.2    62  GLN62      -0.2867
     26  CB         0.0180   -6.1030   19.9710 C.3    62  GLN62       0.0367
     27  CG         0.8750   -6.8400   18.9610 C.3    62  GLN62       0.0905
     28  CD         0.0490   -7.6430   17.9810 C.2    62  GLN62       0.2608
     29  OE1        0.0880   -8.8730   17.9840 O.2    62  GLN62      -0.2717
     30  NE2       -0.7090   -6.9520   17.1370 N.am   62  GLN62      -0.0878
     31  N          2.7270   -4.6730   16.0060 N.3    65  GLY65      -0.1210
     32  CA         1.7520   -5.4430   15.2560 C.3    65  GLY65       0.1956
     33  C          2.0130   -5.4690   13.7630 C.2    65  GLY65       0.2612
     34  O          2.5180   -4.5020   13.1870 O.2    65  GLY65      -0.2717
     35  N          1.6720   -6.5880   13.1340 N.am   66  ARG66      -0.1965
     36  CA         1.8990   -6.7490   11.7060 C.3    66  ARG66       0.1729
     37  C          0.5950   -6.8460   10.9270 C.2    66  ARG66       0.2617
     38  O         -0.3270   -7.5570   11.3210 O.2    66  ARG66      -0.2715
     39  CB         2.7540   -7.9870   11.4410 C.3    66  ARG66       0.0348
     40  CG         4.1340   -7.9290   12.0660 C.3    66  ARG66       0.0492
     41  CD         4.9540   -9.1580   11.6790 C.3    66  ARG66       0.2205
     42  NE         4.3430  -10.3940   12.1570 N.pl3  66  ARG66      -0.0865
     43  CZ         4.7840  -11.6080   11.8550 C.cat  66  ARG66       0.5346
     44  NH1        5.8470  -11.7410   11.0670 N.pl3  66  ARG66       0.1354
     45  NH2        4.1610  -12.6780   12.3400 N.pl3  66  ARG66       0.1354
     46  N          0.5220   -6.1030    9.8280 N.am   67  GLY67      -0.1940
     47  CA        -0.5890   -6.2040    8.9030 C.3    67  GLY67       0.2014
     48  C         -0.1660   -6.9910    7.6790 C.2    67  GLY67       0.2638
     49  O          0.9490   -7.5090    7.6240 O.2    67  GLY67      -0.2714
     50  N         -1.0530   -7.0890    6.6960 N.am   68  ARG68      -0.1977
     51  CA        -0.7310   -7.7790    5.4570 C.3    68  ARG68       0.1597
     52  C          0.2590   -6.9650    4.6320 C.2    68  ARG68       0.2287
     53  O          0.3170   -5.7410    4.7480 O.2    68  ARG68      -0.2864
     54  CB        -2.0000   -8.0560    4.6480 C.3    68  ARG68       0.0334
     55  CG        -2.9780   -8.9830    5.3530 C.3    68  ARG68       0.0492
     56  CD        -4.0900   -9.4610    4.4290 C.3    68  ARG68       0.2205
     57  NE        -5.0360   -8.4030    4.0860 N.pl3  68  ARG68      -0.0865
     58  CZ        -6.0880   -8.0710    4.8280 C.cat  68  ARG68       0.5346
     59  NH1       -6.3290   -8.7020    5.9700 N.pl3  68  ARG68       0.1354
     60  NH2       -6.8970   -7.0970    4.4330 N.pl3  68  ARG68       0.1354
     61  N          2.6250   -4.2600    6.1230 N.3    71  ARG71      -0.1231
     62  CA         2.0350   -3.1120    6.7990 C.3    71  ARG71       0.1694
     63  C          2.0090   -3.3370    8.3050 C.2    71  ARG71       0.2593
     64  O          2.3910   -4.4020    8.7880 O.2    71  ARG71      -0.2718
     65  CB         0.6240   -2.8360    6.2770 C.3    71  ARG71       0.0321
     66  CG         0.5950   -2.2690    4.8660 C.3    71  ARG71       0.0489
     67  CD        -0.7960   -1.7930    4.4750 C.3    71  ARG71       0.2205
     68  NE        -1.6970   -2.9010    4.1700 N.pl3  71  ARG71      -0.0865
     69  CZ        -1.9350   -3.3540    2.9430 C.cat  71  ARG71       0.5346
     70  NH1       -1.3380   -2.7930    1.9000 N.pl3  71  ARG71       0.1354
     71  NH2       -2.7710   -4.3660    2.7570 N.pl3  71  ARG71       0.1354
     72  N          1.5610   -2.3300    9.0450 N.am   72  GLY72      -0.1942
     73  CA         1.5210   -2.4230   10.4900 C.3    72  GLY72       0.2014
     74  C          0.1200   -2.5630   11.0520 C.2    72  GLY72       0.2639
     75  O         -0.8720   -2.3410   10.3580 O.2    72  GLY72      -0.2714
     76  N          0.0470   -2.9540   12.3190 N.am   73  TRP73      -0.1959
     77  CA        -1.2110   -2.9810   13.0510 C.3    73  TRP73       0.1771
     78  C         -1.0170   -2.2700   14.3810 C.2    73  TRP73       0.2619
     79  O         -0.1690   -2.6630   15.1830 O.2    73  TRP73      -0.2715
     80  CB        -1.6950   -4.4140   13.2760 C.3    73  TRP73       0.0590
     81  CG        -3.0810   -4.4900   13.8480 C.ar   73  TRP73       0.0006
     82  CD1       -3.4260   -4.7740   15.1390 C.ar   73  TRP73       0.0946
     83  CD2       -4.3120   -4.2710   13.1440 C.ar   73  TRP73       0.0152
     84  NE1       -4.7940   -4.7490   15.2800 N.ar   73  TRP73      -0.2442
     85  CE2       -5.3570   -4.4430   14.0720 C.ar   73  TRP73       0.0810
     86  CE3       -4.6250   -3.9470   11.8200 C.ar   73  TRP73       0.0012
     87  CZ2       -6.7000   -4.3010   13.7130 C.ar   73  TRP73       0.0191
     88  CZ3       -5.9570   -3.8100   11.4680 C.ar   73  TRP73       0.0001
     89  CH2       -6.9760   -3.9860   12.4100 C.ar   73  TRP73       0.0015
     90  N         -1.7970   -1.2190   14.6070 N.am   74  ALA74      -0.1977
     91  CA        -1.6590   -0.4120   15.8120 C.3    74  ALA74       0.1597
     92  C         -2.6490   -0.8340   16.8910 C.2    74  ALA74       0.2287
     93  O         -3.7380   -1.3290   16.5950 O.2    74  ALA74      -0.2864
     94  CB        -1.8360    1.0600   15.4830 C.3    74  ALA74       0.0319
     95  N         -8.3170   -3.8200   22.4270 N.3    80  GLN80      -0.1245
     96  CA        -8.6500   -4.7920   21.3990 C.3    80  GLN80       0.1566
     97  C         -8.6040   -6.2150   21.9200 C.2    80  GLN80       0.2260
     98  O         -8.0600   -6.4870   22.9920 O.2    80  GLN80      -0.2867
     99  CB        -7.6720   -4.7020   20.2210 C.3    80  GLN80       0.0367
    100  CG        -7.6190   -3.3900   19.4760 C.3    80  GLN80       0.0905
    101  CD        -6.6200   -3.4420   18.3320 C.2    80  GLN80       0.2608
    102  OE1       -6.3790   -4.5020   17.7490 O.2    80  GLN80      -0.2717
    103  NE2       -6.0280   -2.3010   18.0120 N.am   80  GLN80      -0.0878
    104  N         -6.6050   -9.1360   20.8070 N.3    82  ILE82      -0.1231
    105  CA        -5.4290   -9.3830   19.9820 C.3    82  ILE82       0.1692
    106  C         -4.9800  -10.8230   20.1650 C.2    82  ILE82       0.2592
    107  O         -4.4040  -11.1640   21.1980 O.2    82  ILE82      -0.2718
    108  CB        -4.2710   -8.4270   20.3570 C.3    82  ILE82       0.0266
    109  CG1       -4.6910   -6.9660   20.1830 C.3    82  ILE82       0.0019
    110  CG2       -3.0230   -8.7260   19.5410 C.3    82  ILE82       0.0020
    111  CD1       -3.6640   -5.9790   20.6990 C.3    82  ILE82       0.0001
    112  N         -5.2510  -11.6780   19.1830 N.am   83  LEU83      -0.1966
    113  CA        -4.8880  -13.0800   19.3390 C.3    83  LEU83       0.1728
    114  C         -4.3890  -13.7560   18.0720 C.2    83  LEU83       0.2616
    115  O         -4.6540  -13.3140   16.9510 O.2    83  LEU83      -0.2715
    116  CB        -6.0730  -13.8720   19.9090 C.3    83  LEU83       0.0311
    117  CG        -7.4170  -13.9590   19.1810 C.3    83  LEU83       0.0022
    118  CD1       -7.4050  -15.0160   18.0870 C.3    83  LEU83       0.0001
    119  CD2       -8.5080  -14.2720   20.1890 C.3    83  LEU83       0.0001
    120  N         -3.6560  -14.8430   18.2870 N.am   84  SER84      -0.1950
    121  CA        -3.2050  -15.7170   17.2220 C.3    84  SER84       0.1924
    122  C         -3.5050  -17.1590   17.6020 C.2    84  SER84       0.2314
    123  O         -3.4290  -17.5240   18.7770 O.2    84  SER84      -0.2863
    124  CB        -1.7100  -15.5330   16.9580 C.3    84  SER84       0.2116
    125  OG        -1.4300  -14.2210   16.5070 O.3    84  SER84      -0.2180
    126  N        -11.1570   -8.3030    5.8770 N.3   130  ASP130     -0.1239
    127  CA       -11.5500   -7.1180    6.6170 C.3   130  ASP130      0.1674
    128  C        -12.9690   -7.2870    7.1350 C.2   130  ASP130      0.2266
    129  O        -13.8900   -7.5520    6.3660 O.2   130  ASP130     -0.2867
    130  CB       -11.4570   -5.8660    5.7410 C.3   130  ASP130      0.1410
    131  CG       -10.0400   -5.3390    5.6170 C.2   130  ASP130      0.3668
    132  OD1       -9.0830   -6.0940    5.8970 O.co2 130  ASP130     -0.2456
    133  OD2       -9.8840   -4.1620    5.2320 O.co2 130  ASP130     -0.2456
    134  N        -13.2800   -0.1400    9.5140 N.3   137  LYS137     -0.1245
    135  CA       -12.6030   -1.4120    9.7220 C.3   137  LYS137      0.1561
    136  C        -12.6470   -1.8090   11.1910 C.2   137  LYS137      0.2260
    137  O        -11.9590   -1.2210   12.0270 O.2   137  LYS137     -0.2867
    138  CB       -11.1580   -1.3440    9.2290 C.3   137  LYS137      0.0271
    139  CG       -10.4130   -2.6650    9.3520 C.3   137  LYS137      0.0035
    140  CD        -9.1850   -2.6910    8.4660 C.3   137  LYS137      0.0206
    141  CE        -8.4910   -4.0340    8.5410 C.3   137  LYS137      0.1093
    142  NZ        -7.3580   -4.0990    7.5880 N.3   137  LYS137     -0.1314
    143  N         -9.0250   -6.8090   11.5950 N.3   140  GLY140     -0.1210
    144  CA        -8.1250   -7.2150   10.5350 C.3   140  GLY140      0.1956
    145  C         -7.5960   -8.6050   10.8210 C.2   140  GLY140      0.2612
    146  O         -7.3390   -8.9490   11.9750 O.2   140  GLY140     -0.2717
    147  N         -7.4460   -9.4070    9.7720 N.am  141  ILE141     -0.1965
    148  CA        -6.9780  -10.7800    9.9140 C.3   141  ILE141      0.1727
    149  C         -5.6990  -11.0120    9.1160 C.2   141  ILE141      0.2616
    150  O         -5.5790  -10.5660    7.9740 O.2   141  ILE141     -0.2715
    151  CB        -8.0410  -11.7960    9.4530 C.3   141  ILE141      0.0290
    152  CG1       -9.4240  -11.4210    9.9900 C.3   141  ILE141      0.0022
    153  CG2       -7.6460  -13.2130    9.8610 C.3   141  ILE141      0.0023
    154  CD1       -9.5280  -11.4540   11.4900 C.3   141  ILE141      0.0001
    155  N         -4.7490  -11.7150    9.7240 N.am  142  LEU142     -0.1977
    156  CA        -3.4760  -12.0100    9.0770 C.3   142  LEU142      0.1596
    157  C         -3.1130  -13.4840    9.2050 C.2   142  LEU142      0.2287
    158  O         -2.9660  -14.0030   10.3110 O.2   142  LEU142     -0.2864
    159  CB        -2.3610  -11.1510    9.6710 C.3   142  LEU142      0.0297
    160  CG        -0.9560  -11.4070    9.1210 C.3   142  LEU142      0.0022
    161  CD1       -0.8830  -11.0630    7.6410 C.3   142  LEU142      0.0001
    162  CD2        0.0790  -10.6230    9.9120 C.3   142  LEU142      0.0001
    163  N         -4.0060  -14.6600   12.7030 N.3   153  GLY153     -0.1210
    164  CA        -3.9920  -13.5420   13.6280 C.3   153  GLY153      0.1956
    165  C         -5.2230  -12.6700   13.5040 C.2   153  GLY153      0.2612
    166  O         -5.6290  -12.3150   12.3980 O.2   153  GLY153     -0.2717
    167  N         -5.8180  -12.3310   14.6440 N.am  154  VAL154     -0.1965
    168  CA        -6.9910  -11.4640   14.6770 C.3   154  VAL154      0.1727
    169  C         -6.7560  -10.2230   15.5300 C.2   154  VAL154      0.2616
    170  O         -6.3330  -10.3150   16.6840 O.2   154  VAL154     -0.2715
    171  CB        -8.2290  -12.1980   15.2270 C.3   154  VAL154      0.0290
    172  CG1       -9.4170  -11.2460   15.3060 C.3   154  VAL154      0.0023
    173  CG2       -8.5650  -13.4020   14.3650 C.3   154  VAL154      0.0023
    174  N         -7.0290   -9.0620   14.9470 N.am  155  GLY155     -0.1955
    175  CA        -7.0210   -7.8150   15.6840 C.3   155  GLY155      0.1869
    176  C         -8.4130   -7.2170   15.6230 C.2   155  GLY155      0.2309
    177  O         -8.8260   -6.7120   14.5830 O.2   155  GLY155     -0.2863
    178  N        -11.1060   -4.4730   17.0840 N.3   157  ASN157     -0.1240
    179  CA       -11.2790   -3.2330   17.8400 C.3   157  ASN157      0.1653
    180  C        -12.5130   -3.2880   18.7350 C.2   157  ASN157      0.2266
    181  O        -13.6440   -3.2620   18.2460 O.2   157  ASN157     -0.2867
    182  CB       -11.3910   -2.0280   16.9040 C.3   157  ASN157      0.1155
    183  CG       -10.1540   -1.8250   16.0460 C.2   157  ASN157      0.2627
    184  OD1      -10.2550   -1.5800   14.8450 O.2   157  ASN157     -0.2716
    185  ND2       -8.9810   -1.9140   16.6610 N.am  157  ASN157     -0.0877
    186  N         -5.5310    4.6790   16.0760 N.3   165  VAL165     -0.1231
    187  CA        -5.0200    3.6380   15.1870 C.3   165  VAL165      0.1692
    188  C         -5.1180    3.9430   13.6890 C.2   165  VAL165      0.2592
    189  O         -4.1390    3.7730   12.9600 O.2   165  VAL165     -0.2718
    190  CB        -5.7370    2.2940   15.4600 C.3   165  VAL165      0.0266
    191  CG1       -5.1950    1.6560   16.7270 C.3   165  VAL165      0.0020
    192  CG2       -7.2430    2.4930   15.5690 C.3   165  VAL165      0.0020
    193  N         -6.2870    4.3820   13.2290 N.am  166  ASP166     -0.1974
    194  CA        -6.5050    4.6270   11.8040 C.3   166  ASP166      0.1709
    195  C         -7.8010    5.4030   11.5660 C.2   166  ASP166      0.2293
    196  O         -8.8100    5.1380   12.2170 O.2   166  ASP166     -0.2864
    197  CB        -6.5400    3.3020   11.0330 C.3   166  ASP166      0.1436
    198  CG        -6.5070    3.4990    9.5290 C.2   166  ASP166      0.3671
    199  OD1       -5.4000    3.6500    8.9720 O.co2 166  ASP166     -0.2456
    200  OD2       -7.5880    3.5050    8.9030 O.co2 166  ASP166     -0.2456
    201  N        -10.8190    3.3260   10.7570 N.3   169  ALA169     -0.1245
    202  CA       -11.1120    2.3050   11.7540 C.3   169  ALA169      0.1562
    203  C        -12.4130    2.5850   12.4940 C.2   169  ALA169      0.2260
    204  O        -12.9120    3.7120   12.5090 O.2   169  ALA169     -0.2867
    205  CB        -9.9670    2.1940   12.7450 C.3   169  ALA169      0.0290
    206  N         -5.6500   -5.0920   -2.1470 N.3   260  ASP260     -0.1239
    207  CA        -6.4600   -4.2440   -1.2850 C.3   260  ASP260      0.1674
    208  C         -7.6950   -3.7700   -2.0360 C.2   260  ASP260      0.2266
    209  O         -7.5900   -3.1770   -3.1100 O.2   260  ASP260     -0.2867
    210  CB        -5.6500   -3.0500   -0.7850 C.3   260  ASP260      0.1410
    211  CG        -4.4060   -3.4690   -0.0340 C.2   260  ASP260      0.3668
    212  OD1       -4.4770   -4.4450    0.7440 O.co2 260  ASP260     -0.2456
    213  OD2       -3.3530   -2.8260   -0.2260 O.co2 260  ASP260     -0.2456
@<TRIPOS>BOND
     1   209   208    2
     2   206   207    1
     3   208   207    1
     4   207   210    1
     5   210   211    1
     6   213   211   ar
     7   211   212   ar
     8    70    69    1
     9    71    69    1
    10    69    68    2
    11    57    56    1
    12    57    58    2
    13    68    67    1
    14    56    55    1
    15    60    58    1
    16    67    66    1
    17    52    53    2
    18    52    51    1
    19    54    55    1
    20    54    51    1
    21    58    59    1
    22    66    65    1
    23   133   131   ar
    24    51    50    1
    25   131   130    1
    26   131   132   ar
    27   130   127    1
    28   126   127    1
    29    61    62    1
    30    65    62    1
    31   129   128    2
    32   127   128    1
    33    50    48   am
    34    62    63    1
    35   142   141    1
    36    49    48    2
    37   161   160    1
    38    48    47    1
    39   150   149    2
    40    63    64    2
    41    63    72   am
    42   140   141    1
    43   140   139    1
    44    47    46    1
    45   200   198   ar
    46   199   198   ar
    47    72    73    1
    48   156   157    1
    49   156   159    1
    50   156   155    1
    51   149   155   am
    52   149   148    1
    53   160   159    1
    54   160   162    1
    55   157   158    2
    56   138   139    1
    57   138   135    1
    58   151   153    1
    59   151   148    1
    60   151   152    1
    61   134   135    1
    62   198   197    1
    63   135   136    1
    64   147   148    1
    65   147   145   am
    66    46    37   am
    67   152   154    1
    68    75    74    2
    69    73    74    1
    70   144   145    1
    71   144   143    1
    72   201   202    1
    73   145   146    2
    74    37    38    2
    75    37    36    1
    76   197   194    1
    77    74    76   am
    78    44    43    1
    79   136   137    2
    80    39    36    1
    81    39    40    1
    82    88    86   ar
    83    88    89   ar
    84   195   194    1
    85   195   196    2
    86    41    40    1
    87    41    42    1
    88    36    35    1
    89   202   203    1
    90   202   205    1
    91   194   193    1
    92    86    83   ar
    93    43    42    2
    94    43    45    1
    95    21    19   am
    96    76    77    1
    97   166   165    2
    98    89    87   ar
    99   203   204    2
   100   163   164    1
   101   189   188    2
   102    77    80    1
   103    77    78    1
   104    35    33   am
   105    83    81   ar
   106    83    85   ar
   107    34    33    2
   108   193   188   am
   109    80    81    1
   110    19    18    1
   111    19    20    2
   112   165   164    1
   113   165   167   am
   114   188   187    1
   115    87    85   ar
   116    33    32    1
   117    18    15    1
   118    81    82   ar
   119    85    84   ar
   120   173   171    1
   121    78    90   am
   122    78    79    2
   123   177   176    2
   124    90    91    1
   125   167   168    1
   126   168   171    1
   127   168   169    1
   128   184   183    2
   129    17    16    2
   130   174   169   am
   131   174   175    1
   132    16    15    1
   133    15    14    1
   134    82    84   ar
   135   187   190    1
   136   187   186    1
   137   171   172    1
   138    32    31    1
   139     6     5    1
   140   190   192    1
   141   190   191    1
   142    94    91    1
   143   169   170    2
   144   176   175    1
   145    91    92    1
   146   183   185   am
   147   183   182    1
   148     5     2    1
   149    14     9   am
   150   125   124    1
   151    93    92    2
   152   182   179    1
   153   115   114    2
   154   124   121    1
   155   178   179    1
   156    30    28   am
   157   121   122    1
   158   121   120    1
   159     9    10    2
   160     9     8    1
   161   122   123    2
   162     2     3    1
   163     2     1    1
   164   102   101    2
   165   179   180    1
   166    12    11    1
   167    28    29    2
   168    28    27    1
   169     3     4    2
   170     3     7   am
   171   103   101   am
   172   114   120   am
   173   114   113    1
   174   118   117    1
   175   181   180    2
   176     7     8    1
   177   101   100    1
   178     8    11    1
   179    27    26    1
   180    11    13    1
   181   117   116    1
   182   117   119    1
   183   112   113    1
   184   112   106   am
   185   113   116    1
   186   100    99    1
   187   110   108    1
   188    25    24    2
   189    26    23    1
   190   105   106    1
   191   105   108    1
   192   105   104    1
   193   106   107    2
   194   109   108    1
   195   109   111    1
   196    99    96    1
   197    24    23    1
   198    23    22    1
   199    96    97    1
   200    96    95    1
   201    97    98    2
