@<TRIPOS>MOLECULE
tmp/4xu1B00.pdb
 217 205 0 0 0
SMALL
GASTEIGER

@<TRIPOS>ATOM
      1  N        -19.2300  -16.7370  -43.5570 N.3    35  SER35      -0.1202
      2  CA       -18.3200  -17.2220  -42.5200 C.3    35  SER35       0.2020
      3  C        -18.4550  -18.7290  -42.3920 C.2    35  SER35       0.2619
      4  O        -19.5550  -19.2240  -42.2080 O.2    35  SER35      -0.2717
      5  CB       -18.6300  -16.5740  -41.1720 C.3    35  SER35       0.2103
      6  OG       -18.0180  -17.2920  -40.1010 O.3    35  SER35      -0.2182
      7  N        -17.3490  -19.4600  -42.4650 N.am   36  THR36      -0.1938
      8  CA       -17.4420  -20.9070  -42.3060 C.3    36  THR36       0.2028
      9  C        -17.9000  -21.2810  -40.8920 C.2    36  THR36       0.2642
     10  O        -18.6000  -22.2790  -40.7070 O.2    36  THR36      -0.2714
     11  CB       -16.0960  -21.6010  -42.6250 C.3    36  THR36       0.1808
     12  OG1      -15.0580  -21.0400  -41.8150 O.3    36  THR36      -0.2208
     13  CG2      -15.7170  -21.3940  -44.0860 C.3    36  THR36       0.0379
     14  N        -17.5060  -20.4940  -39.8920 N.am   37  ASN37      -0.1971
     15  CA       -17.9780  -20.7290  -38.5260 C.3    37  ASN37       0.1688
     16  C        -19.4850  -20.5440  -38.4400 C.2    37  ASN37       0.2292
     17  O        -20.2020  -21.3740  -37.8810 O.2    37  ASN37      -0.2864
     18  CB       -17.3030  -19.7870  -37.5250 C.3    37  ASN37       0.1181
     19  CG       -16.1050  -20.4100  -36.8500 C.2    37  ASN37       0.2629
     20  OD1      -15.4240  -21.2540  -37.4260 O.2    37  ASN37      -0.2716
     21  ND2      -15.8230  -19.9700  -35.6260 N.am   37  ASN37      -0.0877
     22  N        -14.2300  -15.4720  -47.9530 N.3    60  GLN60      -0.1245
     23  CA       -15.1470  -15.2960  -46.8600 C.3    60  GLN60       0.1566
     24  C        -15.4590  -13.7950  -46.7600 C.2    60  GLN60       0.2260
     25  O        -14.5460  -12.9680  -46.6620 O.2    60  GLN60      -0.2867
     26  CB       -14.4930  -15.8960  -45.6070 C.3    60  GLN60       0.0367
     27  CG       -15.2190  -15.8400  -44.3180 C.3    60  GLN60       0.0905
     28  CD       -14.5420  -16.6980  -43.2620 C.2    60  GLN60       0.2608
     29  OE1      -14.8990  -17.8570  -43.0140 O.2    60  GLN60      -0.2717
     30  NE2      -13.4890  -16.1450  -42.6940 N.am   60  GLN60      -0.0878
     31  N        -15.3320  -13.7280  -39.1650 N.3    64  ARG64      -0.1231
     32  CA       -15.4750  -13.4140  -37.7520 C.3    64  ARG64       0.1694
     33  C        -14.1590  -13.5640  -37.0050 C.2    64  ARG64       0.2593
     34  O        -13.4670  -14.5770  -37.1440 O.2    64  ARG64      -0.2718
     35  CB       -16.5170  -14.3240  -37.0940 C.3    64  ARG64       0.0321
     36  CG       -17.7340  -14.5390  -37.9400 C.3    64  ARG64       0.0489
     37  CD       -18.9860  -14.3140  -37.1510 C.3    64  ARG64       0.2205
     38  NE       -19.3330  -15.4940  -36.3800 N.pl3  64  ARG64      -0.0865
     39  CZ       -20.5570  -16.0060  -36.3300 C.cat  64  ARG64       0.5346
     40  NH1      -21.5490  -15.4440  -37.0090 N.pl3  64  ARG64       0.1354
     41  NH2      -20.7860  -17.0860  -35.6040 N.pl3  64  ARG64       0.1354
     42  N        -13.8200  -12.5460  -36.2270 N.am   65  GLY65      -0.1942
     43  CA       -12.8000  -12.6860  -35.2080 C.3    65  GLY65       0.2014
     44  C        -13.4650  -12.8150  -33.8540 C.2    65  GLY65       0.2638
     45  O        -14.7000  -12.8190  -33.7330 O.2    65  GLY65      -0.2714
     46  N        -12.6570  -12.9340  -32.8140 N.am   66  ARG66      -0.1977
     47  CA       -13.1990  -13.0610  -31.4710 C.3    66  ARG66       0.1597
     48  C        -13.8160  -11.7470  -31.0110 C.2    66  ARG66       0.2287
     49  O        -13.5030  -10.6920  -31.5540 O.2    66  ARG66      -0.2864
     50  CB       -12.1110  -13.5050  -30.4940 C.3    66  ARG66       0.0334
     51  CG       -12.6900  -14.0360  -29.1960 C.3    66  ARG66       0.0492
     52  CD       -11.6880  -14.8310  -28.4310 C.3    66  ARG66       0.2205
     53  NE       -12.3060  -15.6110  -27.3640 N.pl3  66  ARG66      -0.0865
     54  CZ       -11.6580  -16.5560  -26.6980 C.cat  66  ARG66       0.5346
     55  NH1      -12.2630  -17.2320  -25.7280 N.pl3  66  ARG66       0.1354
     56  NH2      -10.3890  -16.7980  -26.9860 N.pl3  66  ARG66       0.1354
     57  N        -15.1990   -9.0950  -33.3980 N.3    69  ARG69      -0.1231
     58  CA       -14.3120   -8.4800  -34.3790 C.3    69  ARG69       0.1694
     59  C        -14.4620   -9.1200  -35.7550 C.2    69  ARG69       0.2593
     60  O        -15.1730  -10.0990  -35.9240 O.2    69  ARG69      -0.2718
     61  CB       -12.8610   -8.5780  -33.9190 C.3    69  ARG69       0.0321
     62  CG       -12.5920   -7.7990  -32.6580 C.3    69  ARG69       0.0489
     63  CD       -11.3600   -8.3260  -31.9330 C.3    69  ARG69       0.2205
     64  NE       -11.1740   -7.6400  -30.6600 N.pl3  69  ARG69      -0.0865
     65  CZ       -10.2230   -7.9360  -29.7810 C.cat  69  ARG69       0.5346
     66  NH1       -9.3640   -8.9170  -30.0360 N.pl3  69  ARG69       0.1354
     67  NH2      -10.1310   -7.2490  -28.6450 N.pl3  69  ARG69       0.1354
     68  N        -13.7930   -8.5460  -36.7410 N.am   70  GLY70      -0.1942
     69  CA       -13.8040   -9.1020  -38.0810 C.3    70  GLY70       0.2014
     70  C        -12.5700   -9.9290  -38.3790 C.2    70  GLY70       0.2639
     71  O        -11.5890   -9.9060  -37.6350 O.2    70  GLY70      -0.2714
     72  N        -12.6430  -10.6850  -39.4690 N.am   71  TRP71      -0.1959
     73  CA       -11.4940  -11.3700  -40.0410 C.3    71  TRP71       0.1771
     74  C        -11.5380  -11.1400  -41.5360 C.2    71  TRP71       0.2619
     75  O        -12.5740  -11.3620  -42.1670 O.2    71  TRP71      -0.2715
     76  CB       -11.5290  -12.8680  -39.7330 C.3    71  TRP71       0.0590
     77  CG       -10.2980  -13.5780  -40.1900 C.ar   71  TRP71       0.0006
     78  CD1      -10.1650  -14.3690  -41.2930 C.ar   71  TRP71       0.0946
     79  CD2       -9.0140  -13.5430  -39.5570 C.ar   71  TRP71       0.0152
     80  NE1       -8.8710  -14.8420  -41.3770 N.ar   71  TRP71      -0.2442
     81  CE2       -8.1510  -14.3570  -40.3160 C.ar   71  TRP71       0.0810
     82  CE3       -8.5140  -12.9150  -38.4100 C.ar   71  TRP71       0.0012
     83  CZ2       -6.8100  -14.5530  -39.9700 C.ar   71  TRP71       0.0191
     84  CZ3       -7.1810  -13.1250  -38.0570 C.ar   71  TRP71       0.0001
     85  CH2       -6.3510  -13.9330  -38.8320 C.ar   71  TRP71       0.0015
     86  N        -10.4250  -10.6890  -42.0960 N.am   72  ALA72      -0.1977
     87  CA       -10.3770  -10.3300  -43.5100 C.3    72  ALA72       0.1597
     88  C         -9.5910  -11.3400  -44.3350 C.2    72  ALA72       0.2287
     89  O         -8.6300  -11.9130  -43.8530 O.2    72  ALA72      -0.2864
     90  CB        -9.7650   -8.9420  -43.6660 C.3    72  ALA72       0.0319
     91  N         -5.7680  -17.6230  -48.3250 N.3    78  GLN78      -0.1245
     92  CA        -5.7340  -18.2540  -46.9990 C.3    78  GLN78       0.1566
     93  C         -6.2360  -19.6840  -47.0440 C.2    78  GLN78       0.2260
     94  O         -6.8840  -20.0790  -48.0060 O.2    78  GLN78      -0.2867
     95  CB        -6.5890  -17.4640  -46.0030 C.3    78  GLN78       0.0367
     96  CG        -5.9650  -16.1670  -45.5480 C.3    78  GLN78       0.0905
     97  CD        -6.8620  -15.4030  -44.6060 C.2    78  GLN78       0.2608
     98  OE1       -7.5350  -15.9880  -43.7530 O.2    78  GLN78      -0.2717
     99  NE2       -6.8870  -14.0820  -44.7570 N.am   78  GLN78      -0.0878
    100  N         -9.0270  -21.2150  -45.0580 N.3    80  ILE80      -0.1231
    101  CA       -10.1400  -20.7310  -44.2630 C.3    80  ILE80       0.1692
    102  C        -11.0280  -21.9090  -43.9320 C.2    80  ILE80       0.2592
    103  O        -11.7780  -22.3930  -44.7840 O.2    80  ILE80      -0.2718
    104  CB       -10.9560  -19.6600  -45.0200 C.3    80  ILE80       0.0266
    105  CG1      -10.0660  -18.4640  -45.3690 C.3    80  ILE80       0.0019
    106  CG2      -12.1470  -19.1910  -44.1940 C.3    80  ILE80       0.0020
    107  CD1      -10.7580  -17.4280  -46.2320 C.3    80  ILE80       0.0001
    108  N        -10.9520  -22.4040  -42.7050 N.am   81  LEU81      -0.1966
    109  CA       -11.7230  -23.6070  -42.4600 C.3    81  LEU81       0.1728
    110  C        -12.3250  -23.6850  -41.0760 C.2    81  LEU81       0.2616
    111  O        -11.8280  -23.0910  -40.1210 O.2    81  LEU81      -0.2715
    112  CB       -10.8750  -24.8590  -42.7370 C.3    81  LEU81       0.0311
    113  CG        -9.6800  -25.3130  -41.9030 C.3    81  LEU81       0.0022
    114  CD1      -10.0780  -25.8670  -40.5270 C.3    81  LEU81       0.0001
    115  CD2       -8.9040  -26.3890  -42.6900 C.3    81  LEU81       0.0001
    116  N        -13.4260  -24.4170  -40.9990 N.am   82  SER82      -0.1950
    117  CA       -14.0590  -24.7220  -39.7200 C.3    82  SER82       0.1924
    118  C        -14.3140  -26.2040  -39.6260 C.2    82  SER82       0.2314
    119  O        -14.6130  -26.8600  -40.6220 O.2    82  SER82      -0.2863
    120  CB       -15.3760  -23.9680  -39.5530 C.3    82  SER82       0.2116
    121  OG       -15.1470  -22.5720  -39.6710 O.3    82  SER82      -0.2180
    122  N         -5.5450  -16.4240  -29.1150 N.3   127  ASN127     -0.1225
    123  CA        -6.1020  -16.6750  -30.4510 C.3   127  ASN127      0.1785
    124  C         -5.1000  -16.7330  -31.5940 C.2   127  ASN127      0.2597
    125  O         -5.5130  -16.9500  -32.7320 O.2   127  ASN127     -0.2718
    126  CB        -7.1320  -15.5910  -30.8330 C.3   127  ASN127      0.1169
    127  CG        -8.0000  -15.1690  -29.6790 C.2   127  ASN127      0.2627
    128  OD1       -8.5800  -15.9970  -28.9860 O.2   127  ASN127     -0.2716
    129  ND2       -8.0750  -13.8650  -29.4510 N.am  127  ASN127     -0.0877
    130  N         -3.8120  -16.5170  -31.3180 N.am  128  ASP128     -0.1974
    131  CA        -2.8520  -16.2140  -32.3870 C.3   128  ASP128      0.1709
    132  C         -1.7770  -17.2500  -32.6070 C.2   128  ASP128      0.2293
    133  O         -1.2610  -17.8290  -31.6490 O.2   128  ASP128     -0.2864
    134  CB        -2.1120  -14.9010  -32.1030 C.3   128  ASP128      0.1436
    135  CG        -2.9960  -13.6750  -32.1570 C.2   128  ASP128      0.3671
    136  OD1       -4.2360  -13.7730  -32.2090 O.co2 128  ASP128     -0.2456
    137  OD2       -2.4100  -12.5720  -32.1260 O.co2 128  ASP128     -0.2456
    138  N          1.2460  -11.9050  -37.2510 N.3   135  LYS135     -0.1245
    139  CA         0.1560  -12.8590  -37.0670 C.3   135  LYS135      0.1561
    140  C         -0.0530  -13.7030  -38.3180 C.2   135  LYS135      0.2260
    141  O         -0.5240  -13.2190  -39.3550 O.2   135  LYS135     -0.2867
    142  CB        -1.1290  -12.1400  -36.6640 C.3   135  LYS135      0.0271
    143  CG        -2.2780  -13.0980  -36.2990 C.3   135  LYS135      0.0035
    144  CD        -3.4060  -12.3580  -35.6170 C.3   135  LYS135      0.0206
    145  CE        -4.5740  -13.3010  -35.2600 C.3   135  LYS135      0.1093
    146  NZ        -5.5940  -12.6210  -34.3550 N.3   135  LYS135     -0.1314
    147  N         -5.2540  -16.8370  -37.2020 N.3   138  GLY138     -0.1210
    148  CA        -6.1950  -16.5790  -36.1190 C.3   138  GLY138      0.1956
    149  C         -7.1140  -17.7690  -35.8900 C.2   138  GLY138      0.2612
    150  O         -7.5110  -18.4240  -36.8470 O.2   138  GLY138     -0.2717
    151  N         -7.4540  -18.0250  -34.6250 N.am  139  ILE139     -0.1965
    152  CA        -8.2570  -19.1890  -34.2440 C.3   139  ILE139      0.1727
    153  C         -9.4990  -18.7280  -33.5130 C.2   139  ILE139      0.2616
    154  O         -9.4020  -17.8630  -32.6510 O.2   139  ILE139     -0.2715
    155  CB        -7.4820  -20.1440  -33.2980 C.3   139  ILE139      0.0290
    156  CG1       -6.0500  -20.3930  -33.7840 C.3   139  ILE139      0.0022
    157  CG2       -8.2760  -21.4470  -33.0770 C.3   139  ILE139      0.0023
    158  CD1       -5.9360  -21.1470  -35.0870 C.3   139  ILE139      0.0001
    159  N        -10.6560  -19.3040  -33.8310 N.am  140  LEU140     -0.1977
    160  CA       -11.8970  -18.9280  -33.1490 C.3   140  LEU140      0.1596
    161  C        -12.7870  -20.1410  -32.8790 C.2   140  LEU140      0.2287
    162  O        -13.2260  -20.8110  -33.8150 O.2   140  LEU140     -0.2864
    163  CB       -12.6730  -17.9060  -33.9820 C.3   140  LEU140      0.0297
    164  CG       -13.9860  -17.4060  -33.3680 C.3   140  LEU140      0.0022
    165  CD1      -13.7170  -16.6620  -32.0710 C.3   140  LEU140      0.0001
    166  CD2      -14.7600  -16.5400  -34.3560 C.3   140  LEU140      0.0001
    167  N        -12.6580  -22.7270  -35.7960 N.3   151  GLY151     -0.1210
    168  CA       -12.2920  -22.1070  -37.0570 C.3   151  GLY151      0.1956
    169  C        -10.8590  -21.6240  -37.1070 C.2   151  GLY151      0.2612
    170  O        -10.3220  -21.1230  -36.1130 O.2   151  GLY151     -0.2717
    171  N        -10.2550  -21.7630  -38.2840 N.am  152  VAL152     -0.1965
    172  CA        -8.8590  -21.4010  -38.5000 C.3   152  VAL152      0.1727
    173  C         -8.7440  -20.5170  -39.7320 C.2   152  VAL152      0.2616
    174  O         -9.2490  -20.8710  -40.7920 O.2   152  VAL152     -0.2715
    175  CB        -7.9700  -22.6390  -38.6940 C.3   152  VAL152      0.0290
    176  CG1       -6.5440  -22.2120  -39.0900 C.3   152  VAL152      0.0023
    177  CG2       -7.9440  -23.4790  -37.4430 C.3   152  VAL152      0.0023
    178  N         -8.0750  -19.3750  -39.5830 N.am  153  GLY153     -0.1955
    179  CA        -7.7560  -18.5210  -40.7110 C.3   153  GLY153      0.1869
    180  C         -6.2470  -18.4760  -40.7940 C.2   153  GLY153      0.2309
    181  O         -5.5930  -17.8640  -39.9440 O.2   153  GLY153     -0.2863
    182  N         -2.8670  -17.5420  -42.9760 N.3   155  ASN155     -0.1240
    183  CA        -2.3840  -16.7010  -44.0780 C.3   155  ASN155      0.1653
    184  C         -1.3430  -17.4300  -44.8880 C.2   155  ASN155      0.2266
    185  O         -0.2470  -17.6950  -44.4000 O.2   155  ASN155     -0.2867
    186  CB        -1.8030  -15.3970  -43.5280 C.3   155  ASN155      0.1155
    187  CG        -2.8560  -14.5080  -42.9120 C.2   155  ASN155      0.2627
    188  OD1       -3.9560  -14.3860  -43.4410 O.2   155  ASN155     -0.2716
    189  ND2       -2.5260  -13.8830  -41.7870 N.am  155  ASN155     -0.0877
    190  N         -5.0580   -6.9290  -45.2390 N.3   163  VAL163     -0.1231
    191  CA        -5.8320   -7.4110  -44.0860 C.3   163  VAL163      0.1692
    192  C         -5.5510   -6.7000  -42.7600 C.2   163  VAL163      0.2592
    193  O         -6.4880   -6.3190  -42.0540 O.2   163  VAL163     -0.2718
    194  CB        -5.6260   -8.9430  -43.8790 C.3   163  VAL163      0.0266
    195  CG1       -6.3020   -9.7300  -44.9900 C.3   163  VAL163      0.0020
    196  CG2       -4.1460   -9.3180  -43.7820 C.3   163  VAL163      0.0020
    197  N         -4.2770   -6.5180  -42.4190 N.am  164  ASP164     -0.1974
    198  CA        -3.8920   -5.9390  -41.1330 C.3   164  ASP164      0.1709
    199  C         -2.3880   -5.7180  -41.0980 C.2   164  ASP164      0.2293
    200  O         -1.6300   -6.5690  -41.5600 O.2   164  ASP164     -0.2864
    201  CB        -4.3130   -6.8470  -39.9690 C.3   164  ASP164      0.1436
    202  CG        -4.1160   -6.1920  -38.6210 C.2   164  ASP164      0.3671
    203  OD1       -5.0030   -5.4120  -38.2020 O.co2 164  ASP164     -0.2456
    204  OD2       -3.0760   -6.4450  -37.9700 O.co2 164  ASP164     -0.2456
    205  N         -0.1340   -8.5150  -39.6970 N.3   167  ALA167     -0.1245
    206  CA        -0.2500   -9.8510  -40.2710 C.3   167  ALA167      0.1562
    207  C          1.0350  -10.2960  -40.9530 C.2   167  ALA167      0.2260
    208  O          1.9090   -9.4780  -41.2750 O.2   167  ALA167     -0.2867
    209  CB        -1.4020   -9.9040  -41.2520 C.3   167  ALA167      0.0290
    210  N         -7.3410   -9.4830  -25.2140 N.3   258  ASP258     -0.1239
    211  CA        -6.0410   -9.1260  -25.7790 C.3   258  ASP258      0.1674
    212  C         -4.9150   -9.1380  -24.7640 C.2   258  ASP258      0.2266
    213  O         -5.1150   -8.7670  -23.6090 O.2   258  ASP258     -0.2867
    214  CB        -6.1190   -7.7450  -26.4200 C.3   258  ASP258      0.1410
    215  CG        -7.2120   -7.6620  -27.4500 C.2   258  ASP258      0.3668
    216  OD1       -7.4440   -8.6840  -28.1350 O.co2 258  ASP258     -0.2456
    217  OD2       -7.8430   -6.5900  -27.5640 O.co2 258  ASP258     -0.2456
@<TRIPOS>BOND
     1    91    92    1
     2    94    93    2
     3    22    23    1
     4    93    92    1
     5    92    95    1
     6    23    24    1
     7    23    26    1
     8    24    25    2
     9   107   105    1
    10    95    96    1
    11    26    27    1
    12    96    97    1
    13   105   104    1
    14   190   191    1
    15   100   101    1
    16   104   101    1
    17   104   106    1
    18   195   194    1
    19   184   185    2
    20   184   183    1
    21   103   102    2
    22    99    97   am
    23    97    98    2
    24    88    89    2
    25    88    87    1
    26    27    28    1
    27   101   102    1
    28    13    11    1
    29   191   194    1
    30   191   192    1
    31   183   186    1
    32   183   182    1
    33   102   108   am
    34   194   196    1
    35    90    87    1
    36     1     2    1
    37   186   187    1
    38    87    86    1
    39   188   187    2
    40    28    29    2
    41    28    30   am
    42   187   189   am
    43   192   197   am
    44   192   193    2
    45   112   109    1
    46   112   113    1
    47   108   109    1
    48   115   113    1
    49    11     8    1
    50    11    12    1
    51     2     3    1
    52     2     5    1
    53     7     3   am
    54     7     8    1
    55   109   110    1
    56   197   198    1
    57     3     4    2
    58     8     9    1
    59    75    74    2
    60    86    74   am
    61   113   114    1
    62   200   199    2
    63    74    73    1
    64    80    78   ar
    65    80    81   ar
    66    78    77   ar
    67   208   207    2
    68   209   206    1
    69     5     6    1
    70   198   199    1
    71   198   201    1
    72   110   116   am
    73   110   111    2
    74   116   117    1
    75   207   206    1
    76     9    10    2
    77     9    14   am
    78   180   179    1
    79   180   181    2
    80   174   173    2
    81   179   178    1
    82   119   118    2
    83    81    83   ar
    84    81    79   ar
    85   206   205    1
    86    77    76    1
    87    77    79   ar
    88    73    76    1
    89    73    72    1
    90    83    85   ar
    91   201   202    1
    92    14    15    1
    93   173   178   am
    94   173   172    1
    95   117   118    1
    96   117   120    1
    97   121   120    1
    98    79    82   ar
    99    72    70   am
   100   141   140    2
   101    31    32    1
   102   176   175    1
   103    85    84   ar
   104   175   172    1
   105   175   177    1
   106   202   203   ar
   107   202   204   ar
   108    15    16    1
   109    15    18    1
   110   172   171    1
   111    16    17    2
   112    82    84   ar
   113    70    69    1
   114    70    71    2
   115   140   139    1
   116   171   169   am
   117    69    68    1
   118    36    37    1
   119    36    35    1
   120    32    35    1
   121    32    33    1
   122    18    19    1
   123    20    19    2
   124   138   139    1
   125   147   148    1
   126    37    38    1
   127    34    33    2
   128   169   168    1
   129   169   170    2
   130   139   142    1
   131   168   167    1
   132    40    39    1
   133    33    42   am
   134    19    21   am
   135   150   149    2
   136    68    59   am
   137   142   143    1
   138    38    39    2
   139    39    41    1
   140   143   144    1
   141    42    43    1
   142   148   149    1
   143    60    59    2
   144   149   151   am
   145    59    58    1
   146   144   145    1
   147   145   146    1
   148    43    44    1
   149   158   156    1
   150   151   152    1
   151    58    61    1
   152    58    57    1
   153   166   164    1
   154   152   153    1
   155   152   155    1
   156   163   164    1
   157   163   160    1
   158    61    62    1
   159    44    45    2
   160    44    46   am
   161   159   153   am
   162   159   160    1
   163   162   161    2
   164   156   155    1
   165   153   154    2
   166   164   165    1
   167   155   157    1
   168   160   161    1
   169    46    47    1
   170   125   124    2
   171    62    63    1
   172   132   131    1
   173   132   133    2
   174   131   134    1
   175   131   130    1
   176   136   135   ar
   177   135   137   ar
   178   135   134    1
   179    63    64    1
   180   124   130   am
   181   124   123    1
   182    49    48    2
   183    47    48    1
   184    47    50    1
   185   126   123    1
   186   126   127    1
   187    64    65    2
   188    50    51    1
   189   123   122    1
   190    66    65    1
   191    65    67    1
   192   127   129   am
   193   127   128    2
   194    51    52    1
   195    52    53    1
   196   216   215   ar
   197   217   215   ar
   198   215   214    1
   199    53    54    2
   200    56    54    1
   201    54    55    1
   202   214   211    1
   203   211   210    1
   204   211   212    1
   205   212   213    2
