@<TRIPOS>MOLECULE
tmp/4xu3A00.pdb
 205 194 0 0 0
SMALL
GASTEIGER

@<TRIPOS>ATOM
      1  N          4.4530   -9.0030   18.7560 N.3    36  SER36      -0.1202
      2  CA         3.4620   -9.5000   17.8080 C.3    36  SER36       0.2020
      3  C          3.0840  -10.9380   18.1420 C.2    36  SER36       0.2619
      4  O          3.9490  -11.8140   18.1870 O.2    36  SER36      -0.2717
      5  CB         3.9960   -9.4080   16.3770 C.3    36  SER36       0.2103
      6  OG         3.1070  -10.0110   15.4550 O.3    36  SER36      -0.2182
      7  N          1.7950  -11.1800   18.3750 N.am   37  THR37      -0.1938
      8  CA         1.3250  -12.5180   18.7300 C.3    37  THR37       0.2028
      9  C          1.5580  -13.4950   17.5860 C.2    37  THR37       0.2642
     10  O          1.8310  -14.6730   17.8120 O.2    37  THR37      -0.2714
     11  CB        -0.1720  -12.5310   19.1030 C.3    37  THR37       0.1808
     12  OG1       -0.9570  -12.1270   17.9760 O.3    37  THR37      -0.2208
     13  CG2       -0.4440  -11.5940   20.2670 C.3    37  THR37       0.0379
     14  N          1.4460  -13.0030   16.3570 N.am   38  ASN38      -0.1971
     15  CA         1.7560  -13.8210   15.1930 C.3    38  ASN38       0.1688
     16  C          3.2260  -14.2240   15.1850 C.2    38  ASN38       0.2292
     17  O          3.5520  -15.3930   14.9920 O.2    38  ASN38      -0.2864
     18  CB         1.4060  -13.0840   13.9010 C.3    38  ASN38       0.1181
     19  CG         0.0880  -13.5400   13.3120 C.2    38  ASN38       0.2629
     20  OD1       -0.8290  -13.9210   14.0380 O.2    38  ASN38      -0.2716
     21  ND2       -0.0100  -13.5150   11.9890 N.am   38  ASN38      -0.0877
     22  N         -0.1560   -4.9120   22.0700 N.3    61  GLN61      -0.1245
     23  CA         0.7480   -5.3240   21.0040 C.3    61  GLN61       0.1566
     24  C          1.5150   -4.1100   20.4840 C.2    61  GLN61       0.2260
     25  O          0.9140   -3.1640   19.9750 O.2    61  GLN61      -0.2867
     26  CB        -0.0340   -6.0010   19.8770 C.3    61  GLN61       0.0367
     27  CG         0.8120   -6.8260   18.9230 C.3    61  GLN61       0.0905
     28  CD        -0.0290   -7.5930   17.9200 C.2    61  GLN61       0.2608
     29  OE1        0.0090   -8.8220   17.8730 O.2    61  GLN61      -0.2717
     30  NE2       -0.7920   -6.8690   17.1100 N.am   61  GLN61      -0.0878
     31  N          2.7680   -4.7080   16.0330 N.3    64  GLY64      -0.1210
     32  CA         1.8040   -5.5170   15.3090 C.3    64  GLY64       0.1956
     33  C          2.0720   -5.6100   13.8210 C.2    64  GLY64       0.2612
     34  O          2.4570   -4.6290   13.1850 O.2    64  GLY64      -0.2717
     35  N          1.8680   -6.8000   13.2650 N.am   65  ARG65      -0.1965
     36  CA         2.0640   -7.0250   11.8390 C.3    65  ARG65       0.1729
     37  C          0.7630   -6.8520   11.0670 C.2    65  ARG65       0.2617
     38  O         -0.3240   -7.0980   11.5920 O.2    65  ARG65      -0.2715
     39  CB         2.6240   -8.4250   11.5790 C.3    65  ARG65       0.0348
     40  CG         4.0070   -8.6920   12.1470 C.3    65  ARG65       0.0492
     41  CD         4.4420  -10.1100   11.8060 C.3    65  ARG65       0.2205
     42  NE         5.7970  -10.4100   12.2550 N.pl3  65  ARG65      -0.0865
     43  CZ         6.4190  -11.5600   12.0190 C.cat  65  ARG65       0.5346
     44  NH1        5.8050  -12.5160   11.3360 N.pl3  65  ARG65       0.1354
     45  NH2        7.6540  -11.7560   12.4630 N.pl3  65  ARG65       0.1354
     46  N          0.8850   -6.4340    9.8120 N.am   66  GLY66      -0.1940
     47  CA        -0.2500   -6.3460    8.9160 C.3    66  GLY66       0.2014
     48  C          0.0960   -7.0200    7.6050 C.2    66  GLY66       0.2638
     49  O          1.2320   -7.4500    7.4060 O.2    66  GLY66      -0.2714
     50  N         -0.8790   -7.1170    6.7090 N.am   67  ARG67      -0.1977
     51  CA        -0.6410   -7.7140    5.4020 C.3    67  ARG67       0.1597
     52  C          0.2700   -6.8320    4.5560 C.2    67  ARG67       0.2287
     53  O          0.3200   -5.6160    4.7470 O.2    67  ARG67      -0.2864
     54  CB        -1.9610   -7.9550    4.6670 C.3    67  ARG67       0.0334
     55  CG        -2.8940   -8.9310    5.3590 C.3    67  ARG67       0.0492
     56  CD        -4.0020   -9.3850    4.4210 C.3    67  ARG67       0.2205
     57  NE        -4.8190   -8.2720    3.9460 N.pl3  67  ARG67      -0.0865
     58  CZ        -5.9540   -7.8790    4.5180 C.cat  67  ARG67       0.5346
     59  NH1       -6.4120   -8.5070    5.5930 N.pl3  67  ARG67       0.1354
     60  NH2       -6.6320   -6.8570    4.0140 N.pl3  67  ARG67       0.1354
     61  N          2.7520   -4.2850    6.2220 N.3    70  ARG70      -0.1231
     62  CA         2.2390   -3.1370    6.9600 C.3    70  ARG70       0.1694
     63  C          2.1740   -3.4360    8.4520 C.2    70  ARG70       0.2593
     64  O          2.4840   -4.5460    8.8850 O.2    70  ARG70      -0.2718
     65  CB         0.8630   -2.7250    6.4360 C.3    70  ARG70       0.0321
     66  CG         0.9240   -1.7450    5.2750 C.3    70  ARG70       0.0489
     67  CD         0.3200   -2.3290    4.0110 C.3    70  ARG70       0.2205
     68  NE        -1.0880   -2.6680    4.1890 N.pl3  70  ARG70      -0.0865
     69  CZ        -1.9320   -2.8990    3.1900 C.cat  70  ARG70       0.5346
     70  NH1       -1.5130   -2.8220    1.9340 N.pl3  70  ARG70       0.1354
     71  NH2       -3.1960   -3.2030    3.4470 N.pl3  70  ARG70       0.1354
     72  N          1.7780   -2.4400    9.2360 N.am   71  GLY71      -0.1942
     73  CA         1.7320   -2.5830   10.6790 C.3    71  GLY71       0.2014
     74  C          0.3260   -2.7460   11.2160 C.2    71  GLY71       0.2639
     75  O         -0.6370   -2.8290   10.4530 O.2    71  GLY71      -0.2714
     76  N          0.2120   -2.8020   12.5380 N.am   72  TRP72      -0.1959
     77  CA        -1.0850   -2.8710   13.1990 C.3    72  TRP72       0.1771
     78  C         -1.0050   -2.1560   14.5410 C.2    72  TRP72       0.2619
     79  O         -0.3160   -2.6110   15.4540 O.2    72  TRP72      -0.2715
     80  CB        -1.5300   -4.3240   13.3860 C.3    72  TRP72       0.0590
     81  CG        -2.9100   -4.4570   13.9610 C.ar   72  TRP72       0.0006
     82  CD1       -3.2360   -4.7650   15.2490 C.ar   72  TRP72       0.0946
     83  CD2       -4.1510   -4.2730   13.2670 C.ar   72  TRP72       0.0152
     84  NE1       -4.6020   -4.7900   15.3990 N.ar   72  TRP72      -0.2442
     85  CE2       -5.1860   -4.4910   14.1970 C.ar   72  TRP72       0.0810
     86  CE3       -4.4860   -3.9470   11.9490 C.ar   72  TRP72       0.0012
     87  CZ2       -6.5330   -4.3940   13.8520 C.ar   72  TRP72       0.0191
     88  CZ3       -5.8250   -3.8530   11.6070 C.ar   72  TRP72       0.0001
     89  CH2       -6.8310   -4.0750   12.5550 C.ar   72  TRP72       0.0015
     90  N         -1.7040   -1.0320   14.6540 N.am   73  ALA73      -0.1977
     91  CA        -1.6250   -0.2040   15.8520 C.3    73  ALA73       0.1597
     92  C         -2.6090   -0.6730   16.9160 C.2    73  ALA73       0.2287
     93  O         -3.6710   -1.2080   16.5980 O.2    73  ALA73      -0.2864
     94  CB        -1.8750    1.2550   15.5040 C.3    73  ALA73       0.0319
     95  N         -8.3340   -3.7880   22.4350 N.3    79  GLN79      -0.1245
     96  CA        -8.6730   -4.7590   21.4030 C.3    79  GLN79       0.1566
     97  C         -8.6890   -6.1840   21.9360 C.2    79  GLN79       0.2260
     98  O         -8.2890   -6.4460   23.0700 O.2    79  GLN79      -0.2867
     99  CB        -7.6810   -4.6800   20.2370 C.3    79  GLN79       0.0367
    100  CG        -7.5190   -3.3080   19.6070 C.3    79  GLN79       0.0905
    101  CD        -6.5590   -3.3290   18.4310 C.2    79  GLN79       0.2608
    102  OE1       -6.2790   -4.3870   17.8630 O.2    79  GLN79      -0.2717
    103  NE2       -6.0420   -2.1620   18.0670 N.am   79  GLN79      -0.0878
    104  N         -6.6200   -9.1650   20.9070 N.3    81  ILE81      -0.1231
    105  CA        -5.4320   -9.4330   20.1100 C.3    81  ILE81       0.1692
    106  C         -4.9670  -10.8650   20.3170 C.2    81  ILE81       0.2592
    107  O         -4.3930  -11.1940   21.3540 O.2    81  ILE81      -0.2718
    108  CB        -4.2930   -8.4590   20.4670 C.3    81  ILE81       0.0266
    109  CG1       -4.7350   -7.0140   20.2300 C.3    81  ILE81       0.0019
    110  CG2       -3.0400   -8.7770   19.6690 C.3    81  ILE81       0.0020
    111  CD1       -3.6870   -5.9850   20.5930 C.3    81  ILE81       0.0001
    112  N         -5.2190  -11.7200   19.3320 N.am   82  LEU82      -0.1966
    113  CA        -4.8830  -13.1290   19.4760 C.3    82  LEU82       0.1728
    114  C         -4.3220  -13.7560   18.2070 C.2    82  LEU82       0.2616
    115  O         -4.5320  -13.2620   17.1000 O.2    82  LEU82      -0.2715
    116  CB        -6.1110  -13.9250   19.9430 C.3    82  LEU82       0.0311
    117  CG        -7.4220  -13.8900   19.1490 C.3    82  LEU82       0.0022
    118  CD1       -7.4020  -14.8300   17.9490 C.3    82  LEU82       0.0001
    119  CD2       -8.5860  -14.2380   20.0630 C.3    82  LEU82       0.0001
    120  N         -3.6060  -14.8580   18.3940 N.am   83  SER83      -0.1950
    121  CA        -3.1420  -15.6850   17.2940 C.3    83  SER83       0.1924
    122  C         -3.4180  -17.1450   17.6290 C.2    83  SER83       0.2314
    123  O         -3.3290  -17.5440   18.7900 O.2    83  SER83      -0.2863
    124  CB        -1.6490  -15.4630   17.0310 C.3    83  SER83       0.2116
    125  OG        -1.4000  -14.1600   16.5310 O.3    83  SER83      -0.2180
    126  N        -11.3900   -8.4910    5.6830 N.3   128  ASP128     -0.1239
    127  CA       -11.6680   -7.2840    6.4490 C.3   128  ASP128      0.1674
    128  C        -13.0800   -7.3330    7.0160 C.2   128  ASP128      0.2266
    129  O        -14.0520   -7.4570    6.2710 O.2   128  ASP128     -0.2867
    130  CB       -11.4970   -6.0360    5.5800 C.3   128  ASP128      0.1410
    131  CG       -10.0580   -5.5770    5.4900 C.2   128  ASP128      0.3668
    132  OD1       -9.1510   -6.3890    5.7710 O.co2 128  ASP128     -0.2456
    133  OD2       -9.8340   -4.4020    5.1330 O.co2 128  ASP128     -0.2456
    134  N        -13.1960   -0.2010    9.4620 N.3   135  LYS135     -0.1245
    135  CA       -12.5600   -1.4980    9.6540 C.3   135  LYS135      0.1561
    136  C        -12.6480   -1.9300   11.1140 C.2   135  LYS135      0.2260
    137  O        -11.9390   -1.4040   11.9730 O.2   135  LYS135     -0.2867
    138  CB       -11.1020   -1.4560    9.1960 C.3   135  LYS135      0.0271
    139  CG       -10.4280   -2.8180    9.1700 C.3   135  LYS135      0.0035
    140  CD        -9.0970   -2.7640    8.4410 C.3   135  LYS135      0.0206
    141  CE        -8.4550   -4.1410    8.3710 C.3   135  LYS135      0.1093
    142  NZ        -7.2110   -4.1360    7.5550 N.3   135  LYS135     -0.1314
    143  N         -9.0440   -6.8520   11.6240 N.3   138  GLY138     -0.1210
    144  CA        -8.1110   -7.2410   10.5810 C.3   138  GLY138      0.1956
    145  C         -7.5360   -8.6240   10.8260 C.2   138  GLY138      0.2612
    146  O         -7.2720   -8.9970   11.9690 O.2   138  GLY138     -0.2717
    147  N         -7.3390   -9.3840    9.7500 N.am  139  ILE139     -0.1965
    148  CA        -6.8430  -10.7540    9.8500 C.3   139  ILE139      0.1727
    149  C         -5.5220  -10.9380    9.1030 C.2   139  ILE139      0.2616
    150  O         -5.3510  -10.4290    7.9950 O.2   139  ILE139     -0.2715
    151  CB        -7.8670  -11.7670    9.2900 C.3   139  ILE139      0.0290
    152  CG1       -9.2860  -11.4280    9.7560 C.3   139  ILE139      0.0022
    153  CG2       -7.4830  -13.1920    9.6760 C.3   139  ILE139      0.0023
    154  CD1       -9.5030  -11.5960   11.2400 C.3   139  ILE139      0.0001
    155  N         -4.5920  -11.6710    9.7100 N.am  140  LEU140     -0.1977
    156  CA        -3.3140  -11.9690    9.0680 C.3   140  LEU140      0.1596
    157  C         -2.9580  -13.4480    9.1820 C.2   140  LEU140      0.2287
    158  O         -2.8340  -13.9850   10.2830 O.2   140  LEU140     -0.2864
    159  CB        -2.1950  -11.1210    9.6740 C.3   140  LEU140      0.0297
    160  CG        -0.8060  -11.3540    9.0720 C.3   140  LEU140      0.0022
    161  CD1       -0.7780  -10.9450    7.6060 C.3   140  LEU140      0.0001
    162  CD2        0.2650  -10.6150    9.8590 C.3   140  LEU140      0.0001
    163  N         -3.9500  -14.7010   12.7140 N.3   151  GLY151     -0.1210
    164  CA        -3.9440  -13.5550   13.6050 C.3   151  GLY151      0.1956
    165  C         -5.1950  -12.7090   13.4810 C.2   151  GLY151      0.2612
    166  O         -5.6580  -12.4260   12.3770 O.2   151  GLY151     -0.2717
    167  N         -5.7440  -12.3050   14.6210 N.am  152  VAL152     -0.1965
    168  CA        -6.9520  -11.4900   14.6430 C.3   152  VAL152      0.1727
    169  C         -6.7600  -10.2410   15.4950 C.2   152  VAL152      0.2616
    170  O         -6.3460  -10.3210   16.6520 O.2   152  VAL152     -0.2715
    171  CB        -8.1630  -12.2830   15.1790 C.3   152  VAL152      0.0290
    172  CG1       -9.3630  -11.3680   15.3570 C.3   152  VAL152      0.0023
    173  CG2       -8.5000  -13.4380   14.2490 C.3   152  VAL152      0.0023
    174  N         -7.0540   -9.0870   14.9080 N.am  153  GLY153     -0.1955
    175  CA        -7.0410   -7.8330   15.6340 C.3   153  GLY153      0.1869
    176  C         -8.4210   -7.2130   15.5840 C.2   153  GLY153      0.2309
    177  O         -8.8100   -6.6420   14.5680 O.2   153  GLY153     -0.2863
    178  N        -11.1390   -4.5300   17.0990 N.3   155  ASN155     -0.1240
    179  CA       -11.3220   -3.3080   17.8760 C.3   155  ASN155      0.1653
    180  C        -12.5720   -3.3700   18.7430 C.2   155  ASN155      0.2266
    181  O        -13.6940   -3.3580   18.2370 O.2   155  ASN155     -0.2867
    182  CB       -11.3990   -2.0870   16.9580 C.3   155  ASN155      0.1155
    183  CG       -10.1570   -1.9110   16.1120 C.2   155  ASN155      0.2627
    184  OD1      -10.2420   -1.7240   14.8980 O.2   155  ASN155     -0.2716
    185  ND2       -8.9930   -1.9730   16.7480 N.am  155  ASN155     -0.0877
    186  N         -5.5630    4.7010   16.3150 N.3   163  VAL163     -0.1231
    187  CA        -5.0180    3.6510   15.4580 C.3   163  VAL163      0.1692
    188  C         -5.0540    3.9610   13.9570 C.2   163  VAL163      0.2592
    189  O         -4.0380    3.8260   13.2770 O.2   163  VAL163     -0.2718
    190  CB        -5.7520    2.3100   15.7010 C.3   163  VAL163      0.0266
    191  CG1       -5.2350    1.6490   16.9680 C.3   163  VAL163      0.0020
    192  CG2       -7.2600    2.5180   15.7790 C.3   163  VAL163      0.0020
    193  N         -6.2110    4.3720   13.4430 N.am  164  ASP164     -0.1974
    194  CA        -6.3880    4.5550   12.0040 C.3   164  ASP164      0.1709
    195  C         -7.6910    5.2900   11.6920 C.2   164  ASP164      0.2293
    196  O         -8.7320    4.9870   12.2750 O.2   164  ASP164     -0.2864
    197  CB        -6.3650    3.1980   11.2900 C.3   164  ASP164      0.1436
    198  CG        -6.2530    3.3290    9.7830 C.2   164  ASP164      0.3671
    199  OD1       -5.1130    3.3700    9.2740 O.co2 164  ASP164     -0.2456
    200  OD2       -7.3010    3.3930    9.1080 O.co2 164  ASP164     -0.2456
    201  N        -10.7320    3.2050   10.8210 N.3   167  ALA167     -0.1245
    202  CA       -11.0660    2.1630   11.7850 C.3   167  ALA167      0.1562
    203  C        -12.3460    2.4680   12.5560 C.2   167  ALA167      0.2260
    204  O        -12.7450    3.6240   12.6970 O.2   167  ALA167     -0.2867
    205  CB        -9.9120    1.9580   12.7550 C.3   167  ALA167      0.0290
@<TRIPOS>BOND
     1    70    69    1
     2    69    71    1
     3    69    68    2
     4    57    56    1
     5    57    58    2
     6    67    68    1
     7    67    66    1
     8    60    58    1
     9    56    55    1
    10    58    59    1
    11    52    53    2
    12    52    51    1
    13    54    55    1
    14    54    51    1
    15   133   131   ar
    16    66    65    1
    17    51    50    1
    18   131   130    1
    19   131   132   ar
    20   130   127    1
    21   126   127    1
    22    61    62    1
    23   129   128    2
    24    65    62    1
    25   127   128    1
    26    50    48   am
    27    62    63    1
    28    49    48    2
    29   142   141    1
    30    48    47    1
    31   161   160    1
    32   150   149    2
    33   141   140    1
    34   140   139    1
    35    63    64    2
    36    63    72   am
    37    47    46    1
    38   156   157    1
    39   156   159    1
    40   156   155    1
    41   160   159    1
    42   160   162    1
    43   149   155   am
    44   149   148    1
    45   200   198   ar
    46   139   138    1
    47   157   158    2
    48   138   135    1
    49    72    73    1
    50   199   198   ar
    51   151   153    1
    52   151   152    1
    53   151   148    1
    54   134   135    1
    55   135   136    1
    56   147   148    1
    57   147   145   am
    58   152   154    1
    59   198   197    1
    60    46    37   am
    61    75    74    2
    62   144   145    1
    63   144   143    1
    64    73    74    1
    65   201   202    1
    66   145   146    2
    67    37    38    2
    68    37    36    1
    69   136   137    2
    70    74    76   am
    71   197   194    1
    72    44    43    1
    73    39    36    1
    74    39    40    1
    75    88    86   ar
    76    88    89   ar
    77   195   194    1
    78   195   196    2
    79   202   203    1
    80   202   205    1
    81    41    40    1
    82    41    42    1
    83    36    35    1
    84    86    83   ar
    85    21    19   am
    86   194   193    1
    87    43    42    2
    88    43    45    1
    89   166   165    2
    90    76    77    1
    91    89    87   ar
    92   203   204    2
    93   163   164    1
    94    34    33    2
    95    77    80    1
    96    77    78    1
    97    35    33   am
    98    83    81   ar
    99    83    85   ar
   100   189   188    2
   101    19    18    1
   102    19    20    2
   103    80    81    1
   104   193   188   am
   105   165   164    1
   106   165   167   am
   107    33    32    1
   108    87    85   ar
   109    18    15    1
   110   188   187    1
   111    81    82   ar
   112    85    84   ar
   113   173   171    1
   114    78    90   am
   115    78    79    2
   116   177   176    2
   117   167   168    1
   118   168   171    1
   119   168   169    1
   120    90    91    1
   121   184   183    2
   122   174   169   am
   123   174   175    1
   124    17    16    2
   125   171   172    1
   126    16    15    1
   127    15    14    1
   128    82    84   ar
   129    32    31    1
   130     6     5    1
   131   187   190    1
   132   187   186    1
   133   169   170    2
   134    94    91    1
   135   176   175    1
   136   190   192    1
   137   190   191    1
   138    91    92    1
   139   183   185   am
   140   183   182    1
   141    14     9   am
   142     5     2    1
   143   125   124    1
   144    93    92    2
   145   182   179    1
   146   124   121    1
   147   178   179    1
   148   115   114    2
   149    30    28   am
   150   121   122    1
   151   121   120    1
   152     9    10    2
   153     9     8    1
   154   122   123    2
   155     2     3    1
   156     2     1    1
   157   102   101    2
   158    29    28    2
   159   179   180    1
   160    28    27    1
   161   118   117    1
   162    12    11    1
   163   103   101   am
   164     3     4    2
   165     3     7   am
   166   114   120   am
   167   114   113    1
   168   181   180    2
   169     7     8    1
   170   101   100    1
   171     8    11    1
   172    27    26    1
   173    11    13    1
   174   117   116    1
   175   117   119    1
   176   112   113    1
   177   112   106   am
   178   113   116    1
   179   100    99    1
   180   110   108    1
   181    26    23    1
   182    25    24    2
   183   105   106    1
   184   105   108    1
   185   105   104    1
   186   109   108    1
   187   109   111    1
   188    99    96    1
   189   106   107    2
   190    24    23    1
   191    23    22    1
   192    96    97    1
   193    96    95    1
   194    97    98    2
