@<TRIPOS>MOLECULE
tmp/4xu4A03.pdb
 71 64 0 0 0
SMALL
GASTEIGER

@<TRIPOS>ATOM
      1  N         80.1480   60.7900    5.6660 N.3    75  THR75      -0.1218
      2  CA        81.2870   61.6990    5.5100 C.3    75  THR75       0.1862
      3  C         81.4100   62.2340    4.0880 C.2    75  THR75       0.2287
      4  O         80.8700   61.6530    3.1480 O.2    75  THR75      -0.2866
      5  CB        82.6190   61.0070    5.8900 C.3    75  THR75       0.1770
      6  OG1       82.8550   59.9130    4.9960 O.3    75  THR75      -0.2211
      7  CG2       82.5590   60.4670    7.3160 C.3    75  THR75       0.0375
      8  N         84.0040   62.0970    2.3720 N.3    77  ARG77      -0.1231
      9  CA        84.7710   61.0650    1.6730 C.3    77  ARG77       0.1694
     10  C         83.8430   60.0410    1.0150 C.2    77  ARG77       0.2591
     11  O         84.0350   59.6590   -0.1460 O.2    77  ARG77      -0.2718
     12  CB        85.7230   60.3870    2.6610 C.3    77  ARG77       0.0321
     13  CG        86.4980   59.2070    2.0950 C.3    77  ARG77       0.0489
     14  CD        87.2400   58.4590    3.1990 C.3    77  ARG77       0.2205
     15  NE        88.3110   59.2630    3.7960 N.pl3  77  ARG77      -0.0865
     16  CZ        89.5590   59.3010    3.3400 C.cat  77  ARG77       0.5346
     17  NH1       89.8930   58.5840    2.2710 N.pl3  77  ARG77       0.1354
     18  NH2       90.4710   60.0540    3.9480 N.pl3  77  ARG77       0.1354
     19  N         82.8190   59.6060    1.7470 N.am   78  GLN78      -0.1979
     20  CA        81.8450   58.6670    1.1890 C.3    78  GLN78       0.1601
     21  C         81.0550   59.3130    0.0640 C.2    78  GLN78       0.2287
     22  O         80.7300   58.6700   -0.9430 O.2    78  GLN78      -0.2864
     23  CB        80.8890   58.1650    2.2850 C.3    78  GLN78       0.0394
     24  CG        81.5250   57.1800    3.2520 C.3    78  GLN78       0.0908
     25  CD        80.7140   57.0130    4.5320 C.2    78  GLN78       0.2608
     26  OE1       79.9160   57.8830    4.8930 O.2    78  GLN78      -0.2717
     27  NE2       80.9130   55.8930    5.2190 N.am   78  GLN78      -0.0878
     28  N         83.1280   59.6000   -3.0980 N.3    81  GLY81      -0.1225
     29  CA        83.2060   58.2790   -3.6930 C.3    81  GLY81       0.1811
     30  C         81.9300   57.9170   -4.4310 C.2    81  GLY81       0.2280
     31  O         81.9820   57.3240   -5.4980 O.2    81  GLY81      -0.2866
     32  N         81.4090   57.3360   -8.4000 N.3    85  ALA85      -0.1245
     33  CA        80.8910   56.0600   -8.8980 C.3    85  ALA85       0.1562
     34  C         79.7790   56.2930   -9.9170 C.2    85  ALA85       0.2260
     35  O         79.7270   55.6410  -10.9590 O.2    85  ALA85      -0.2867
     36  CB        80.3870   55.1920   -7.7450 C.3    85  ALA85       0.0290
     37  N         77.6190   47.6910  -11.3590 N.3   111  ALA111     -0.1245
     38  CA        78.1390   48.9400  -10.7980 C.3   111  ALA111      0.1562
     39  C         77.1750   49.5190   -9.7620 C.2   111  ALA111      0.2260
     40  O         77.5930   50.0010   -8.7040 O.2   111  ALA111     -0.2867
     41  CB        78.4080   49.9500  -11.9150 C.3   111  ALA111      0.0290
     42  N         77.1720   47.3750   -6.5130 N.3   114  ILE114     -0.1231
     43  CA        78.3750   47.6280   -5.7210 C.3   114  ILE114      0.1692
     44  C         78.3050   48.9970   -5.0350 C.2   114  ILE114      0.2592
     45  O         78.6890   49.1340   -3.8750 O.2   114  ILE114     -0.2718
     46  CB        79.6460   47.5060   -6.5850 C.3   114  ILE114      0.0266
     47  CG1       79.8780   46.0360   -6.9560 C.3   114  ILE114      0.0019
     48  CG2       80.8630   48.0230   -5.8410 C.3   114  ILE114      0.0020
     49  CD1       80.9400   45.8410   -8.0230 C.3   114  ILE114      0.0001
     50  N         77.8000   50.0020   -5.7490 N.am  115  THR115     -0.1953
     51  CA        77.6110   51.3350   -5.1590 C.3   115  THR115      0.1897
     52  C         76.6980   51.2490   -3.9360 C.2   115  THR115      0.2313
     53  O         76.9990   51.8110   -2.8800 O.2   115  THR115     -0.2863
     54  CB        77.0120   52.3310   -6.1850 C.3   115  THR115      0.1794
     55  OG1       77.8570   52.3850   -7.3390 O.3   115  THR115     -0.2208
     56  CG2       76.8820   53.7370   -5.5740 C.3   115  THR115      0.0378
     57  N         78.4820   49.4320   -0.9330 N.3   118  VAL118     -0.1231
     58  CA        79.4850   50.2200   -0.2300 C.3   118  VAL118      0.1692
     59  C         78.8700   51.3880    0.5580 C.2   118  VAL118      0.2591
     60  O         79.3350   51.7260    1.6440 O.2   118  VAL118     -0.2718
     61  CB        80.5540   50.7610   -1.2080 C.3   118  VAL118      0.0266
     62  CG1       81.5920   51.5810   -0.4660 C.3   118  VAL118      0.0020
     63  CG2       81.2240   49.6070   -1.9570 C.3   118  VAL118      0.0020
     64  N         77.8130   51.9860    0.0160 N.am  119  LEU119     -0.1980
     65  CA        77.3340   53.2780    0.5230 C.3   119  LEU119      0.1596
     66  C         75.8800   53.3100    1.0020 C.2   119  LEU119      0.2287
     67  O         75.5010   54.1830    1.7890 O.2   119  LEU119     -0.2864
     68  CB        77.5030   54.3550   -0.5580 C.3   119  LEU119      0.0297
     69  CG        78.9340   54.6140   -1.0130 C.3   119  LEU119      0.0022
     70  CD1       78.9140   55.5540   -2.1990 C.3   119  LEU119      0.0001
     71  CD2       79.7460   55.2210    0.1300 C.3   119  LEU119      0.0001
@<TRIPOS>BOND
     1    41    38    1
     2    37    38    1
     3    35    34    2
     4    38    39    1
     5    34    33    1
     6    39    40    2
     7    33    32    1
     8    33    36    1
     9    49    47    1
    10    55    54    1
    11    47    46    1
    12    46    48    1
    13    46    43    1
    14    42    43    1
    15    54    56    1
    16    54    51    1
    17    50    51    1
    18    50    44   am
    19    43    44    1
    20    31    30    2
    21    51    52    1
    22    44    45    2
    23    30    29    1
    24    52    53    2
    25    29    28    1
    26    70    69    1
    27    63    61    1
    28    61    62    1
    29    61    58    1
    30    69    68    1
    31    69    71    1
    32    22    21    2
    33    57    58    1
    34    68    65    1
    35    58    59    1
    36    11    10    2
    37    64    65    1
    38    64    59   am
    39    21    20    1
    40    65    66    1
    41    59    60    2
    42    66    67    2
    43    10     9    1
    44    10    19   am
    45    20    19    1
    46    20    23    1
    47     9     8    1
    48     9    12    1
    49    13    12    1
    50    13    14    1
    51    17    16    1
    52    23    24    1
    53     4     3    2
    54    14    15    1
    55    24    25    1
    56    16    15    2
    57    16    18    1
    58     3     2    1
    59    25    26    2
    60    25    27   am
    61     6     5    1
    62     2     1    1
    63     2     5    1
    64     5     7    1
