@<TRIPOS>MOLECULE
tmp/4xu4A02.pdb
 203 191 0 0 0
SMALL
GASTEIGER

@<TRIPOS>ATOM
      1  N         75.6250   70.4920   -8.0190 N.3    14  LEU14      -0.1231
      2  CA        76.3710   69.2450   -8.1440 C.3    14  LEU14       0.1693
      3  C         75.7160   68.3250   -9.1720 C.2    14  LEU14       0.2592
      4  O         76.3830   67.8200  -10.0860 O.2    14  LEU14      -0.2718
      5  CB        76.4710   68.5610   -6.7750 C.3    14  LEU14       0.0284
      6  CG        77.1920   67.2210   -6.6700 C.3    14  LEU14       0.0019
      7  CD1       78.5750   67.3100   -7.3050 C.3    14  LEU14       0.0001
      8  CD2       77.3000   66.8190   -5.1960 C.3    14  LEU14       0.0001
      9  N         74.4060   68.1210   -9.0430 N.am   15  GLY15      -0.1957
     10  CA        73.6770   67.2990   -9.9930 C.3    15  GLY15       0.1869
     11  C         73.7320   67.8490  -11.4130 C.2    15  GLY15       0.2309
     12  O         73.8860   67.0940  -12.3800 O.2    15  GLY15      -0.2863
     13  N         77.3310   67.2910  -12.9760 N.3    18  ALA18      -0.1231
     14  CA        77.4940   65.8840  -13.3310 C.3    18  ALA18       0.1694
     15  C         76.6070   65.4810  -14.5150 C.2    18  ALA18       0.2591
     16  O         77.0290   64.7190  -15.3870 O.2    18  ALA18      -0.2718
     17  CB        77.2250   64.9980  -12.1270 C.3    18  ALA18       0.0304
     18  N         75.3840   66.0020  -14.5590 N.am   19  ALA19      -0.1980
     19  CA        74.4930   65.7310  -15.6850 C.3    19  ALA19       0.1597
     20  C         75.0590   66.2410  -17.0040 C.2    19  ALA19       0.2287
     21  O         74.9830   65.5580  -18.0250 O.2    19  ALA19      -0.2864
     22  CB        73.1220   66.3330  -15.4430 C.3    19  ALA19       0.0319
     23  N         75.7980   63.8850  -20.0160 N.3    23  ASP23      -0.1239
     24  CA        74.9940   64.0810  -21.2160 C.3    23  ASP23       0.1674
     25  C         75.8600   64.4750  -22.4120 C.2    23  ASP23       0.2266
     26  O         75.6080   64.0350  -23.5270 O.2    23  ASP23      -0.2867
     27  CB        73.9110   65.1210  -20.9730 C.3    23  ASP23       0.1410
     28  CG        72.7670   65.0170  -21.9680 C.2    23  ASP23       0.3668
     29  OD1       72.3270   63.8850  -22.2890 O.co2  23  ASP23      -0.2456
     30  OD2       72.3060   66.0820  -22.4310 O.co2  23  ASP23      -0.2456
     31  N         77.1830   61.2170  -23.6980 N.3    26  HIS26      -0.1241
     32  CA        76.1920   60.5090  -24.5150 C.3    26  HIS26       0.1621
     33  C         76.0470   61.1370  -25.9050 C.2    26  HIS26       0.2264
     34  O         75.9130   60.4270  -26.9020 O.2    26  HIS26      -0.2867
     35  CB        74.8250   60.4840  -23.8160 C.3    26  HIS26       0.0745
     36  CG        74.6860   59.3710  -22.8090 C.ar   26  HIS26       0.0817
     37  ND1       73.5760   59.2350  -22.0180 N.ar   26  HIS26      -0.2268
     38  CD2       75.5170   58.3540  -22.4980 C.ar   26  HIS26       0.1154
     39  CE1       73.7270   58.1610  -21.2380 C.ar   26  HIS26       0.1986
     40  NE2       74.8970   57.6190  -21.5160 N.ar   26  HIS26      -0.2212
     41  N         72.9780   59.3240  -27.6400 N.3    32  THR32      -0.1218
     42  CA        71.7200   60.0500  -27.8170 C.3    32  THR32       0.1862
     43  C         71.9150   61.1830  -28.8240 C.2    32  THR32       0.2287
     44  O         73.0470   61.5880  -29.0970 O.2    32  THR32      -0.2866
     45  CB        71.2220   60.6800  -26.5030 C.3    32  THR32       0.1770
     46  OG1       72.2270   61.5650  -25.9920 O.3    32  THR32      -0.2211
     47  CG2       70.9130   59.6090  -25.4590 C.3    32  THR32       0.0375
     48  N         69.8260   65.0210  -29.7690 N.3    34  TYR34      -0.1241
     49  CA        68.6980   65.8990  -29.4750 C.3    34  TYR34       0.1605
     50  C         68.0100   66.3840  -30.7610 C.2    34  TYR34       0.2264
     51  O         68.6460   66.5110  -31.8070 O.2    34  TYR34      -0.2867
     52  CB        69.1350   67.0920  -28.6250 C.3    34  TYR34       0.0534
     53  CG        69.3460   66.7600  -27.1620 C.ar   34  TYR34      -0.0201
     54  CD1       68.2640   66.6290  -26.2990 C.ar   34  TYR34      -0.0009
     55  CD2       70.6260   66.5860  -26.6420 C.ar   34  TYR34      -0.0009
     56  CE1       68.4440   66.3260  -24.9560 C.ar   34  TYR34       0.0417
     57  CE2       70.8160   66.2840  -25.2900 C.ar   34  TYR34       0.0417
     58  CZ        69.7160   66.1590  -24.4610 C.ar   34  TYR34       0.1957
     59  OH        69.8840   65.8660  -23.1300 O.3    34  TYR34      -0.2866
     60  N         67.7500   70.4450  -19.2070 N.3    49  PHE49      -0.1241
     61  CA        68.2640   69.1440  -18.7850 C.3    49  PHE49       0.1605
     62  C         69.0200   69.2000  -17.4440 C.2    49  PHE49       0.2264
     63  O         68.6650   68.4660  -16.5070 O.2    49  PHE49      -0.2867
     64  CB        69.0900   68.4600  -19.8870 C.3    49  PHE49       0.0534
     65  CG        69.7110   67.1690  -19.4430 C.ar   49  PHE49      -0.0203
     66  CD1       68.9400   66.0220  -19.3460 C.ar   49  PHE49      -0.0042
     67  CD2       71.0510   67.1050  -19.0930 C.ar   49  PHE49      -0.0042
     68  CE1       69.4940   64.8190  -18.9120 C.ar   49  PHE49      -0.0003
     69  CE2       71.6130   65.8970  -18.6640 C.ar   49  PHE49      -0.0003
     70  CZ        70.8290   64.7580  -18.5800 C.ar   49  PHE49      -0.0000
     71  N         67.8560   67.3940  -13.7610 N.3    53  VAL53      -0.1245
     72  CA        68.6990   66.4940  -12.9720 C.3    53  VAL53       0.1561
     73  C         69.1290   67.1370  -11.6510 C.2    53  VAL53       0.2260
     74  O         69.1500   66.4770  -10.6170 O.2    53  VAL53      -0.2867
     75  CB        69.9280   66.0080  -13.7620 C.3    53  VAL53       0.0252
     76  CG1       70.7970   65.0860  -12.8850 C.3    53  VAL53       0.0019
     77  CG2       69.4800   65.2760  -15.0260 C.3    53  VAL53       0.0019
     78  N         68.2340   65.7560   -7.9370 N.3    57  THR57      -0.1218
     79  CA        69.2790   65.5320   -6.9440 C.3    57  THR57       0.1862
     80  C         68.8720   66.1170   -5.5890 C.2    57  THR57       0.2287
     81  O         68.9420   65.4420   -4.5550 O.2    57  THR57      -0.2866
     82  CB        70.6240   66.1490   -7.3960 C.3    57  THR57       0.1770
     83  OG1       70.9630   65.6490   -8.6970 O.3    57  THR57      -0.2211
     84  CG2       71.7250   65.7970   -6.4110 C.3    57  THR57       0.0375
     85  N         79.6350   60.0680   -5.7070 N.3    83  VAL83      -0.1245
     86  CA        79.4950   60.9000   -6.8930 C.3    83  VAL83       0.1561
     87  C         80.4160   60.3770   -7.9970 C.2    83  VAL83       0.2260
     88  O         80.0290   60.3020   -9.1630 O.2    83  VAL83      -0.2867
     89  CB        79.7870   62.3790   -6.5790 C.3    83  VAL83       0.0252
     90  CG1       79.8640   63.1950   -7.8660 C.3    83  VAL83       0.0019
     91  CG2       78.6980   62.9300   -5.6610 C.3    83  VAL83       0.0019
     92  N         78.9050   57.2470   -9.6260 N.3    86  VAL86      -0.1231
     93  CA        77.8070   57.5470  -10.5450 C.3    86  VAL86       0.1692
     94  C         78.3060   58.2210  -11.8250 C.2    86  VAL86       0.2591
     95  O         77.8900   57.8620  -12.9140 O.2    86  VAL86      -0.2718
     96  CB        76.7120   58.4010   -9.8680 C.3    86  VAL86       0.0266
     97  CG1       75.6690   58.8430  -10.8980 C.3    86  VAL86       0.0020
     98  CG2       76.0510   57.5920   -8.7640 C.3    86  VAL86       0.0020
     99  N         79.2210   59.1690  -11.6900 N.am   87  VAL87      -0.1980
    100  CA        79.8080   59.8030  -12.8670 C.3    87  VAL87       0.1595
    101  C         80.5690   58.7830  -13.7200 C.2    87  VAL87       0.2287
    102  O         80.3970   58.7360  -14.9330 O.2    87  VAL87      -0.2864
    103  CB        80.7420   60.9600  -12.4700 C.3    87  VAL87       0.0276
    104  CG1       81.5990   61.3880  -13.6540 C.3    87  VAL87       0.0022
    105  CG2       79.9180   62.1320  -11.9710 C.3    87  VAL87       0.0022
    106  N         78.0510   56.5850  -15.4730 N.3    90  TYR90      -0.1241
    107  CA        77.3600   57.3760  -16.4990 C.3    90  TYR90       0.1605
    108  C         78.2290   57.4570  -17.7620 C.2    90  TYR90       0.2264
    109  O         77.7730   57.1270  -18.8700 O.2    90  TYR90      -0.2867
    110  CB        77.1070   58.7710  -15.9200 C.3    90  TYR90       0.0534
    111  CG        76.0720   59.6450  -16.6050 C.ar   90  TYR90      -0.0201
    112  CD1       75.6570   59.4080  -17.9130 C.ar   90  TYR90      -0.0009
    113  CD2       75.5430   60.7400  -15.9400 C.ar   90  TYR90      -0.0009
    114  CE1       74.7190   60.2370  -18.5230 C.ar   90  TYR90       0.0417
    115  CE2       74.6090   61.5650  -16.5460 C.ar   90  TYR90       0.0417
    116  CZ        74.2070   61.3110  -17.8290 C.ar   90  TYR90       0.1957
    117  OH        73.2800   62.1440  -18.4200 O.3    90  TYR90      -0.2866
    118  N         62.0580   60.0580  -19.4760 N.3   139  GLU139     -0.1245
    119  CA        62.7770   59.9020  -20.7380 C.3   139  GLU139      0.1567
    120  C         61.9360   59.2610  -21.8380 C.2   139  GLU139      0.2260
    121  O         62.0030   59.6720  -22.9960 O.2   139  GLU139     -0.2867
    122  CB        64.0800   59.1220  -20.5310 C.3   139  GLU139      0.0388
    123  CG        65.0890   59.8820  -19.6910 C.3   139  GLU139      0.1160
    124  CD        66.5180   59.4900  -20.0000 C.2   139  GLU139      0.3649
    125  OE1       66.7940   59.1210  -21.1620 O.co2 139  GLU139     -0.2457
    126  OE2       67.3590   59.5520  -19.0780 O.co2 139  GLU139     -0.2457
    127  N         64.2470   64.0230  -28.0850 N.3   148  PHE148     -0.1241
    128  CA        65.5260   63.4020  -28.3940 C.3   148  PHE148      0.1605
    129  C         65.3150   61.9210  -28.6750 C.2   148  PHE148      0.2264
    130  O         64.2070   61.4070  -28.5240 O.2   148  PHE148     -0.2867
    131  CB        66.5610   63.6440  -27.2770 C.3   148  PHE148      0.0534
    132  CG        66.3080   62.8700  -25.9940 C.ar  148  PHE148     -0.0203
    133  CD1       65.3940   63.3220  -25.0560 C.ar  148  PHE148     -0.0042
    134  CD2       67.0410   61.7250  -25.7050 C.ar  148  PHE148     -0.0042
    135  CE1       65.1860   62.6280  -23.8570 C.ar  148  PHE148     -0.0003
    136  CE2       66.8380   61.0250  -24.5090 C.ar  148  PHE148     -0.0003
    137  CZ        65.9100   61.4750  -23.5910 C.ar  148  PHE148     -0.0000
    138  N         67.4100   57.8130  -28.6190 N.3   150  TYR150     -0.1241
    139  CA        68.5810   56.9830  -28.3580 C.3   150  TYR150      0.1605
    140  C         69.0790   56.3350  -29.6340 C.2   150  TYR150      0.2264
    141  O         68.3260   56.1660  -30.5880 O.2   150  TYR150     -0.2867
    142  CB        68.2700   55.9070  -27.3060 C.3   150  TYR150      0.0534
    143  CG        68.4190   56.4320  -25.9070 C.ar  150  TYR150     -0.0201
    144  CD1       67.3920   57.1360  -25.3010 C.ar  150  TYR150     -0.0009
    145  CD2       69.6070   56.2550  -25.2010 C.ar  150  TYR150     -0.0009
    146  CE1       67.5340   57.6440  -24.0230 C.ar  150  TYR150      0.0417
    147  CE2       69.7540   56.7570  -23.9200 C.ar  150  TYR150      0.0417
    148  CZ        68.7140   57.4520  -23.3420 C.ar  150  TYR150      0.1957
    149  OH        68.8510   57.9590  -22.0730 O.3   150  TYR150     -0.2866
    150  N         69.4110   52.6160  -18.1630 N.3   164  LEU164     -0.1245
    151  CA        68.9050   53.7420  -17.3760 C.3   164  LEU164      0.1561
    152  C         68.3820   53.2870  -16.0280 C.2   164  LEU164      0.2260
    153  O         68.5220   53.9940  -15.0410 O.2   164  LEU164     -0.2867
    154  CB        67.7920   54.4890  -18.1150 C.3   164  LEU164      0.0270
    155  CG        68.2390   55.2800  -19.3470 C.3   164  LEU164      0.0019
    156  CD1       67.0270   55.9900  -19.9560 C.3   164  LEU164      0.0001
    157  CD2       69.3120   56.2890  -18.9650 C.3   164  LEU164      0.0001
    158  N         71.3240   52.8180  -13.7310 N.3   167  LEU167     -0.1231
    159  CA        72.0220   54.1010  -13.6340 C.3   167  LEU167      0.1693
    160  C         71.2480   55.0560  -12.7340 C.2   167  LEU167      0.2592
    161  O         71.8240   55.6640  -11.8310 O.2   167  LEU167     -0.2718
    162  CB        72.2630   54.7260  -15.0190 C.3   167  LEU167      0.0284
    163  CG        72.9080   56.1190  -15.0640 C.3   167  LEU167      0.0019
    164  CD1       74.2450   56.1120  -14.3490 C.3   167  LEU167      0.0001
    165  CD2       73.0790   56.5930  -16.5290 C.3   167  LEU167      0.0001
    166  N         69.9460   55.1900  -12.9690 N.am  168  TYR168     -0.1976
    167  CA        69.1320   56.0340  -12.0930 C.3   168  TYR168      0.1639
    168  C         69.0900   55.5000  -10.6660 C.2   168  TYR168      0.2290
    169  O         69.1220   56.2810   -9.7100 O.2   168  TYR168     -0.2864
    170  CB        67.7110   56.2020  -12.6380 C.3   168  TYR168      0.0560
    171  CG        67.5700   57.2920  -13.6860 C.ar  168  TYR168     -0.0198
    172  CD1       67.6560   58.6370  -13.3300 C.ar  168  TYR168     -0.0009
    173  CD2       67.3380   56.9790  -15.0190 C.ar  168  TYR168     -0.0009
    174  CE1       67.5190   59.6460  -14.2800 C.ar  168  TYR168      0.0417
    175  CE2       67.1970   57.9910  -15.9890 C.ar  168  TYR168      0.0417
    176  CZ        67.2900   59.3200  -15.6020 C.ar  168  TYR168      0.1957
    177  OH        67.1510   60.3320  -16.5380 O.3   168  TYR168     -0.2866
    178  N         72.1020   56.6260   -8.9360 N.3   171  PHE171     -0.1241
    179  CA        71.9310   58.0610   -8.7130 C.3   171  PHE171      0.1605
    180  C         71.0900   58.3180   -7.4560 C.2   171  PHE171      0.2264
    181  O         71.4650   59.1190   -6.6000 O.2   171  PHE171     -0.2867
    182  CB        71.2820   58.6920   -9.9560 C.3   171  PHE171      0.0534
    183  CG        70.7630   60.1010   -9.7470 C.ar  171  PHE171     -0.0203
    184  CD1       71.5330   61.0690   -9.1130 C.ar  171  PHE171     -0.0042
    185  CD2       69.5180   60.4630  -10.2430 C.ar  171  PHE171     -0.0042
    186  CE1       71.0540   62.3750   -8.9460 C.ar  171  PHE171     -0.0003
    187  CE2       69.0330   61.7630  -10.0840 C.ar  171  PHE171     -0.0003
    188  CZ        69.8020   62.7170   -9.4400 C.ar  171  PHE171     -0.0000
    189  N         72.9510   57.5550   -4.1680 N.3   174  VAL174     -0.1245
    190  CA        73.9410   58.5730   -3.8430 C.3   174  VAL174      0.1561
    191  C         73.3020   59.9220   -3.4750 C.2   174  VAL174      0.2260
    192  O         73.7940   60.6160   -2.5910 O.2   174  VAL174     -0.2867
    193  CB        74.9950   58.7070   -4.9750 C.3   174  VAL174      0.0252
    194  CG1       75.9360   59.8770   -4.7180 C.3   174  VAL174      0.0019
    195  CG2       75.7930   57.4070   -5.0790 C.3   174  VAL174      0.0019
    196  N         73.7880   62.0510   -0.1020 N.3   178  LEU178     -0.1245
    197  CA        74.1470   63.4660   -0.0670 C.3   178  LEU178      0.1561
    198  C         73.2290   64.2470    0.8710 C.2   178  LEU178      0.2260
    199  O         73.6640   65.1790    1.5360 O.2   178  LEU178     -0.2867
    200  CB        74.0920   64.0730   -1.4670 C.3   178  LEU178      0.0270
    201  CG        75.1560   63.5710   -2.4410 C.3   178  LEU178      0.0019
    202  CD1       74.9110   64.1520   -3.8300 C.3   178  LEU178      0.0001
    203  CD2       76.5110   63.9770   -1.9320 C.3   178  LEU178      0.0001
@<TRIPOS>BOND
     1    51    50    2
     2    50    49    1
     3   141   140    2
     4    48    49    1
     5   140   139    1
     6    49    52    1
     7    44    43    2
     8    43    42    1
     9   129   130    2
    10   129   128    1
    11    52    53    1
    12   138   139    1
    13   128   127    1
    14   128   131    1
    15   139   142    1
    16    42    41    1
    17    42    45    1
    18   142   143    1
    19   131   132    1
    20    53    55   ar
    21    53    54   ar
    22    34    33    2
    23    55    57   ar
    24    45    46    1
    25    45    47    1
    26    54    56   ar
    27   132   134   ar
    28   132   133   ar
    29   143   144   ar
    30   143   145   ar
    31    33    32    1
    32   134   136   ar
    33   144   146   ar
    34    57    58   ar
    35   145   147   ar
    36   133   135   ar
    37    56    58   ar
    38    32    35    1
    39    32    31    1
    40   136   137   ar
    41    58    59    1
    42   146   148   ar
    43   147   148   ar
    44   135   137   ar
    45    35    36    1
    46    26    25    2
    47   148   149    1
    48   121   120    2
    49    36    38   ar
    50    36    37   ar
    51    38    40   ar
    52    30    28   ar
    53    25    24    1
    54    29    28   ar
    55    37    39   ar
    56    28    27    1
    57   120   119    1
    58    40    39   ar
    59    24    27    1
    60    24    23    1
    61   125   124   ar
    62   119   122    1
    63   119   118    1
    64   122   123    1
    65   124   123    1
    66   124   126   ar
    67   156   155    1
    68    64    65    1
    69    64    61    1
    70    65    66   ar
    71    65    67   ar
    72   155   157    1
    73   155   154    1
    74    66    68   ar
    75    60    61    1
    76    67    69   ar
    77    68    70   ar
    78   109   108    2
    79    61    62    1
    80    69    70   ar
    81   114   112   ar
    82   114   116   ar
    83   117   116    1
    84   150   151    1
    85   154   151    1
    86    21    20    2
    87   112   111   ar
    88   116   115   ar
    89   108   107    1
    90    62    63    2
    91   151   152    1
    92    20    19    1
    93   111   113   ar
    94   111   110    1
    95   115   113   ar
    96   177   176    1
    97   165   163    1
    98   107   110    1
    99   107   106    1
   100   152   153    2
   101   175   176   ar
   102   175   173   ar
   103    19    22    1
   104    19    18    1
   105   176   174   ar
   106    16    15    2
   107   163   162    1
   108   163   164    1
   109    77    75    1
   110   162   159    1
   111   173   171   ar
   112   102   101    2
   113    18    15   am
   114    15    14    1
   115   174   172   ar
   116    75    72    1
   117    75    76    1
   118    71    72    1
   119   158   159    1
   120   101   100    1
   121   171   172   ar
   122   171   170    1
   123   104   103    1
   124   159   160    1
   125    14    13    1
   126    14    17    1
   127    72    73    1
   128   166   160   am
   129   166   167    1
   130    95    94    2
   131   100   103    1
   132   100    99    1
   133   160   161    2
   134   170   167    1
   135   103   105    1
   136    12    11    2
   137   167   168    1
   138    94    99   am
   139    94    93    1
   140    73    74    2
   141    11    10    1
   142    97    96    1
   143   168   169    2
   144    93    96    1
   145    93    92    1
   146   185   187   ar
   147   185   183   ar
   148     4     3    2
   149   187   188   ar
   150    10     9    1
   151   182   183    1
   152   182   179    1
   153    96    98    1
   154   183   184   ar
   155   188   186   ar
   156     3     9   am
   157     3     2    1
   158    88    87    2
   159   184   186   ar
   160   178   179    1
   161   179   180    1
   162    83    82    1
   163     2     1    1
   164     2     5    1
   165    87    86    1
   166    78    79    1
   167    90    89    1
   168   180   181    2
   169    82    79    1
   170    82    84    1
   171     7     6    1
   172    79    80    1
   173    86    89    1
   174    86    85    1
   175     5     6    1
   176     6     8    1
   177    89    91    1
   178    80    81    2
   179   195   193    1
   180   193   194    1
   181   193   190    1
   182   189   190    1
   183   190   191    1
   184   202   201    1
   185   191   192    2
   186   201   203    1
   187   201   200    1
   188   200   197    1
   189   196   197    1
   190   197   198    1
   191   198   199    2
