@<TRIPOS>MOLECULE
tmp/4xu4A04.pdb
 146 141 0 0 0
SMALL
GASTEIGER

@<TRIPOS>ATOM
      1  N         69.8260   65.0210  -29.7690 N.3    34  TYR34      -0.1241
      2  CA        68.6980   65.8990  -29.4750 C.3    34  TYR34       0.1605
      3  C         68.0100   66.3840  -30.7610 C.2    34  TYR34       0.2264
      4  O         68.6460   66.5110  -31.8070 O.2    34  TYR34      -0.2867
      5  CB        69.1350   67.0920  -28.6250 C.3    34  TYR34       0.0534
      6  CG        69.3460   66.7600  -27.1620 C.ar   34  TYR34      -0.0201
      7  CD1       68.2640   66.6290  -26.2990 C.ar   34  TYR34      -0.0009
      8  CD2       70.6260   66.5860  -26.6420 C.ar   34  TYR34      -0.0009
      9  CE1       68.4440   66.3260  -24.9560 C.ar   34  TYR34       0.0417
     10  CE2       70.8160   66.2840  -25.2900 C.ar   34  TYR34       0.0417
     11  CZ        69.7160   66.1590  -24.4610 C.ar   34  TYR34       0.1957
     12  OH        69.8840   65.8660  -23.1300 O.3    34  TYR34      -0.2866
     13  N         67.2050   73.0410  -19.9940 N.3    48  TRP48      -0.1227
     14  CA        66.3330   72.4260  -18.9830 C.3    48  TRP48       0.1737
     15  C         66.8310   71.0690  -18.4750 C.2    48  TRP48       0.2595
     16  O         66.3760   70.5870  -17.4360 O.2    48  TRP48      -0.2718
     17  CB        64.8770   72.3030  -19.4680 C.3    48  TRP48       0.0564
     18  CG        64.7040   71.6410  -20.8140 C.ar   48  TRP48       0.0003
     19  CD1       64.4070   72.2640  -22.0020 C.ar   48  TRP48       0.0946
     20  CD2       64.7940   70.2430  -21.1110 C.ar   48  TRP48       0.0152
     21  NE1       64.3140   71.3380  -23.0100 N.ar   48  TRP48      -0.2442
     22  CE2       64.5530   70.0840  -22.4890 C.ar   48  TRP48       0.0810
     23  CE3       65.0620   69.0980  -20.3460 C.ar   48  TRP48       0.0012
     24  CZ2       64.5690   68.8440  -23.1210 C.ar   48  TRP48       0.0191
     25  CZ3       65.0790   67.8690  -20.9700 C.ar   48  TRP48       0.0001
     26  CH2       64.8370   67.7490  -22.3420 C.ar   48  TRP48       0.0015
     27  N         67.7500   70.4450  -19.2070 N.am   49  PHE49      -0.1976
     28  CA        68.2640   69.1440  -18.7850 C.3    49  PHE49       0.1639
     29  C         69.0200   69.2000  -17.4440 C.2    49  PHE49       0.2290
     30  O         68.6650   68.4660  -16.5070 O.2    49  PHE49      -0.2864
     31  CB        69.0900   68.4600  -19.8870 C.3    49  PHE49       0.0560
     32  CG        69.7110   67.1690  -19.4430 C.ar   49  PHE49      -0.0200
     33  CD1       68.9400   66.0220  -19.3460 C.ar   49  PHE49      -0.0042
     34  CD2       71.0510   67.1050  -19.0930 C.ar   49  PHE49      -0.0042
     35  CE1       69.4940   64.8190  -18.9120 C.ar   49  PHE49      -0.0003
     36  CE2       71.6130   65.8970  -18.6640 C.ar   49  PHE49      -0.0003
     37  CZ        70.8290   64.7580  -18.5800 C.ar   49  PHE49      -0.0000
     38  N         66.5560   69.8220  -14.6350 N.3    52  LEU52      -0.1231
     39  CA        65.8170   68.6310  -14.2470 C.3    52  LEU52       0.1693
     40  C         66.6440   67.7320  -13.3340 C.2    52  LEU52       0.2591
     41  O         66.1920   67.3480  -12.2610 O.2    52  LEU52      -0.2718
     42  CB        65.3710   67.8460  -15.4780 C.3    52  LEU52       0.0284
     43  CG        64.0470   68.2600  -16.1180 C.3    52  LEU52       0.0019
     44  CD1       63.6850   67.3190  -17.2550 C.3    52  LEU52       0.0001
     45  CD2       62.9380   68.3080  -15.0800 C.3    52  LEU52       0.0001
     46  N         67.8560   67.3940  -13.7610 N.am   53  VAL53      -0.1980
     47  CA        68.6990   66.4940  -12.9720 C.3    53  VAL53       0.1595
     48  C         69.1290   67.1370  -11.6510 C.2    53  VAL53       0.2287
     49  O         69.1500   66.4770  -10.6170 O.2    53  VAL53      -0.2864
     50  CB        69.9280   66.0080  -13.7620 C.3    53  VAL53       0.0276
     51  CG1       70.7970   65.0860  -12.8850 C.3    53  VAL53       0.0022
     52  CG2       69.4800   65.2760  -15.0260 C.3    53  VAL53       0.0022
     53  N         67.4360   69.3820   -9.9870 N.3    55  ALA55      -0.1231
     54  CA        66.2490   69.3890   -9.1350 C.3    55  ALA55       0.1694
     55  C         65.9810   68.0010   -8.5420 C.2    55  ALA55       0.2591
     56  O         65.5960   67.8740   -7.3770 O.2    55  ALA55      -0.2718
     57  CB        65.0410   69.8760   -9.9130 C.3    55  ALA55       0.0304
     58  N         66.1800   66.9650   -9.3500 N.am   56  ALA56      -0.1980
     59  CA        65.9990   65.5970   -8.8810 C.3    56  ALA56       0.1597
     60  C         67.0110   65.2470   -7.7970 C.2    56  ALA56       0.2287
     61  O         66.6880   64.5270   -6.8520 O.2    56  ALA56      -0.2864
     62  CB        66.1000   64.6260  -10.0270 C.3    56  ALA56       0.0319
     63  N         65.8750   66.9380   -4.6610 N.3    59  SER59      -0.1217
     64  CA        64.6000   66.3460   -4.2470 C.3    59  SER59       0.1889
     65  C         64.7720   64.9640   -3.6190 C.2    59  SER59       0.2288
     66  O         64.1140   64.6390   -2.6290 O.2    59  SER59      -0.2866
     67  CB        63.6160   66.2630   -5.4190 C.3    59  SER59       0.2089
     68  OG        63.2920   67.5550   -5.9130 O.3    59  SER59      -0.2183
     69  N         63.5190   56.8420   -8.3010 N.3   131  ILE131     -0.1245
     70  CA        64.0610   57.4830   -9.5020 C.3   131  ILE131      0.1561
     71  C         64.3640   56.4770  -10.6230 C.2   131  ILE131      0.2260
     72  O         64.3410   56.8300  -11.8060 O.2   131  ILE131     -0.2867
     73  CB        65.2910   58.3670   -9.1630 C.3   131  ILE131      0.0252
     74  CG1       65.6750   59.2580  -10.3530 C.3   131  ILE131      0.0019
     75  CG2       66.4640   57.5030   -8.7190 C.3   131  ILE131      0.0019
     76  CD1       64.6410   60.3140  -10.6760 C.3   131  ILE131      0.0001
     77  N         60.8250   56.7230  -12.1390 N.3   134  ILE134     -0.1231
     78  CA        60.4930   58.0550  -12.6460 C.3   134  ILE134      0.1692
     79  C         61.4630   58.5290  -13.7390 C.2   134  ILE134      0.2592
     80  O         61.0380   59.0660  -14.7620 O.2   134  ILE134     -0.2718
     81  CB        60.4420   59.0780  -11.4990 C.3   134  ILE134      0.0266
     82  CG1       59.2750   58.7490  -10.5630 C.3   134  ILE134      0.0019
     83  CG2       60.3140   60.5060  -12.0260 C.3   134  ILE134      0.0020
     84  CD1       59.2070   59.6520   -9.3430 C.3   134  ILE134      0.0001
     85  N         62.7610   58.3240  -13.5240 N.am  135  GLY135     -0.1957
     86  CA        63.7650   58.7180  -14.5050 C.3   135  GLY135      0.1869
     87  C         63.4910   58.1840  -15.9020 C.2   135  GLY135      0.2309
     88  O         63.2970   58.9640  -16.8360 O.2   135  GLY135     -0.2863
     89  N         60.1200   59.5440  -17.4770 N.3   138  VAL138     -0.1231
     90  CA        60.2630   60.8840  -18.0430 C.3   138  VAL138      0.1692
     91  C         60.9710   60.8220  -19.4000 C.2   138  VAL138      0.2591
     92  O         60.5200   61.4290  -20.3750 O.2   138  VAL138     -0.2718
     93  CB        60.9980   61.8330  -17.0670 C.3   138  VAL138      0.0266
     94  CG1       61.3710   63.1460  -17.7470 C.3   138  VAL138      0.0020
     95  CG2       60.1320   62.1040  -15.8380 C.3   138  VAL138      0.0020
     96  N         62.0580   60.0580  -19.4760 N.am  139  GLU139     -0.1979
     97  CA        62.7770   59.9020  -20.7380 C.3   139  GLU139      0.1602
     98  C         61.9360   59.2610  -21.8380 C.2   139  GLU139      0.2287
     99  O         62.0030   59.6720  -22.9960 O.2   139  GLU139     -0.2864
    100  CB        64.0800   59.1220  -20.5310 C.3   139  GLU139      0.0415
    101  CG        65.0890   59.8820  -19.6910 C.3   139  GLU139      0.1163
    102  CD        66.5180   59.4900  -20.0000 C.2   139  GLU139      0.3649
    103  OE1       66.7940   59.1210  -21.1620 O.co2 139  GLU139     -0.2457
    104  OE2       67.3590   59.5520  -19.0780 O.co2 139  GLU139     -0.2457
    105  N         59.6190   61.9070  -23.1370 N.3   142  LEU142     -0.1245
    106  CA        60.3820   62.8590  -23.9460 C.3   142  LEU142      0.1561
    107  C         60.7340   62.3100  -25.3210 C.2   142  LEU142      0.2260
    108  O         60.6460   63.0230  -26.3260 O.2   142  LEU142     -0.2867
    109  CB        61.6520   63.2990  -23.2110 C.3   142  LEU142      0.0270
    110  CG        61.3950   64.1870  -21.9960 C.3   142  LEU142      0.0019
    111  CD1       62.6830   64.4600  -21.2380 C.3   142  LEU142      0.0001
    112  CD2       60.7490   65.4990  -22.4290 C.3   142  LEU142      0.0001
    113  N         64.2470   64.0230  -28.0850 N.3   148  PHE148     -0.1241
    114  CA        65.5260   63.4020  -28.3940 C.3   148  PHE148      0.1605
    115  C         65.3150   61.9210  -28.6750 C.2   148  PHE148      0.2264
    116  O         64.2070   61.4070  -28.5240 O.2   148  PHE148     -0.2867
    117  CB        66.5610   63.6440  -27.2770 C.3   148  PHE148      0.0534
    118  CG        66.3080   62.8700  -25.9940 C.ar  148  PHE148     -0.0203
    119  CD1       65.3940   63.3220  -25.0560 C.ar  148  PHE148     -0.0042
    120  CD2       67.0410   61.7250  -25.7050 C.ar  148  PHE148     -0.0042
    121  CE1       65.1860   62.6280  -23.8570 C.ar  148  PHE148     -0.0003
    122  CE2       66.8380   61.0250  -24.5090 C.ar  148  PHE148     -0.0003
    123  CZ        65.9100   61.4750  -23.5910 C.ar  148  PHE148     -0.0000
    124  N         69.9460   55.1900  -12.9690 N.3   168  TYR168     -0.1241
    125  CA        69.1320   56.0340  -12.0930 C.3   168  TYR168      0.1605
    126  C         69.0900   55.5000  -10.6660 C.2   168  TYR168      0.2264
    127  O         69.1220   56.2810   -9.7100 O.2   168  TYR168     -0.2867
    128  CB        67.7110   56.2020  -12.6380 C.3   168  TYR168      0.0534
    129  CG        67.5700   57.2920  -13.6860 C.ar  168  TYR168     -0.0201
    130  CD1       67.6560   58.6370  -13.3300 C.ar  168  TYR168     -0.0009
    131  CD2       67.3380   56.9790  -15.0190 C.ar  168  TYR168     -0.0009
    132  CE1       67.5190   59.6460  -14.2800 C.ar  168  TYR168      0.0417
    133  CE2       67.1970   57.9910  -15.9890 C.ar  168  TYR168      0.0417
    134  CZ        67.2900   59.3200  -15.6020 C.ar  168  TYR168      0.1957
    135  OH        67.1510   60.3320  -16.5380 O.3   168  TYR168     -0.2866
    136  N         72.1020   56.6260   -8.9360 N.3   171  PHE171     -0.1241
    137  CA        71.9310   58.0610   -8.7130 C.3   171  PHE171      0.1605
    138  C         71.0900   58.3180   -7.4560 C.2   171  PHE171      0.2264
    139  O         71.4650   59.1190   -6.6000 O.2   171  PHE171     -0.2867
    140  CB        71.2820   58.6920   -9.9560 C.3   171  PHE171      0.0534
    141  CG        70.7630   60.1010   -9.7470 C.ar  171  PHE171     -0.0203
    142  CD1       71.5330   61.0690   -9.1130 C.ar  171  PHE171     -0.0042
    143  CD2       69.5180   60.4630  -10.2430 C.ar  171  PHE171     -0.0042
    144  CE1       71.0540   62.3750   -8.9460 C.ar  171  PHE171     -0.0003
    145  CE2       69.0330   61.7630  -10.0840 C.ar  171  PHE171     -0.0003
    146  CZ        69.8020   62.7170   -9.4400 C.ar  171  PHE171     -0.0000
@<TRIPOS>BOND
     1     4     3    2
     2     3     2    1
     3     1     2    1
     4     2     5    1
     5   115   116    2
     6   115   114    1
     7     5     6    1
     8   114   113    1
     9   114   117    1
    10   117   118    1
    11     6     8   ar
    12     6     7   ar
    13     8    10   ar
    14   108   107    2
    15     7     9   ar
    16   118   120   ar
    17   118   119   ar
    18   120   122   ar
    19   107   106    1
    20    10    11   ar
    21   119   121   ar
    22     9    11   ar
    23   122   123   ar
    24    11    12    1
    25   106   109    1
    26   106   105    1
    27   121   123   ar
    28   109   110    1
    29    24    22   ar
    30    24    26   ar
    31    21    22   ar
    32    21    19   ar
    33    99    98    2
    34    22    20   ar
    35   112   110    1
    36    26    25   ar
    37    19    18   ar
    38   110   111    1
    39    98    97    1
    40   103   102   ar
    41    20    18   ar
    42    20    23   ar
    43    25    23   ar
    44    18    17    1
    45    97   100    1
    46    97    96    1
    47   100   101    1
    48    92    91    2
    49   102   101    1
    50   102   104   ar
    51    13    14    1
    52    31    32    1
    53    31    28    1
    54    96    91   am
    55    17    14    1
    56    32    33   ar
    57    32    34   ar
    58    91    90    1
    59    33    35   ar
    60    27    28    1
    61    27    15   am
    62    34    36   ar
    63    14    15    1
    64    35    37   ar
    65    28    29    1
    66    36    37   ar
    67    15    16    2
    68    90    89    1
    69    90    93    1
    70    94    93    1
    71    29    30    2
    72    44    43    1
    73    93    95    1
    74    88    87    2
    75   135   134    1
    76    43    42    1
    77    43    45    1
    78   133   134   ar
    79   133   131   ar
    80    87    86    1
    81   134   132   ar
    82    42    39    1
    83    52    50    1
    84   131   129   ar
    85    80    79    2
    86    38    39    1
    87    86    85    1
    88   132   130   ar
    89    39    40    1
    90    50    47    1
    91    50    51    1
    92    46    40   am
    93    46    47    1
    94    79    85   am
    95    79    78    1
    96   129   130   ar
    97   129   128    1
    98    40    41    2
    99    47    48    1
   100   124   125    1
   101    78    77    1
   102    78    81    1
   103   128   125    1
   104   125   126    1
   105    83    81    1
   106    72    71    2
   107    48    49    2
   108    81    82    1
   109    76    74    1
   110   126   127    2
   111    71    70    1
   112    82    84    1
   113    74    73    1
   114   143   145   ar
   115   143   141   ar
   116   145   146   ar
   117    62    59    1
   118    53    54    1
   119   140   141    1
   120   140   137    1
   121    57    54    1
   122   141   142   ar
   123    70    73    1
   124    70    69    1
   125   146   144   ar
   126    58    59    1
   127    58    55   am
   128    73    75    1
   129    54    55    1
   130   142   144   ar
   131   136   137    1
   132    59    60    1
   133   137   138    1
   134    55    56    2
   135    60    61    2
   136   138   139    2
   137    68    67    1
   138    67    64    1
   139    63    64    1
   140    64    65    1
   141    65    66    2
