@<TRIPOS>MOLECULE
tmp/4xu4A00.pdb
 99 93 0 0 0
SMALL
GASTEIGER

@<TRIPOS>ATOM
      1  N         68.4010   72.8960    4.1980 N.3     4  ARG4       -0.1245
      2  CA        68.4380   74.3460    4.1820 C.3     4  ARG4        0.1563
      3  C         68.6180   74.7930    2.7380 C.2     4  ARG4        0.2260
      4  O         69.1300   74.0260    1.9130 O.2     4  ARG4       -0.2867
      5  CB        69.5670   74.8440    5.0800 C.3     4  ARG4        0.0307
      6  CG        69.3190   74.5200    6.5430 C.3     4  ARG4        0.0489
      7  CD        70.5660   74.6530    7.3810 C.3     4  ARG4        0.2205
      8  NE        70.2680   74.4630    8.7980 N.pl3   4  ARG4       -0.0865
      9  CZ        71.1770   74.4780    9.7640 C.cat   4  ARG4        0.5346
     10  NH1       72.4560   74.6710    9.4620 N.pl3   4  ARG4        0.1354
     11  NH2       70.8040   74.3050   11.0320 N.pl3   4  ARG4        0.1354
     12  N         70.6520   76.7340    1.2210 N.3     6  SER6       -0.1202
     13  CA        72.0270   76.7150    0.7370 C.3     6  SER6        0.2020
     14  C         72.4990   75.2990    0.3910 C.2     6  SER6        0.2618
     15  O         73.2340   75.0990   -0.5830 O.2     6  SER6       -0.2717
     16  CB        72.9600   77.3490    1.7650 C.3     6  SER6        0.2103
     17  OG        73.0710   76.5310    2.9160 O.3     6  SER6       -0.2182
     18  N         72.0780   74.3240    1.1910 N.am    7  GLU7       -0.1979
     19  CA        72.3940   72.9240    0.9270 C.3     7  GLU7        0.1602
     20  C         71.6980   72.4480   -0.3400 C.2     7  GLU7        0.2287
     21  O         72.3060   71.7780   -1.1760 O.2     7  GLU7       -0.2864
     22  CB        72.0140   72.0570    2.1360 C.3     7  GLU7        0.0415
     23  CG        72.7990   72.4320    3.3760 C.3     7  GLU7        0.1163
     24  CD        72.1320   71.9900    4.6600 C.2     7  GLU7        0.3649
     25  OE1       70.9830   71.4880    4.6140 O.co2   7  GLU7       -0.2457
     26  OE2       72.7780   72.1370    5.7180 O.co2   7  GLU7       -0.2457
     27  N         73.5610   73.7900   -3.4000 N.3    10  VAL10      -0.1231
     28  CA        74.7970   73.0470   -3.6480 C.3    10  VAL10       0.1692
     29  C         74.5110   71.6970   -4.3020 C.2    10  VAL10       0.2591
     30  O         75.1770   71.3120   -5.2630 O.2    10  VAL10      -0.2718
     31  CB        75.6330   72.8610   -2.3640 C.3    10  VAL10       0.0266
     32  CG1       76.7180   71.8210   -2.5760 C.3    10  VAL10       0.0020
     33  CG2       76.2500   74.1930   -1.9290 C.3    10  VAL10       0.0020
     34  N         73.4990   70.9940   -3.8020 N.am   11  LEU11      -0.1980
     35  CA        73.1140   69.7020   -4.3780 C.3    11  LEU11       0.1596
     36  C         72.5930   69.8500   -5.7980 C.2    11  LEU11       0.2287
     37  O         72.8720   69.0160   -6.6700 O.2    11  LEU11      -0.2864
     38  CB        72.0600   69.0150   -3.5060 C.3    11  LEU11       0.0297
     39  CG        72.5710   68.5950   -2.1320 C.3    11  LEU11       0.0022
     40  CD1       71.4550   67.9500   -1.3230 C.3    11  LEU11       0.0001
     41  CD2       73.7300   67.6290   -2.2850 C.3    11  LEU11       0.0001
     42  N         75.6250   70.4920   -8.0190 N.3    14  LEU14      -0.1245
     43  CA        76.3710   69.2450   -8.1440 C.3    14  LEU14       0.1561
     44  C         75.7160   68.3250   -9.1720 C.2    14  LEU14       0.2260
     45  O         76.3830   67.8200  -10.0860 O.2    14  LEU14      -0.2867
     46  CB        76.4710   68.5610   -6.7750 C.3    14  LEU14       0.0270
     47  CG        77.1920   67.2210   -6.6700 C.3    14  LEU14       0.0019
     48  CD1       78.5750   67.3100   -7.3050 C.3    14  LEU14       0.0001
     49  CD2       77.3000   66.8190   -5.1960 C.3    14  LEU14       0.0001
     50  N         73.7880   62.0510   -0.1020 N.3   178  LEU178     -0.1245
     51  CA        74.1470   63.4660   -0.0670 C.3   178  LEU178      0.1561
     52  C         73.2290   64.2470    0.8710 C.2   178  LEU178      0.2260
     53  O         73.6640   65.1790    1.5360 O.2   178  LEU178     -0.2867
     54  CB        74.0920   64.0730   -1.4670 C.3   178  LEU178      0.0270
     55  CG        75.1560   63.5710   -2.4410 C.3   178  LEU178      0.0019
     56  CD1       74.9110   64.1520   -3.8300 C.3   178  LEU178      0.0001
     57  CD2       76.5110   63.9770   -1.9320 C.3   178  LEU178      0.0001
     58  N         74.4320   63.5270    4.3070 N.3   181  LEU181     -0.1231
     59  CA        75.6550   64.2960    4.5360 C.3   181  LEU181      0.1693
     60  C         75.3560   65.7570    4.8570 C.2   181  LEU181      0.2591
     61  O         75.9890   66.3340    5.7360 O.2   181  LEU181     -0.2718
     62  CB        76.5910   64.2350    3.3270 C.3   181  LEU181      0.0284
     63  CG        77.8100   65.1560    3.4420 C.3   181  LEU181      0.0019
     64  CD1       78.6510   64.8100    4.6500 C.3   181  LEU181      0.0001
     65  CD2       78.6590   65.0970    2.1870 C.3   181  LEU181      0.0001
     66  N         74.4070   66.3450    4.1330 N.am  182  ALA182     -0.1980
     67  CA        74.0500   67.7560    4.3290 C.3   182  ALA182      0.1597
     68  C         73.7170   68.0430    5.7920 C.2   182  ALA182      0.2287
     69  O         74.1560   69.0530    6.3680 O.2   182  ALA182     -0.2864
     70  CB        72.8720   68.1320    3.4380 C.3   182  ALA182      0.0319
     71  N         76.9510   67.1230    8.3850 N.3   185  ARG185     -0.1231
     72  CA        78.1140   68.0100    8.3570 C.3   185  ARG185      0.1694
     73  C         77.8480   69.3780    8.9820 C.2   185  ARG185      0.2592
     74  O         78.7450   70.2190    9.0330 O.2   185  ARG185     -0.2718
     75  CB        78.6120   68.2120    6.9190 C.3   185  ARG185      0.0321
     76  CG        77.6320   68.9910    6.0520 C.3   185  ARG185      0.0489
     77  CD        78.2210   69.3180    4.6820 C.3   185  ARG185      0.2205
     78  NE        79.3570   70.2340    4.7760 N.pl3 185  ARG185     -0.0865
     79  CZ        79.2500   71.5410    4.9940 C.cat 185  ARG185      0.5346
     80  NH1       78.0540   72.0920    5.1630 N.pl3 185  ARG185      0.1354
     81  NH2       80.3420   72.2970    5.0580 N.pl3 185  ARG185      0.1354
     82  N         76.6200   69.6150    9.4360 N.am  186  ARG186     -0.1966
     83  CA        76.2990   70.8700   10.1140 C.3   186  ARG186      0.1714
     84  C         77.1480   71.0040   11.3750 C.2   186  ARG186      0.2458
     85  O         77.5990   69.9960   11.9180 O.2   186  ARG186     -0.2730
     86  CB        74.7980   70.9320   10.4330 C.3   186  ARG186      0.0347
     87  CG        73.9400   71.1360    9.1920 C.3   186  ARG186      0.0492
     88  CD        72.4590   70.9890    9.4840 C.3   186  ARG186      0.2205
     89  NE        71.6540   71.0890    8.2680 N.pl3 186  ARG186     -0.0865
     90  CZ        70.3480   70.8410    8.2150 C.cat 186  ARG186      0.5346
     91  NH1       69.6930   70.4960    9.3180 N.pl3 186  ARG186      0.1354
     92  NH2       69.6960   70.9500    7.0690 N.pl3 186  ARG186      0.1354
     93  N         77.3820   72.2470   11.8400 N.am  187  PRO187     -0.2727
     94  CA        78.2350   72.4600   13.0240 C.3   187  PRO187      0.1402
     95  C         77.7400   71.6810   14.2380 C.2   187  PRO187      0.2269
     96  O         76.5230   71.5750   14.4480 O.2   187  PRO187     -0.2865
     97  CB        78.1120   73.9640   13.2860 C.3   187  PRO187      0.0296
     98  CG        77.7670   74.5530   11.9520 C.3   187  PRO187      0.0237
     99  CD        76.9180   73.5180   11.2570 C.3   187  PRO187      0.0939
@<TRIPOS>BOND
     1    45    44    2
     2    44    43    1
     3    43    42    1
     4    43    46    1
     5    48    47    1
     6    46    47    1
     7    47    49    1
     8    37    36    2
     9    36    35    1
    10    30    29    2
    11    35    34    1
    12    35    38    1
    13    29    34   am
    14    29    28    1
    15    56    55    1
    16    28    27    1
    17    28    31    1
    18    38    39    1
    19    32    31    1
    20    55    57    1
    21    55    54    1
    22    31    33    1
    23    41    39    1
    24    39    40    1
    25    54    51    1
    26    21    20    2
    27    15    14    2
    28    20    19    1
    29    50    51    1
    30    51    52    1
    31    14    13    1
    32    14    18   am
    33    13    12    1
    34    13    16    1
    35    52    53    2
    36    19    18    1
    37    19    22    1
    38    16    17    1
    39     4     3    2
    40    22    23    1
    41    65    63    1
    42     3     2    1
    43    62    63    1
    44    62    59    1
    45    23    24    1
    46    70    67    1
    47    63    64    1
    48    66    67    1
    49    66    60   am
    50     2     1    1
    51     2     5    1
    52    58    59    1
    53    67    68    1
    54    59    60    1
    55    25    24   ar
    56    24    26   ar
    57    77    78    1
    58    77    76    1
    59    78    79    2
    60    60    61    2
    61    79    81    1
    62    79    80    1
    63     5     6    1
    64    68    69    2
    65    76    75    1
    66     6     7    1
    67    75    72    1
    68    92    90    1
    69     7     8    1
    70    90    89    2
    71    90    91    1
    72    89    88    1
    73    72    71    1
    74    72    73    1
    75     8     9    2
    76    73    74    2
    77    73    82   am
    78    87    88    1
    79    87    86    1
    80    82    83    1
    81    10     9    1
    82     9    11    1
    83    83    86    1
    84    83    84    1
    85    99    93    1
    86    99    98    1
    87    84    93   am
    88    84    85    2
    89    93    94    1
    90    98    97    1
    91    94    97    1
    92    94    95    1
    93    95    96    2
