@<TRIPOS>MOLECULE
tmp/4xu5A03.pdb
 71 66 0 0 0
SMALL
GASTEIGER

@<TRIPOS>ATOM
      1  N         82.4660   31.4610   10.9710 N.3    71  ARG71      -0.1245
      2  CA        82.1680   32.7080   11.6650 C.3    71  ARG71       0.1563
      3  C         80.6790   32.8260   11.9630 C.2    71  ARG71       0.2260
      4  O         79.8400   32.6960   11.0670 O.2    71  ARG71      -0.2867
      5  CB        82.6590   33.9040   10.8520 C.3    71  ARG71       0.0307
      6  CG        84.1730   33.9220   10.6350 C.3    71  ARG71       0.0489
      7  CD        84.5570   34.9090    9.5280 C.3    71  ARG71       0.2205
      8  NE        84.1310   34.4420    8.2060 N.pl3  71  ARG71      -0.0865
      9  CZ        84.2810   35.1240    7.0720 C.cat  71  ARG71       0.5346
     10  NH1       84.8450   36.3250    7.0680 N.pl3  71  ARG71       0.1354
     11  NH2       83.8580   34.6020    5.9350 N.pl3  71  ARG71       0.1354
     12  N         79.1840   35.5350   13.1780 N.3    73  GLY73      -0.1210
     13  CA        78.6850   36.8820   12.9550 C.3    73  GLY73       0.1956
     14  C         78.2430   37.1970   11.5220 C.2    73  GLY73       0.2612
     15  O         77.7960   38.3100   11.2370 O.2    73  GLY73      -0.2717
     16  N         78.3560   36.2250   10.6190 N.am   74  VAL74      -0.1965
     17  CA        78.0360   36.4480    9.2040 C.3    74  VAL74       0.1727
     18  C         76.5650   36.8440    9.0140 C.2    74  VAL74       0.2616
     19  O         75.6760   36.2390    9.6180 O.2    74  VAL74      -0.2715
     20  CB        78.3940   35.2130    8.3590 C.3    74  VAL74       0.0290
     21  CG1       77.8150   35.3290    6.9370 C.3    74  VAL74       0.0023
     22  CG2       79.9080   35.0460    8.3120 C.3    74  VAL74       0.0023
     23  N         76.3180   37.8650    8.1840 N.am   75  THR75      -0.1951
     24  CA        74.9580   38.3940    7.9880 C.3    75  THR75       0.1897
     25  C         74.4050   38.2250    6.5660 C.2    75  THR75       0.2313
     26  O         75.1520   38.0210    5.6090 O.2    75  THR75      -0.2863
     27  CB        74.8790   39.8920    8.3800 C.3    75  THR75       0.1794
     28  OG1       75.6890   40.6800    7.4910 O.3    75  THR75      -0.2208
     29  CG2       75.3650   40.1020    9.8230 C.3    75  THR75       0.0378
     30  N         75.9430   40.7980    4.2850 N.3    78  GLN78      -0.1245
     31  CA        77.2380   40.3870    3.7400 C.3    78  GLN78       0.1566
     32  C         77.0730   39.3790    2.6000 C.2    78  GLN78       0.2260
     33  O         77.7490   39.4680    1.5730 O.2    78  GLN78      -0.2867
     34  CB        78.1360   39.8130    4.8390 C.3    78  GLN78       0.0367
     35  CG        78.5380   40.8470    5.8930 C.3    78  GLN78       0.0905
     36  CD        79.1610   40.2250    7.1480 C.2    78  GLN78       0.2608
     37  OE1       78.8020   39.1210    7.5600 O.2    78  GLN78      -0.2717
     38  NE2       80.1000   40.9430    7.7560 N.am   78  GLN78      -0.0878
     39  N         88.8360   40.5150    0.4260 N.3   117  CYS117     -0.1221
     40  CA        89.2080   41.5200    1.4170 C.3   117  CYS117      0.1808
     41  C         88.0080   41.9470    2.2470 C.2   117  CYS117      0.2601
     42  O         88.1130   42.1130    3.4650 O.2   117  CYS117     -0.2717
     43  CB        89.8780   42.7360    0.7530 C.3   117  CYS117      0.0970
     44  SG        91.5600   42.3890    0.1970 S.3   117  CYS117     -0.0800
     45  N         86.8610   42.1010    1.5980 N.am  118  VAL118     -0.1965
     46  CA        85.6800   42.5700    2.3060 C.3   118  VAL118      0.1727
     47  C         84.9960   41.4560    3.1080 C.2   118  VAL118      0.2616
     48  O         84.4740   41.7020    4.2030 O.2   118  VAL118     -0.2715
     49  CB        84.6630   43.2220    1.3440 C.3   118  VAL118      0.0290
     50  CG1       83.4290   43.7080    2.1070 C.3   118  VAL118      0.0023
     51  CG2       85.3170   44.3810    0.5800 C.3   118  VAL118      0.0023
     52  N         85.0170   40.2340    2.5860 N.am  119  LEU119     -0.1963
     53  CA        84.1440   39.1870    3.1270 C.3   119  LEU119      0.1728
     54  C         84.8350   37.9010    3.5740 C.2   119  LEU119      0.2616
     55  O         84.2770   37.1540    4.3720 O.2   119  LEU119     -0.2715
     56  CB        83.0520   38.8180    2.1070 C.3   119  LEU119      0.0311
     57  CG        82.1320   39.9500    1.6500 C.3   119  LEU119      0.0022
     58  CD1       81.4030   39.5520    0.3720 C.3   119  LEU119      0.0001
     59  CD2       81.1310   40.3140    2.7330 C.3   119  LEU119      0.0001
     60  N         86.0250   37.6300    3.0510 N.am  120  GLY120     -0.1955
     61  CA        86.6210   36.3150    3.2140 C.3   120  GLY120      0.1869
     62  C         87.5240   36.1540    4.4270 C.2   120  GLY120      0.2309
     63  O         88.0400   37.1410    4.9530 O.2   120  GLY120     -0.2863
     64  N         81.2090   31.6800    2.6190 N.3   177  LEU177     -0.1245
     65  CA        80.4750   32.6510    3.4190 C.3   177  LEU177      0.1561
     66  C         79.0030   32.2740    3.5300 C.2   177  LEU177      0.2260
     67  O         78.3860   32.4480    4.5750 O.2   177  LEU177     -0.2867
     68  CB        80.5800   34.0330    2.7600 C.3   177  LEU177      0.0270
     69  CG        79.8200   35.1970    3.4070 C.3   177  LEU177      0.0019
     70  CD1       80.5650   35.6820    4.6220 C.3   177  LEU177      0.0001
     71  CD2       79.6700   36.3300    2.3850 C.3   177  LEU177      0.0001
@<TRIPOS>BOND
     1    44    43    1
     2    58    57    1
     3    39    40    1
     4    51    49    1
     5    43    40    1
     6    49    50    1
     7    49    46    1
     8    40    41    1
     9    33    32    2
    10    45    41   am
    11    45    46    1
    12    57    56    1
    13    57    59    1
    14    56    53    1
    15    41    42    2
    16    46    47    1
    17    71    69    1
    18    52    47   am
    19    52    53    1
    20    32    31    1
    21    64    65    1
    22    68    69    1
    23    68    65    1
    24    60    61    1
    25    60    54   am
    26    47    48    2
    27    53    54    1
    28    61    62    1
    29    69    70    1
    30    65    66    1
    31    66    67    2
    32    54    55    2
    33    31    30    1
    34    31    34    1
    35    62    63    2
    36    34    35    1
    37    26    25    2
    38    35    36    1
    39    11     9    1
    40    25    24    1
    41    21    20    1
    42    10     9    1
    43     9     8    2
    44    36    37    2
    45    36    38   am
    46    28    27    1
    47    24    23    1
    48    24    27    1
    49    23    18   am
    50     8     7    1
    51    22    20    1
    52    20    17    1
    53    27    29    1
    54    18    17    1
    55    18    19    2
    56    17    16    1
    57     7     6    1
    58    16    14   am
    59     6     5    1
    60     5     2    1
    61     1     2    1
    62     4     3    2
    63    15    14    2
    64    14    13    1
    65     2     3    1
    66    13    12    1
