@<TRIPOS>MOLECULE
tmp/4xu6A04.pdb
 146 141 0 0 0
SMALL
GASTEIGER

@<TRIPOS>ATOM
      1  N         21.2970    5.6930  -29.9440 N.3    34  TYR34      -0.1241
      2  CA        22.6410    6.2050  -29.6800 C.3    34  TYR34       0.1605
      3  C         23.4040    6.5470  -30.9680 C.2    34  TYR34       0.2264
      4  O         23.2170    5.9060  -32.0040 O.2    34  TYR34      -0.2867
      5  CB        23.4570    5.2200  -28.8480 C.3    34  TYR34       0.0534
      6  CG        23.0810    5.2040  -27.3810 C.ar   34  TYR34      -0.0201
      7  CD1       23.5350    6.1960  -26.5220 C.ar   34  TYR34      -0.0009
      8  CD2       22.2860    4.1890  -26.8530 C.ar   34  TYR34      -0.0009
      9  CE1       23.2010    6.1940  -25.1840 C.ar   34  TYR34       0.0417
     10  CE2       21.9420    4.1750  -25.5020 C.ar   34  TYR34       0.0417
     11  CZ        22.4100    5.1840  -24.6740 C.ar   34  TYR34       0.1957
     12  OH        22.0940    5.1970  -23.3320 O.3    34  TYR34      -0.2866
     13  N         29.5680    3.8980  -20.2290 N.3    48  TRP48      -0.1227
     14  CA        29.4870    4.9480  -19.2080 C.3    48  TRP48       0.1737
     15  C         28.0680    5.1760  -18.6890 C.2    48  TRP48       0.2595
     16  O         27.8840    5.7860  -17.6370 O.2    48  TRP48      -0.2718
     17  CB        30.0850    6.2770  -19.7000 C.3    48  TRP48       0.0564
     18  CG        29.5880    6.7590  -21.0390 C.ar   48  TRP48       0.0003
     19  CD1       30.2610    6.7020  -22.2360 C.ar   48  TRP48       0.0946
     20  CD2       28.3290    7.3880  -21.3190 C.ar   48  TRP48       0.0152
     21  NE1       29.4900    7.2520  -23.2350 N.ar   48  TRP48      -0.2442
     22  CE2       28.3000    7.6760  -22.6990 C.ar   48  TRP48       0.0810
     23  CE3       27.2160    7.7270  -20.5380 C.ar   48  TRP48       0.0012
     24  CZ2       27.2040    8.2890  -23.3120 C.ar   48  TRP48       0.0191
     25  CZ3       26.1330    8.3370  -21.1500 C.ar   48  TRP48       0.0001
     26  CH2       26.1330    8.6070  -22.5200 C.ar   48  TRP48       0.0015
     27  N         27.0690    4.7080  -19.4320 N.am   49  PHE49      -0.1976
     28  CA        25.6800    4.8950  -19.0090 C.3    49  PHE49       0.1639
     29  C         25.3510    4.2140  -17.6680 C.2    49  PHE49       0.2290
     30  O         24.9070    4.8900  -16.7210 O.2    49  PHE49      -0.2864
     31  CB        24.6820    4.5040  -20.1200 C.3    49  PHE49       0.0560
     32  CG        23.2470    4.6110  -19.6850 C.ar   49  PHE49      -0.0200
     33  CD1       22.6330    5.8540  -19.6060 C.ar   49  PHE49      -0.0042
     34  CD2       22.5270    3.4820  -19.3100 C.ar   49  PHE49      -0.0042
     35  CE1       21.3140    5.9780  -19.1740 C.ar   49  PHE49      -0.0003
     36  CE2       21.2080    3.5950  -18.8750 C.ar   49  PHE49      -0.0003
     37  CZ        20.5990    4.8470  -18.8160 C.ar   49  PHE49      -0.0000
     38  N         27.1500    6.0700  -14.9120 N.3    52  LEU52      -0.1231
     39  CA        26.4950    7.3180  -14.4990 C.3    52  LEU52       0.1693
     40  C         25.2890    7.0680  -13.5910 C.2    52  LEU52       0.2591
     41  O         25.1680    7.6820  -12.5340 O.2    52  LEU52      -0.2718
     42  CB        26.0480    8.1490  -15.6980 C.3    52  LEU52       0.0284
     43  CG        27.0700    9.0000  -16.4540 C.3    52  LEU52       0.0019
     44  CD1       26.3570    9.8750  -17.4670 C.3    52  LEU52       0.0001
     45  CD2       27.8850    9.8540  -15.4780 C.3    52  LEU52       0.0001
     46  N         24.3870    6.1800  -14.0040 N.am   53  VAL53      -0.1980
     47  CA        23.1820    5.9290  -13.2110 C.3    53  VAL53       0.1595
     48  C         23.5200    5.2320  -11.8900 C.2    53  VAL53       0.2287
     49  O         22.9390    5.5320  -10.8410 O.2    53  VAL53      -0.2864
     50  CB        22.1300    5.1100  -13.9940 C.3    53  VAL53       0.0276
     51  CG1       20.8850    4.8540  -13.1110 C.3    53  VAL53       0.0022
     52  CG2       21.7470    5.8320  -15.2940 C.3    53  VAL53       0.0022
     53  N         26.2940    5.5310  -10.2480 N.3    55  ALA55      -0.1231
     54  CA        26.9190    6.5420   -9.3920 C.3    55  ALA55       0.1694
     55  C         25.8690    7.4850   -8.7960 C.2    55  ALA55       0.2591
     56  O         25.9610    7.8910   -7.6290 O.2    55  ALA55      -0.2718
     57  CB        27.9550    7.3250  -10.1830 C.3    55  ALA55       0.0304
     58  N         24.8780    7.8370   -9.6040 N.am   56  ALA56      -0.1980
     59  CA        23.7720    8.6630   -9.1350 C.3    56  ALA56       0.1597
     60  C         22.9680    7.9730   -8.0360 C.2    56  ALA56       0.2287
     61  O         22.5190    8.6250   -7.0970 O.2    56  ALA56      -0.2864
     62  CB        22.8700    9.0430  -10.2910 C.3    56  ALA56       0.0319
     63  N         24.9950    8.0960   -4.8870 N.3    59  SER59      -0.1217
     64  CA        25.1150    9.4950   -4.4720 C.3    59  SER59       0.1889
     65  C         23.8450   10.0370   -3.8140 C.2    59  SER59       0.2288
     66  O         23.9140   10.7800   -2.8350 O.2    59  SER59      -0.2866
     67  CB        25.4980   10.3780   -5.6640 C.3    59  SER59       0.2089
     68  OG        26.8070   10.0740   -6.1180 O.3    59  SER59      -0.2183
     69  N         17.5080   15.2810   -8.5420 N.3   131  ILE131     -0.1245
     70  CA        17.7930   14.4820   -9.7350 C.3   131  ILE131      0.1561
     71  C         16.7530   14.6980  -10.8530 C.2   131  ILE131      0.2260
     72  O         17.0610   14.5460  -12.0390 O.2   131  ILE131     -0.2867
     73  CB        17.9760   12.9770   -9.3710 C.3   131  ILE131      0.0252
     74  CG1       18.5570   12.1890  -10.5580 C.3   131  ILE131      0.0019
     75  CG2       16.6590   12.3720   -8.8820 C.3   131  ILE131      0.0019
     76  CD1       19.9930   12.5620  -10.8810 C.3   131  ILE131      0.0001
     77  N         18.6880   17.6030  -12.3410 N.3   134  ILE134     -0.1231
     78  CA        20.0080   17.2270  -12.8480 C.3   134  ILE134      0.1692
     79  C         19.9580   16.1560  -13.9470 C.2   134  ILE134      0.2592
     80  O         20.6510   16.2690  -14.9580 O.2   134  ILE134     -0.2718
     81  CB        20.9290   16.7660  -11.6990 C.3   134  ILE134      0.0266
     82  CG1       21.2680   17.9510  -10.7890 C.3   134  ILE134      0.0019
     83  CG2       22.2180   16.1290  -12.2260 C.3   134  ILE134      0.0020
     84  CD1       22.0740   17.5540   -9.5560 C.3   134  ILE134      0.0001
     85  N         19.1550   15.1150  -13.7420 N.am  135  GLY135     -0.1957
     86  CA        19.0080   14.0640  -14.7410 C.3   135  GLY135      0.1869
     87  C         18.6480   14.5740  -16.1240 C.2   135  GLY135      0.2309
     88  O         19.3840   14.3470  -17.0860 O.2   135  GLY135     -0.2863
     89  N         21.4880   16.8470  -17.6970 N.3   138  VAL138     -0.1231
     90  CA        22.5700   16.0500  -18.2690 C.3   138  VAL138      0.1692
     91  C         22.1640   15.4670  -19.6250 C.2   138  VAL138      0.2591
     92  O         22.9280   15.5250  -20.5870 O.2   138  VAL138     -0.2718
     93  CB        23.0140   14.9220  -17.3170 C.3   138  VAL138      0.0266
     94  CG1       23.9320   13.9340  -18.0260 C.3   138  VAL138      0.0020
     95  CG2       23.7030   15.5030  -16.0770 C.3   138  VAL138      0.0020
     96  N         20.9510   14.9240  -19.7090 N.am  139  GLU139     -0.1979
     97  CA        20.4730   14.3580  -20.9660 C.3   139  GLU139      0.1602
     98  C         20.3480   15.4080  -22.0630 C.2   139  GLU139      0.2287
     99  O         20.7000   15.1590  -23.2170 O.2   139  GLU139     -0.2864
    100  CB        19.1360   13.6300  -20.7630 C.3   139  GLU139      0.0415
    101  CG        19.2670   12.3810  -19.8870 C.3   139  GLU139      0.1163
    102  CD        18.2150   11.3370  -20.1900 C.2   139  GLU139      0.3649
    103  OE1       17.7820   11.2450  -21.3550 O.co2 139  GLU139     -0.2457
    104  OE2       17.8250   10.6130  -19.2560 O.co2 139  GLU139     -0.2457
    105  N         23.7900   16.1010  -23.3800 N.3   142  LEU142     -0.1245
    106  CA        24.2720   14.9710  -24.1760 C.3   142  LEU142      0.1561
    107  C         23.6080   14.9130  -25.5490 C.2   142  LEU142      0.2260
    108  O         24.2560   14.6160  -26.5550 O.2   142  LEU142     -0.2867
    109  CB        24.0840   13.6470  -23.4160 C.3   142  LEU142      0.0270
    110  CG        25.0430   13.3920  -22.2510 C.3   142  LEU142      0.0019
    111  CD1       24.5890   12.2100  -21.4230 C.3   142  LEU142      0.0001
    112  CD2       26.4640   13.1590  -22.7350 C.3   142  LEU142      0.0001
    113  N         23.2800   10.9820  -28.2790 N.3   148  PHE148     -0.1241
    114  CA        22.1160   10.1640  -28.5920 C.3   148  PHE148      0.1605
    115  C         20.9470   11.0860  -28.8910 C.2   148  PHE148      0.2264
    116  O         21.0720   12.3020  -28.7610 O.2   148  PHE148     -0.2867
    117  CB        21.7950    9.1690  -27.4560 C.3   148  PHE148      0.0534
    118  CG        21.2300    9.8040  -26.1930 C.ar  148  PHE148     -0.0203
    119  CD1       22.0600   10.4660  -25.3010 C.ar  148  PHE148     -0.0042
    120  CD2       19.8770    9.6800  -25.8810 C.ar  148  PHE148     -0.0042
    121  CE1       21.5520   11.0310  -24.1260 C.ar  148  PHE148     -0.0003
    122  CE2       19.3550   10.2410  -24.7110 C.ar  148  PHE148     -0.0003
    123  CZ        20.1940   10.9200  -23.8360 C.ar  148  PHE148     -0.0000
    124  N         12.8520   10.5030  -13.1460 N.3   168  TYR168     -0.1241
    125  CA        14.0040   10.7710  -12.2830 C.3   168  TYR168      0.1605
    126  C         13.5600   11.0760  -10.8550 C.2   168  TYR168      0.2264
    127  O         14.2120   10.6650   -9.8960 O.2   168  TYR168     -0.2867
    128  CB        14.8510   11.9270  -12.8370 C.3   168  TYR168      0.0534
    129  CG        15.8580   11.5150  -13.9040 C.ar  168  TYR168     -0.0201
    130  CD1       16.9890   10.7740  -13.5630 C.ar  168  TYR168     -0.0009
    131  CD2       15.6850   11.8740  -15.2410 C.ar  168  TYR168     -0.0009
    132  CE1       17.9230   10.3920  -14.5270 C.ar  168  TYR168      0.0417
    133  CE2       16.6270   11.4950  -16.2280 C.ar  168  TYR168      0.0417
    134  CZ        17.7430   10.7490  -15.8450 C.ar  168  TYR168      0.1957
    135  OH        18.6890   10.3560  -16.7800 O.3   168  TYR168     -0.2866
    136  N         12.9820    7.8600   -9.1500 N.3   171  PHE171     -0.1241
    137  CA        14.3200    7.3110   -8.9300 C.3   171  PHE171      0.1605
    138  C         14.9760    7.9130   -7.6660 C.2   171  PHE171      0.2264
    139  O         15.4510    7.1790   -6.7930 O.2   171  PHE171     -0.2867
    140  CB        15.1670    7.5350  -10.2020 C.3   171  PHE171      0.0534
    141  CG        16.6570    7.3150  -10.0160 C.ar  171  PHE171     -0.0203
    142  CD1       17.1510    6.1640   -9.4080 C.ar  171  PHE171     -0.0042
    143  CD2       17.5570    8.2640  -10.4840 C.ar  171  PHE171     -0.0042
    144  CE1       18.5320    5.9720   -9.2490 C.ar  171  PHE171     -0.0003
    145  CE2       18.9360    8.0860  -10.3410 C.ar  171  PHE171     -0.0003
    146  CZ        19.4250    6.9410   -9.7380 C.ar  171  PHE171     -0.0000
@<TRIPOS>BOND
     1     4     3    2
     2     3     2    1
     3     1     2    1
     4     2     5    1
     5   115   116    2
     6   115   114    1
     7     5     6    1
     8   114   113    1
     9   114   117    1
    10   117   118    1
    11     6     8   ar
    12     6     7   ar
    13     8    10   ar
    14   108   107    2
    15     7     9   ar
    16   118   120   ar
    17   118   119   ar
    18   120   122   ar
    19   107   106    1
    20    10    11   ar
    21   119   121   ar
    22     9    11   ar
    23   122   123   ar
    24    11    12    1
    25   106   109    1
    26   106   105    1
    27   121   123   ar
    28   109   110    1
    29    24    22   ar
    30    24    26   ar
    31    21    22   ar
    32    21    19   ar
    33    99    98    2
    34   112   110    1
    35    22    20   ar
    36    26    25   ar
    37   110   111    1
    38    19    18   ar
    39    98    97    1
    40   103   102   ar
    41    20    18   ar
    42    20    23   ar
    43    25    23   ar
    44    18    17    1
    45    97   100    1
    46    97    96    1
    47   100   101    1
    48    92    91    2
    49    13    14    1
    50   102   101    1
    51   102   104   ar
    52    31    32    1
    53    31    28    1
    54    96    91   am
    55    17    14    1
    56    32    33   ar
    57    32    34   ar
    58    91    90    1
    59    33    35   ar
    60    27    28    1
    61    27    15   am
    62    34    36   ar
    63    14    15    1
    64    35    37   ar
    65    28    29    1
    66    36    37   ar
    67    15    16    2
    68    90    89    1
    69    90    93    1
    70    94    93    1
    71    29    30    2
    72    44    43    1
    73    93    95    1
    74    88    87    2
    75   135   134    1
    76    43    42    1
    77    43    45    1
    78   133   134   ar
    79   133   131   ar
    80    87    86    1
    81   134   132   ar
    82    42    39    1
    83    52    50    1
    84   131   129   ar
    85    80    79    2
    86    38    39    1
    87    86    85    1
    88   132   130   ar
    89    39    40    1
    90    46    40   am
    91    46    47    1
    92    50    47    1
    93    50    51    1
    94    79    85   am
    95    79    78    1
    96   129   130   ar
    97   129   128    1
    98    40    41    2
    99    47    48    1
   100   124   125    1
   101    78    77    1
   102    78    81    1
   103   128   125    1
   104   125   126    1
   105    83    81    1
   106    72    71    2
   107    48    49    2
   108    81    82    1
   109    76    74    1
   110   126   127    2
   111    71    70    1
   112    82    84    1
   113    74    73    1
   114   143   145   ar
   115   143   141   ar
   116   145   146   ar
   117    62    59    1
   118    53    54    1
   119   140   141    1
   120   140   137    1
   121    57    54    1
   122   141   142   ar
   123   146   144   ar
   124    70    73    1
   125    70    69    1
   126    58    59    1
   127    58    55   am
   128   142   144   ar
   129    54    55    1
   130    73    75    1
   131   136   137    1
   132    59    60    1
   133   137   138    1
   134    55    56    2
   135    60    61    2
   136   138   139    2
   137    68    67    1
   138    67    64    1
   139    63    64    1
   140    64    65    1
   141    65    66    2
