@<TRIPOS>MOLECULE
tmp/4xu6A03.pdb
 208 196 0 0 0
SMALL
GASTEIGER

@<TRIPOS>ATOM
      1  N         23.1530   -2.1150   -8.2020 N.3    14  LEU14      -0.1231
      2  CA        21.6970   -2.1220   -8.3170 C.3    14  LEU14       0.1693
      3  C         21.2380   -1.1130   -9.3660 C.2    14  LEU14       0.2592
      4  O         20.4500   -1.4400  -10.2650 O.2    14  LEU14      -0.2718
      5  CB        21.0740   -1.7770   -6.9600 C.3    14  LEU14       0.0284
      6  CG        19.6460   -2.2240   -6.6930 C.3    14  LEU14       0.0019
      7  CD1       19.5760   -3.7370   -6.7960 C.3    14  LEU14       0.0001
      8  CD2       19.1890   -1.7680   -5.3040 C.3    14  LEU14       0.0001
      9  N         21.7230    0.1210   -9.2450 N.am   15  GLY15      -0.1957
     10  CA        21.3790    1.1670  -10.1890 C.3    15  GLY15       0.1869
     11  C         21.8360    0.8560  -11.6070 C.2    15  GLY15       0.2309
     12  O         21.1110    1.0990  -12.5800 O.2    15  GLY15      -0.2863
     13  N         19.5180   -1.9780  -13.1610 N.3    18  ALA18      -0.1231
     14  CA        18.2220   -1.4060  -13.5110 C.3    18  ALA18       0.1694
     15  C         18.3270   -0.4640  -14.7130 C.2    18  ALA18       0.2591
     16  O         17.4640   -0.4680  -15.5850 O.2    18  ALA18      -0.2718
     17  CB        17.6150   -0.6920  -12.3100 C.3    18  ALA18       0.0304
     18  N         19.3840    0.3430  -14.7580 N.am   19  ALA19      -0.1980
     19  CA        19.6090    1.2480  -15.8850 C.3    19  ALA19       0.1597
     20  C         19.7690    0.5040  -17.2080 C.2    19  ALA19       0.2287
     21  O         19.2240    0.9260  -18.2300 O.2    19  ALA19      -0.2864
     22  CB        20.8290    2.1430  -15.6390 C.3    19  ALA19       0.0319
     23  N         17.3700    1.0560  -20.2210 N.3    23  ASP23      -0.1239
     24  CA        17.9550    1.6300  -21.4310 C.3    23  ASP23       0.1674
     25  C         17.8500    0.6660  -22.6130 C.2    23  ASP23       0.2266
     26  O         17.5730    1.0870  -23.7260 O.2    23  ASP23      -0.2867
     27  CB        19.4040    2.0330  -21.1930 C.3    23  ASP23       0.1410
     28  CG        19.8990    3.0730  -22.1920 C.2    23  ASP23       0.3668
     29  OD1       19.1380    4.0050  -22.5400 O.co2  23  ASP23      -0.2456
     30  OD2       21.0680    2.9560  -22.6210 O.co2  23  ASP23      -0.2456
     31  N         14.3720    1.1940  -23.8980 N.3    26  HIS26      -0.1241
     32  CA        14.2790    2.3970  -24.7310 C.3    26  HIS26       0.1621
     33  C         14.8860    2.2020  -26.1230 C.2    26  HIS26       0.2264
     34  O         14.3080    2.6210  -27.1290 O.2    26  HIS26      -0.2867
     35  CB        14.9460    3.5930  -24.0380 C.3    26  HIS26       0.0745
     36  CG        14.0540    4.2860  -23.0540 C.ar   26  HIS26       0.0817
     37  ND1       14.4930    5.3020  -22.2310 N.ar   26  HIS26      -0.2268
     38  CD2       12.7400    4.1160  -22.7740 C.ar   26  HIS26       0.1154
     39  CE1       13.4880    5.7200  -21.4790 C.ar   26  HIS26       0.1986
     40  NE2       12.4120    5.0180  -21.7910 N.ar   26  HIS26      -0.2212
     41  N         14.8300    5.8330  -27.8130 N.3    32  THR32      -0.1218
     42  CA        16.0830    6.5590  -27.9860 C.3    32  THR32       0.1862
     43  C         16.9420    5.8270  -29.0020 C.2    32  THR32       0.2287
     44  O         16.7000    4.6460  -29.2990 O.2    32  THR32      -0.2866
     45  CB        16.8950    6.6620  -26.6730 C.3    32  THR32       0.1770
     46  OG1       17.1720    5.3440  -26.1620 O.3    32  THR32      -0.2211
     47  CG2       16.1440    7.4790  -25.6130 C.3    32  THR32       0.0375
     48  N         21.2970    5.6930  -29.9440 N.3    34  TYR34      -0.1241
     49  CA        22.6410    6.2050  -29.6800 C.3    34  TYR34       0.1605
     50  C         23.4040    6.5470  -30.9680 C.2    34  TYR34       0.2264
     51  O         23.2170    5.9060  -32.0040 O.2    34  TYR34      -0.2867
     52  CB        23.4570    5.2200  -28.8480 C.3    34  TYR34       0.0534
     53  CG        23.0810    5.2040  -27.3810 C.ar   34  TYR34      -0.0201
     54  CD1       23.5350    6.1960  -26.5220 C.ar   34  TYR34      -0.0009
     55  CD2       22.2860    4.1890  -26.8530 C.ar   34  TYR34      -0.0009
     56  CE1       23.2010    6.1940  -25.1840 C.ar   34  TYR34       0.0417
     57  CE2       21.9420    4.1750  -25.5020 C.ar   34  TYR34       0.0417
     58  CZ        22.4100    5.1840  -24.6740 C.ar   34  TYR34       0.1957
     59  OH        22.0940    5.1970  -23.3320 O.3    34  TYR34      -0.2866
     60  N         27.0690    4.7080  -19.4320 N.3    49  PHE49      -0.1241
     61  CA        25.6800    4.8950  -19.0090 C.3    49  PHE49       0.1605
     62  C         25.3510    4.2140  -17.6680 C.2    49  PHE49       0.2264
     63  O         24.9070    4.8900  -16.7210 O.2    49  PHE49      -0.2867
     64  CB        24.6820    4.5040  -20.1200 C.3    49  PHE49       0.0534
     65  CG        23.2470    4.6110  -19.6850 C.ar   49  PHE49      -0.0203
     66  CD1       22.6330    5.8540  -19.6060 C.ar   49  PHE49      -0.0042
     67  CD2       22.5270    3.4820  -19.3100 C.ar   49  PHE49      -0.0042
     68  CE1       21.3140    5.9780  -19.1740 C.ar   49  PHE49      -0.0003
     69  CE2       21.2080    3.5950  -18.8750 C.ar   49  PHE49      -0.0003
     70  CZ        20.5990    4.8470  -18.8160 C.ar   49  PHE49      -0.0000
     71  N         24.3870    6.1800  -14.0040 N.3    53  VAL53      -0.1245
     72  CA        23.1820    5.9290  -13.2110 C.3    53  VAL53       0.1561
     73  C         23.5200    5.2320  -11.8900 C.2    53  VAL53       0.2260
     74  O         22.9390    5.5320  -10.8410 O.2    53  VAL53      -0.2867
     75  CB        22.1300    5.1100  -13.9940 C.3    53  VAL53       0.0252
     76  CG1       20.8850    4.8540  -13.1110 C.3    53  VAL53       0.0019
     77  CG2       21.7470    5.8320  -15.2940 C.3    53  VAL53       0.0019
     78  N         22.7750    6.6580   -8.1620 N.3    57  THR57      -0.1218
     79  CA        22.0490    5.8830   -7.1550 C.3    57  THR57       0.1862
     80  C         22.7570    5.9330   -5.7950 C.2    57  THR57       0.2287
     81  O         22.1450    6.2080   -4.7480 O.2    57  THR57      -0.2866
     82  CB        21.9030    4.4070   -7.5880 C.3    57  THR57       0.1770
     83  OG1       21.2910    4.3420   -8.8870 O.3    57  THR57      -0.2211
     84  CG2       21.0580    3.6370   -6.5630 C.3    57  THR57       0.0375
     85  N         12.1710   -0.2780   -5.9410 N.3    83  VAL83      -0.1245
     86  CA        12.9720   -0.5690   -7.1300 C.3    83  VAL83       0.1561
     87  C         12.0800   -1.1120   -8.2580 C.2    83  VAL83       0.2260
     88  O         12.2220   -0.7390   -9.4240 O.2    83  VAL83      -0.2867
     89  CB        14.1330   -1.5340   -6.8180 C.3    83  VAL83       0.0252
     90  CG1       14.7760   -2.0310   -8.1090 C.3    83  VAL83       0.0019
     91  CG2       15.1780   -0.8260   -5.9510 C.3    83  VAL83       0.0019
     92  N         10.0950    1.7820   -9.8810 N.3    86  VAL86      -0.1231
     93  CA        10.9170    2.6040  -10.7770 C.3    86  VAL86       0.1692
     94  C         11.2420    1.8520  -12.0720 C.2    86  VAL86       0.2591
     95  O         11.1200    2.3940  -13.1680 O.2    86  VAL86      -0.2718
     96  CB        12.2200    3.0790  -10.0800 C.3    86  VAL86       0.0266
     97  CG1       13.1340    3.7940  -11.0890 C.3    86  VAL86       0.0020
     98  CG2       11.8750    4.0270   -8.9360 C.3    86  VAL86       0.0020
     99  N         11.6260    0.5900  -11.9480 N.am   87  VAL87      -0.1980
    100  CA        11.8880   -0.2040  -13.1430 C.3    87  VAL87       0.1595
    101  C         10.6220   -0.4090  -13.9840 C.2    87  VAL87       0.2287
    102  O         10.6670   -0.2950  -15.2000 O.2    87  VAL87      -0.2864
    103  CB        12.5340   -1.5560  -12.8140 C.3    87  VAL87       0.0276
    104  CG1       12.6520   -2.4040  -14.0770 C.3    87  VAL87       0.0022
    105  CG2       13.9180   -1.3360  -12.2080 C.3    87  VAL87       0.0022
    106  N          9.9320    2.8450  -15.7270 N.3    90  TYR90      -0.1241
    107  CA        10.9500    3.0260  -16.7630 C.3    90  TYR90       0.1605
    108  C         10.5880    2.2210  -18.0230 C.2    90  TYR90       0.2264
    109  O         10.5200    2.7750  -19.1390 O.2    90  TYR90      -0.2867
    110  CB        12.2890    2.5590  -16.1760 C.3    90  TYR90       0.0534
    111  CG        13.5650    2.9960  -16.8840 C.ar   90  TYR90      -0.0201
    112  CD1       13.5680    3.4150  -18.2100 C.ar   90  TYR90      -0.0009
    113  CD2       14.7770    2.9640  -16.2020 C.ar   90  TYR90      -0.0009
    114  CE1       14.7640    3.8000  -18.8370 C.ar   90  TYR90       0.0417
    115  CE2       15.9570    3.3460  -16.8130 C.ar   90  TYR90       0.0417
    116  CZ        15.9460    3.7560  -18.1170 C.ar   90  TYR90       0.1957
    117  OH        17.1410    4.1200  -18.7000 O.3    90  TYR90      -0.2866
    118  N         20.9510   14.9240  -19.7090 N.3   139  GLU139     -0.1245
    119  CA        20.4730   14.3580  -20.9660 C.3   139  GLU139      0.1567
    120  C         20.3480   15.4080  -22.0630 C.2   139  GLU139      0.2260
    121  O         20.7000   15.1590  -23.2170 O.2   139  GLU139     -0.2867
    122  CB        19.1360   13.6300  -20.7630 C.3   139  GLU139      0.0388
    123  CG        19.2670   12.3810  -19.8870 C.3   139  GLU139      0.1160
    124  CD        18.2150   11.3370  -20.1900 C.2   139  GLU139      0.3649
    125  OE1       17.7820   11.2450  -21.3550 O.co2 139  GLU139     -0.2457
    126  OE2       17.8250   10.6130  -19.2560 O.co2 139  GLU139     -0.2457
    127  N         23.2800   10.9820  -28.2790 N.3   148  PHE148     -0.1241
    128  CA        22.1160   10.1640  -28.5920 C.3   148  PHE148      0.1605
    129  C         20.9470   11.0860  -28.8910 C.2   148  PHE148      0.2264
    130  O         21.0720   12.3020  -28.7610 O.2   148  PHE148     -0.2867
    131  CB        21.7950    9.1690  -27.4560 C.3   148  PHE148      0.0534
    132  CG        21.2300    9.8040  -26.1930 C.ar  148  PHE148     -0.0203
    133  CD1       22.0600   10.4660  -25.3010 C.ar  148  PHE148     -0.0042
    134  CD2       19.8770    9.6800  -25.8810 C.ar  148  PHE148     -0.0042
    135  CE1       21.5520   11.0310  -24.1260 C.ar  148  PHE148     -0.0003
    136  CE2       19.3550   10.2410  -24.7110 C.ar  148  PHE148     -0.0003
    137  CZ        20.1940   10.9200  -23.8360 C.ar  148  PHE148     -0.0000
    138  N         16.3320   11.3550  -28.7980 N.3   150  TYR150     -0.1241
    139  CA        15.0260   10.7560  -28.5430 C.3   150  TYR150      0.1605
    140  C         14.2350   10.6410  -29.8380 C.2   150  TYR150      0.2264
    141  O         14.5000   11.3550  -30.8070 O.2   150  TYR150     -0.2867
    142  CB        14.2420   11.5640  -27.4920 C.3   150  TYR150      0.0534
    143  CG        14.6150   11.1910  -26.0760 C.ar  150  TYR150     -0.0201
    144  CD1       15.7530   11.7200  -25.4740 C.ar  150  TYR150     -0.0009
    145  CD2       13.8380   10.2930  -25.3430 C.ar  150  TYR150     -0.0009
    146  CE1       16.1110   11.3590  -24.1830 C.ar  150  TYR150      0.0417
    147  CE2       14.1840    9.9320  -24.0560 C.ar  150  TYR150      0.0417
    148  CZ        15.3190   10.4670  -23.4770 C.ar  150  TYR150      0.1957
    149  OH        15.6790   10.1050  -22.1960 O.3   150  TYR150     -0.2866
    150  N         10.8790   12.2750  -18.3440 N.3   164  LEU164     -0.1245
    151  CA        12.1000   12.1570  -17.5460 C.3   164  LEU164      0.1561
    152  C         11.9620   12.8430  -16.2000 C.2   164  LEU164      0.2260
    153  O         12.5140   12.3820  -15.2110 O.2   164  LEU164     -0.2867
    154  CB        13.3080   12.7400  -18.2830 C.3   164  LEU164      0.0270
    155  CG        13.7500   11.9620  -19.5230 C.3   164  LEU164      0.0019
    156  CD1       14.9320   12.6730  -20.1870 C.3   164  LEU164      0.0001
    157  CD2       14.1220   10.5300  -19.1580 C.3   164  LEU164      0.0001
    158  N         10.1010   10.5520  -13.9340 N.3   167  LEU167     -0.1231
    159  CA        10.8490    9.2940  -13.8400 C.3   167  LEU167      0.1693
    160  C         12.0620    9.4550  -12.9250 C.2   167  LEU167      0.2592
    161  O         12.2710    8.6460  -12.0270 O.2   167  LEU167     -0.2718
    162  CB        11.2630    8.7670  -15.2250 C.3   167  LEU167      0.0284
    163  CG        12.1230    7.4930  -15.2730 C.3   167  LEU167      0.0019
    164  CD1       11.4190    6.3310  -14.5920 C.3   167  LEU167      0.0001
    165  CD2       12.4950    7.1430  -16.7370 C.3   167  LEU167      0.0001
    166  N         12.8520   10.5030  -13.1460 N.am  168  TYR168     -0.1976
    167  CA        14.0040   10.7710  -12.2830 C.3   168  TYR168      0.1639
    168  C         13.5600   11.0760  -10.8550 C.2   168  TYR168      0.2290
    169  O         14.2120   10.6650   -9.8960 O.2   168  TYR168     -0.2864
    170  CB        14.8510   11.9270  -12.8370 C.3   168  TYR168      0.0560
    171  CG        15.8580   11.5150  -13.9040 C.ar  168  TYR168     -0.0198
    172  CD1       16.9890   10.7740  -13.5630 C.ar  168  TYR168     -0.0009
    173  CD2       15.6850   11.8740  -15.2410 C.ar  168  TYR168     -0.0009
    174  CE1       17.9230   10.3920  -14.5270 C.ar  168  TYR168      0.0417
    175  CE2       16.6270   11.4950  -16.2280 C.ar  168  TYR168      0.0417
    176  CZ        17.7430   10.7490  -15.8450 C.ar  168  TYR168      0.1957
    177  OH        18.6890   10.3560  -16.7800 O.3   168  TYR168     -0.2866
    178  N         12.9820    7.8600   -9.1500 N.3   171  PHE171     -0.1241
    179  CA        14.3200    7.3110   -8.9300 C.3   171  PHE171      0.1605
    180  C         14.9760    7.9130   -7.6660 C.2   171  PHE171      0.2264
    181  O         15.4510    7.1790   -6.7930 O.2   171  PHE171     -0.2867
    182  CB        15.1670    7.5350  -10.2020 C.3   171  PHE171      0.0534
    183  CG        16.6570    7.3150  -10.0160 C.ar  171  PHE171     -0.0203
    184  CD1       17.1510    6.1640   -9.4080 C.ar  171  PHE171     -0.0042
    185  CD2       17.5570    8.2640  -10.4840 C.ar  171  PHE171     -0.0042
    186  CE1       18.5320    5.9720   -9.2490 C.ar  171  PHE171     -0.0003
    187  CE2       18.9360    8.0860  -10.3410 C.ar  171  PHE171     -0.0003
    188  CZ        19.4250    6.9410   -9.7380 C.ar  171  PHE171     -0.0000
    189  N         13.3860    6.6900   -4.3910 N.3   174  VAL174     -0.1231
    190  CA        13.7400    5.3170   -4.0650 C.3   174  VAL174      0.1692
    191  C         15.2280    5.1800   -3.6850 C.2   174  VAL174      0.2591
    192  O         15.5650    4.4150   -2.7910 O.2   174  VAL174     -0.2718
    193  CB        13.3090    4.3410   -5.1910 C.3   174  VAL174      0.0266
    194  CG1       13.8510    2.9420   -4.9390 C.3   174  VAL174      0.0020
    195  CG2       11.7710    4.3250   -5.2850 C.3   174  VAL174      0.0020
    196  N         16.1060    5.9340   -4.3470 N.am  175  ALA175     -0.1980
    197  CA        17.5310    5.9130   -4.0010 C.3   175  ALA175      0.1597
    198  C         17.7330    6.3920   -2.5710 C.2   175  ALA175      0.2287
    199  O         18.5510    5.8450   -1.8310 O.2   175  ALA175     -0.2864
    200  CB        18.3310    6.7900   -4.9740 C.3   175  ALA175      0.0319
    201  N         16.8110    3.7000   -0.3060 N.3   178  LEU178     -0.1245
    202  CA        17.8710    2.6920   -0.2640 C.3   178  LEU178      0.1561
    203  C         18.9960    3.1040    0.6940 C.2   178  LEU178      0.2260
    204  O         19.5700    2.2600    1.3700 O.2   178  LEU178     -0.2867
    205  CB        18.4420    2.4380   -1.6580 C.3   178  LEU178      0.0270
    206  CG        17.5020    1.7010   -2.6110 C.3   178  LEU178      0.0019
    207  CD1       18.0610    1.6780   -4.0310 C.3   178  LEU178      0.0001
    208  CD2       17.2850    0.2920   -2.0910 C.3   178  LEU178      0.0001
@<TRIPOS>BOND
     1    51    50    2
     2    50    49    1
     3   141   140    2
     4    48    49    1
     5   140   139    1
     6    49    52    1
     7    44    43    2
     8    43    42    1
     9   129   130    2
    10   129   128    1
    11    52    53    1
    12   138   139    1
    13   128   127    1
    14   128   131    1
    15   139   142    1
    16    42    41    1
    17    42    45    1
    18   142   143    1
    19   131   132    1
    20    53    55   ar
    21    53    54   ar
    22    34    33    2
    23    55    57   ar
    24    45    46    1
    25    45    47    1
    26    54    56   ar
    27   132   134   ar
    28   132   133   ar
    29    33    32    1
    30   143   144   ar
    31   143   145   ar
    32   134   136   ar
    33    57    58   ar
    34   144   146   ar
    35   145   147   ar
    36   133   135   ar
    37    56    58   ar
    38    32    35    1
    39    32    31    1
    40   136   137   ar
    41    58    59    1
    42   146   148   ar
    43   135   137   ar
    44   147   148   ar
    45    35    36    1
    46    26    25    2
    47   148   149    1
    48   121   120    2
    49    36    38   ar
    50    36    37   ar
    51    38    40   ar
    52    30    28   ar
    53    25    24    1
    54    29    28   ar
    55    37    39   ar
    56    28    27    1
    57   120   119    1
    58    40    39   ar
    59    24    27    1
    60    24    23    1
    61   125   124   ar
    62   119   122    1
    63   119   118    1
    64   122   123    1
    65   124   123    1
    66   124   126   ar
    67   156   155    1
    68    64    65    1
    69    64    61    1
    70    65    66   ar
    71    65    67   ar
    72    66    68   ar
    73   155   157    1
    74   155   154    1
    75    60    61    1
    76    67    69   ar
    77    68    70   ar
    78   109   108    2
    79    61    62    1
    80    69    70   ar
    81   114   112   ar
    82   114   116   ar
    83   117   116    1
    84   150   151    1
    85   154   151    1
    86    21    20    2
    87   112   111   ar
    88   116   115   ar
    89   108   107    1
    90    62    63    2
    91   151   152    1
    92    20    19    1
    93   111   113   ar
    94   111   110    1
    95   115   113   ar
    96   177   176    1
    97   107   110    1
    98   107   106    1
    99   165   163    1
   100   175   176   ar
   101   175   173   ar
   102   152   153    2
   103    19    22    1
   104    19    18    1
   105   176   174   ar
   106    16    15    2
   107    77    75    1
   108   163   162    1
   109   163   164    1
   110   173   171   ar
   111   162   159    1
   112   102   101    2
   113    18    15   am
   114    15    14    1
   115   174   172   ar
   116   104   103    1
   117    71    72    1
   118    75    72    1
   119    75    76    1
   120   101   100    1
   121   158   159    1
   122   171   172   ar
   123   171   170    1
   124   159   160    1
   125    14    13    1
   126    14    17    1
   127    72    73    1
   128    95    94    2
   129   166   160   am
   130   166   167    1
   131   100   103    1
   132   100    99    1
   133   160   161    2
   134   170   167    1
   135   103   105    1
   136    12    11    2
   137   167   168    1
   138    94    99   am
   139    94    93    1
   140    73    74    2
   141    11    10    1
   142    97    96    1
   143   168   169    2
   144    93    96    1
   145    93    92    1
   146   185   187   ar
   147   185   183   ar
   148   187   188   ar
   149     4     3    2
   150   182   183    1
   151   182   179    1
   152    10     9    1
   153    96    98    1
   154   183   184   ar
   155   188   186   ar
   156    88    87    2
   157   184   186   ar
   158     3     9   am
   159     3     2    1
   160   178   179    1
   161   179   180    1
   162    83    82    1
   163     2     1    1
   164     2     5    1
   165    87    86    1
   166    78    79    1
   167    90    89    1
   168   180   181    2
   169    82    79    1
   170    82    84    1
   171    79    80    1
   172    86    89    1
   173    86    85    1
   174     5     6    1
   175    89    91    1
   176     7     6    1
   177     6     8    1
   178    80    81    2
   179   195   193    1
   180   193   194    1
   181   193   190    1
   182   200   197    1
   183   189   190    1
   184   196   197    1
   185   196   191   am
   186   190   191    1
   187   207   206    1
   188   197   198    1
   189   191   192    2
   190   206   208    1
   191   206   205    1
   192   198   199    2
   193   205   202    1
   194   201   202    1
   195   202   203    1
   196   203   204    2
