@<TRIPOS>MOLECULE
tmp/4xuaA00.pdb
 145 145 0 0 0
SMALL
GASTEIGER

@<TRIPOS>ATOM
      1  N         69.9810   30.0550   -3.3530 N.3    32  TRP32      -0.1228
      2  CA        70.9580   30.9080   -2.6050 C.3    32  TRP32       0.1722
      3  C         70.4140   32.1880   -2.0010 C.2    32  TRP32       0.2437
      4  O         70.8740   32.5820   -0.9030 O.2    32  TRP32      -0.2733
      5  CB        72.2040   31.1550   -3.4380 C.3    32  TRP32       0.0563
      6  CG        71.8950   31.8370   -4.7330 C.ar   32  TRP32       0.0003
      7  CD1       71.6380   31.2540   -5.9680 C.ar   32  TRP32       0.0946
      8  CD2       71.8010   33.2620   -4.9450 C.ar   32  TRP32       0.0152
      9  NE1       71.3810   32.2120   -6.9080 N.ar   32  TRP32      -0.2442
     10  CE2       71.4500   33.4480   -6.3450 C.ar   32  TRP32       0.0810
     11  CE3       71.9790   34.3820   -4.1310 C.ar   32  TRP32       0.0012
     12  CZ2       71.2980   34.7090   -6.8940 C.ar   32  TRP32       0.0191
     13  CZ3       71.7990   35.6350   -4.6880 C.ar   32  TRP32       0.0001
     14  CH2       71.4680   35.7880   -6.0440 C.ar   32  TRP32       0.0015
     15  N         69.4200   32.8630   -2.6150 N.am   33  PRO33      -0.2718
     16  CA        68.9230   34.0930   -1.9440 C.3    33  PRO33       0.1535
     17  C         68.1060   33.8370   -0.6660 C.2    33  PRO33       0.2599
     18  O         67.8410   34.7820    0.0700 O.2    33  PRO33      -0.2715
     19  CB        67.9860   34.7280   -2.9970 C.3    33  PRO33       0.0310
     20  CG        68.3450   34.0680   -4.2780 C.3    33  PRO33       0.0237
     21  CD        68.7020   32.6710   -3.9090 C.3    33  PRO33       0.0939
     22  N         67.7200   32.5700   -0.4440 N.am   34  PHE34      -0.1960
     23  CA        66.6730   32.1870    0.5330 C.3    34  PHE34       0.1771
     24  C         67.1760   31.2930    1.6490 C.2    34  PHE34       0.2619
     25  O         66.3840   30.8860    2.5290 O.2    34  PHE34      -0.2715
     26  CB        65.5170   31.5020   -0.1940 C.3    34  PHE34       0.0574
     27  CG        65.0520   32.2450   -1.4210 C.ar   34  PHE34      -0.0200
     28  CD1       64.5960   33.5800   -1.3460 C.ar   34  PHE34      -0.0042
     29  CD2       65.2430   31.6900   -2.6810 C.ar   34  PHE34      -0.0042
     30  CE1       64.2250   34.2790   -2.4620 C.ar   34  PHE34      -0.0003
     31  CE2       64.8680   32.3970   -3.8270 C.ar   34  PHE34      -0.0003
     32  CZ        64.3770   33.6880   -3.7230 C.ar   34  PHE34      -0.0000
     33  N         68.4650   30.9900    1.6430 N.am   35  LEU35      -0.1963
     34  CA        68.9940   29.9860    2.5780 C.3    35  LEU35       0.1728
     35  C         69.0470   30.4770    4.0140 C.2    35  LEU35       0.2616
     36  O         68.8730   29.6740    4.9290 O.2    35  LEU35      -0.2715
     37  CB        70.3550   29.4400    2.1590 C.3    35  LEU35       0.0311
     38  CG        70.3800   28.7170    0.8100 C.3    35  LEU35       0.0022
     39  CD1       71.7980   28.2470    0.4910 C.3    35  LEU35       0.0001
     40  CD2       69.3620   27.5680    0.8320 C.3    35  LEU35       0.0001
     41  N         69.2870   31.7660    4.1920 N.am   36  LEU36      -0.1964
     42  CA        69.4750   32.3930    5.5260 C.3    36  LEU36       0.1713
     43  C         68.6360   33.6620    5.5980 C.2    36  LEU36       0.2458
     44  O         68.2570   34.2440    4.5690 O.2    36  LEU36      -0.2730
     45  CB        70.9540   32.7400    5.7220 C.3    36  LEU36       0.0310
     46  CG        71.9870   31.6130    5.7980 C.3    36  LEU36       0.0022
     47  CD1       73.4240   32.1270    5.8270 C.3    36  LEU36       0.0001
     48  CD2       71.6920   30.7190    6.9930 C.3    36  LEU36       0.0001
     49  N         68.3400   34.1400    6.8190 N.am   37  PRO37      -0.2716
     50  CA        67.6670   35.4200    6.9330 C.3    37  PRO37       0.1536
     51  C         68.4610   36.5560    6.2720 C.2    37  PRO37       0.2598
     52  O         69.7040   36.5260    6.2450 O.2    37  PRO37      -0.2715
     53  CB        67.5840   35.6950    8.4330 C.3    37  PRO37       0.0310
     54  CG        68.0060   34.4580    9.0980 C.3    37  PRO37       0.0237
     55  CD        68.6800   33.5480    8.1190 C.3    37  PRO37       0.0939
     56  N         67.7140   37.4640    5.6490 N.am   38  VAL38      -0.1964
     57  CA        68.2940   38.6540    5.0630 C.3    38  VAL38       0.1727
     58  C         68.9460   39.4580    6.1330 C.2    38  VAL38       0.2616
     59  O         68.3470   39.6660    7.2040 O.2    38  VAL38      -0.2715
     60  CB        67.2260   39.5240    4.3630 C.3    38  VAL38       0.0290
     61  CG1       67.8560   40.8480    3.8520 C.3    38  VAL38       0.0023
     62  CG2       66.5420   38.7110    3.2710 C.3    38  VAL38       0.0023
     63  N         70.1810   39.8620    5.8640 N.am   39  ASN39      -0.1972
     64  CA        70.9710   40.6660    6.7940 C.3    39  ASN39       0.1688
     65  C         70.5260   42.1360    6.7110 C.2    39  ASN39       0.2292
     66  O         70.7740   42.8220    5.7340 O.2    39  ASN39      -0.2864
     67  CB        72.4680   40.5620    6.4690 C.3    39  ASN39       0.1181
     68  CG        73.3470   41.2510    7.5040 C.2    39  ASN39       0.2629
     69  OD1       72.9260   42.1960    8.1550 O.2    39  ASN39      -0.2716
     70  ND2       74.5740   40.7880    7.6430 N.am   39  ASN39      -0.0877
     71  N         73.1440   44.7840    5.4140 N.3    42  LEU42      -0.1231
     72  CA        73.5460   44.7240    4.0350 C.3    42  LEU42       0.1693
     73  C         72.3980   45.1440    3.1350 C.2    42  LEU42       0.2591
     74  O         72.6360   45.4390    1.9560 O.2    42  LEU42      -0.2718
     75  CB        73.9700   43.2910    3.6530 C.3    42  LEU42       0.0284
     76  CG        75.3920   42.8350    4.0110 C.3    42  LEU42       0.0019
     77  CD1       75.8360   43.3350    5.3840 C.3    42  LEU42       0.0001
     78  CD2       75.4930   41.3160    3.9200 C.3    42  LEU42       0.0001
     79  N         71.1510   45.0980    3.6440 N.am   43  VAL43      -0.1980
     80  CA        70.0300   45.2570    2.7490 C.3    43  VAL43       0.1595
     81  C         69.1610   46.4120    3.1920 C.2    43  VAL43       0.2287
     82  O         68.1870   46.1690    3.9120 O.2    43  VAL43      -0.2864
     83  CB        69.2110   43.9520    2.5250 C.3    43  VAL43       0.0276
     84  CG1       68.1030   44.1590    1.5040 C.3    43  VAL43       0.0022
     85  CG2       70.1440   42.8420    2.0540 C.3    43  VAL43       0.0022
     86  N         64.9320   46.5060    3.7670 N.3    46  TYR46      -0.1241
     87  CA        64.2130   45.2480    3.9860 C.3    46  TYR46       0.1605
     88  C         63.4850   45.2830    5.3230 C.2    46  TYR46       0.2264
     89  O         62.3760   44.7500    5.4230 O.2    46  TYR46      -0.2867
     90  CB        65.1270   43.9960    3.8570 C.3    46  TYR46       0.0534
     91  CG        64.4730   42.6320    4.0930 C.ar   46  TYR46      -0.0201
     92  CD1       64.3610   42.1090    5.3690 C.ar   46  TYR46      -0.0009
     93  CD2       64.0180   41.8470    3.0310 C.ar   46  TYR46      -0.0009
     94  CE1       63.7860   40.8690    5.5970 C.ar   46  TYR46       0.0417
     95  CE2       63.4640   40.6000    3.2450 C.ar   46  TYR46       0.0417
     96  CZ        63.3440   40.1110    4.5350 C.ar   46  TYR46       0.1957
     97  OH        62.7900   38.8600    4.7540 O.3    46  TYR46      -0.2866
     98  N         58.2400   33.3100    1.7390 N.3    81  VAL81      -0.1245
     99  CA        59.5740   33.5340    1.1730 C.3    81  VAL81       0.1561
    100  C         59.4780   34.1650   -0.2220 C.2    81  VAL81       0.2260
    101  O         60.1350   35.1790   -0.5190 O.2    81  VAL81      -0.2867
    102  CB        60.4310   32.2550    1.1630 C.3    81  VAL81       0.0252
    103  CG1       61.8110   32.5690    0.5160 C.3    81  VAL81       0.0019
    104  CG2       60.6310   31.7040    2.6070 C.3    81  VAL81       0.0019
    105  N         57.6210   37.6770   -0.3360 N.3    84  ASN84      -0.1225
    106  CA        58.5570   38.7200    0.0970 C.3    84  ASN84       0.1785
    107  C         59.5850   39.0360   -0.9680 C.2    84  ASN84       0.2597
    108  O         59.8700   40.2050   -1.2100 O.2    84  ASN84      -0.2718
    109  CB        59.2940   38.2900    1.3550 C.3    84  ASN84       0.1169
    110  CG        58.4320   38.3010    2.5810 C.2    84  ASN84       0.2627
    111  OD1       57.3690   38.9420    2.6300 O.2    84  ASN84      -0.2716
    112  ND2       58.9370   37.6430    3.6460 N.am   84  ASN84      -0.0877
    113  N         60.0970   38.0000   -1.6270 N.am   85  CYS85      -0.1970
    114  CA        61.0190   38.1680   -2.7370 C.3    85  CYS85       0.1712
    115  C         60.4580   39.0160   -3.8630 C.2    85  CYS85       0.2296
    116  O         61.1200   39.9440   -4.3610 O.2    85  CYS85      -0.2864
    117  CB        61.4790   36.7810   -3.2410 C.3    85  CYS85       0.0983
    118  SG        62.7160   36.8880   -4.5330 S.3    85  CYS85      -0.0798
    119  N         60.1640   42.7590   -2.9720 N.3    88  PHE88      -0.1227
    120  CA        61.4030   43.5020   -2.7760 C.3    88  PHE88       0.1736
    121  C         62.3000   43.5590   -4.0130 C.2    88  PHE88       0.2595
    122  O         63.1170   44.4920   -4.1470 O.2    88  PHE88      -0.2718
    123  CB        62.1810   42.9170   -1.5860 C.3    88  PHE88       0.0547
    124  CG        63.1700   43.9050   -0.9790 C.ar   88  PHE88      -0.0202
    125  CD1       62.7290   44.9100   -0.1230 C.ar   88  PHE88      -0.0042
    126  CD2       64.5190   43.8190   -1.2690 C.ar   88  PHE88      -0.0042
    127  CE1       63.6370   45.7990    0.4370 C.ar   88  PHE88      -0.0003
    128  CE2       65.4370   44.6890   -0.6970 C.ar   88  PHE88      -0.0003
    129  CZ        64.9850   45.6790    0.1500 C.ar   88  PHE88      -0.0000
    130  N         62.0880   42.6220   -4.9520 N.am   89  ASN89      -0.1974
    131  CA        62.9740   42.4200   -6.1010 C.3    89  ASN89       0.1688
    132  C         62.2270   42.5210   -7.4380 C.2    89  ASN89       0.2292
    133  O         61.0940   42.0510   -7.5590 O.2    89  ASN89      -0.2864
    134  CB        63.6460   41.0560   -6.0130 C.3    89  ASN89       0.1181
    135  CG        64.5370   40.9220   -4.8150 C.2    89  ASN89       0.2629
    136  OD1       65.6520   41.4190   -4.8140 O.2    89  ASN89      -0.2716
    137  ND2       64.0050   40.3120   -3.7280 N.am   89  ASN89      -0.0877
    138  N         67.8690   37.6810   -8.3110 N.3    95  ILE95      -0.1245
    139  CA        67.0870   37.2360   -7.1240 C.3    95  ILE95       0.1561
    140  C         65.5930   37.0990   -7.4740 C.2    95  ILE95       0.2260
    141  O         64.9320   36.1340   -7.0480 O.2    95  ILE95      -0.2867
    142  CB        67.2940   38.1790   -5.9130 C.3    95  ILE95       0.0252
    143  CG1       68.7500   38.0710   -5.4300 C.3    95  ILE95       0.0019
    144  CG2       66.2750   37.8900   -4.8040 C.3    95  ILE95       0.0019
    145  CD1       69.1480   39.0630   -4.3410 C.3    95  ILE95       0.0001
@<TRIPOS>BOND
     1   138   139    1
     2   133   132    2
     3   140   139    1
     4   140   141    2
     5   132   131    1
     6   139   142    1
     7     9    10   ar
     8     9     7   ar
     9    12    10   ar
    10    12    14   ar
    11    10     8   ar
    12   131   134    1
    13   131   130    1
    14    14    13   ar
    15   134   135    1
    16     7     6   ar
    17   142   143    1
    18   142   144    1
    19   143   145    1
    20   130   121   am
    21     8     6   ar
    22     8    11   ar
    23   135   136    2
    24   135   137   am
    25     6     5    1
    26    13    11   ar
    27   118   117    1
    28   116   115    2
    29    20    21    1
    30    20    19    1
    31   122   121    2
    32   121   120    1
    33    21    15    1
    34   115   114    1
    35    31    32   ar
    36    31    29   ar
    37    32    30   ar
    38     5     2    1
    39     1     2    1
    40   117   114    1
    41    19    16    1
    42   119   120    1
    43   120   123    1
    44   114   113    1
    45    29    27   ar
    46    15     3   am
    47    15    16    1
    48     2     3    1
    49    30    28   ar
    50     3     4    2
    51    16    17    1
    52   113   107   am
    53   123   124    1
    54    27    28   ar
    55    27    26    1
    56   126   124   ar
    57   126   128   ar
    58   108   107    2
    59   124   125   ar
    60   107   106    1
    61   128   129   ar
    62    17    22   am
    63    17    18    2
    64   101   100    2
    65    22    23    1
    66   105   106    1
    67   100    99    1
    68    26    23    1
    69   125   127   ar
    70   106   109    1
    71   129   127   ar
    72    39    38    1
    73   103   102    1
    74    23    24    1
    75    38    40    1
    76    38    37    1
    77   102    99    1
    78   102   104    1
    79    99    98    1
    80   109   110    1
    81    84    83    1
    82    33    24   am
    83    33    34    1
    84    24    25    2
    85    74    73    2
    86    85    83    1
    87    37    34    1
    88    83    80    1
    89    34    35    1
    90   110   111    2
    91   110   112   am
    92    80    81    1
    93    80    79    1
    94    93    95   ar
    95    93    91   ar
    96    73    79   am
    97    73    72    1
    98    81    82    2
    99    95    96   ar
   100    62    60    1
   101    75    76    1
   102    75    72    1
   103    86    87    1
   104    61    60    1
   105    90    87    1
   106    90    91    1
   107    78    76    1
   108    87    88    1
   109    76    77    1
   110    35    41   am
   111    35    36    2
   112    72    71    1
   113    91    92   ar
   114    41    42    1
   115    60    57    1
   116    96    97    1
   117    96    94   ar
   118    44    43    2
   119    57    56    1
   120    57    58    1
   121    88    89    2
   122    92    94   ar
   123    42    43    1
   124    42    45    1
   125    43    49   am
   126    56    51   am
   127    45    46    1
   128    66    65    2
   129    46    47    1
   130    46    48    1
   131    63    58   am
   132    63    64    1
   133    58    59    2
   134    52    51    2
   135    51    50    1
   136    67    64    1
   137    67    68    1
   138    65    64    1
   139    49    50    1
   140    49    55    1
   141    50    53    1
   142    68    70   am
   143    68    69    2
   144    55    54    1
   145    53    54    1
