@<TRIPOS>MOLECULE
tmp/4xubA00.pdb
 137 137 0 0 0
SMALL
GASTEIGER

@<TRIPOS>ATOM
      1  N         69.7250   30.1440   -3.1400 N.3    32  TRP32      -0.1228
      2  CA        70.6610   31.0340   -2.4420 C.3    32  TRP32       0.1722
      3  C         70.0610   32.3330   -1.9030 C.2    32  TRP32       0.2437
      4  O         70.4640   32.7640   -0.8420 O.2    32  TRP32      -0.2733
      5  CB        71.9520   31.2790   -3.2490 C.3    32  TRP32       0.0563
      6  CG        71.7020   31.9310   -4.5380 C.ar   32  TRP32       0.0003
      7  CD1       71.4900   31.3030   -5.7190 C.ar   32  TRP32       0.0946
      8  CD2       71.6000   33.3340   -4.7970 C.ar   32  TRP32       0.0152
      9  NE1       71.2360   32.2130   -6.6950 N.ar   32  TRP32      -0.2442
     10  CE2       71.2940   33.4740   -6.1680 C.ar   32  TRP32       0.0810
     11  CE3       71.7080   34.4880   -4.0040 C.ar   32  TRP32       0.0012
     12  CZ2       71.1250   34.7200   -6.7830 C.ar   32  TRP32       0.0191
     13  CZ3       71.5340   35.7300   -4.6110 C.ar   32  TRP32       0.0001
     14  CH2       71.2370   35.8340   -5.9910 C.ar   32  TRP32       0.0015
     15  N         69.0580   32.9370   -2.5770 N.am   33  PRO33      -0.2718
     16  CA        68.5730   34.1490   -1.9410 C.3    33  PRO33       0.1535
     17  C         67.7890   33.9040   -0.6530 C.2    33  PRO33       0.2599
     18  O         67.4750   34.8670    0.0340 O.2    33  PRO33      -0.2715
     19  CB        67.6640   34.7830   -3.0110 C.3    33  PRO33       0.0310
     20  CG        67.9890   34.1000   -4.3080 C.3    33  PRO33       0.0237
     21  CD        68.4040   32.7140   -3.8850 C.3    33  PRO33       0.0939
     22  N         67.4410   32.6330   -0.3750 N.am   34  PHE34      -0.1960
     23  CA        66.3910   32.2980    0.5710 C.3    34  PHE34       0.1771
     24  C         66.8600   31.4680    1.7420 C.2    34  PHE34       0.2619
     25  O         66.0370   31.0940    2.5940 O.2    34  PHE34      -0.2715
     26  CB        65.2640   31.5280   -0.1360 C.3    34  PHE34       0.0574
     27  CG        64.7760   32.1930   -1.3730 C.ar   34  PHE34      -0.0200
     28  CD1       64.0260   33.3820   -1.2770 C.ar   34  PHE34      -0.0042
     29  CD2       65.0470   31.6710   -2.6140 C.ar   34  PHE34      -0.0042
     30  CE1       63.6360   34.0610   -2.4010 C.ar   34  PHE34      -0.0003
     31  CE2       64.6330   32.3500   -3.7610 C.ar   34  PHE34      -0.0003
     32  CZ        63.9000   33.5220   -3.6500 C.ar   34  PHE34      -0.0000
     33  N         68.1500   31.1320    1.7760 N.am   35  LEU35      -0.1963
     34  CA        68.6470   30.1890    2.7650 C.3    35  LEU35       0.1728
     35  C         68.7000   30.7640    4.1850 C.2    35  LEU35       0.2616
     36  O         68.5380   30.0140    5.1570 O.2    35  LEU35      -0.2715
     37  CB        70.0450   29.6860    2.3890 C.3    35  LEU35       0.0311
     38  CG        70.1430   28.9610    1.0480 C.3    35  LEU35       0.0022
     39  CD1       71.5990   28.5860    0.7720 C.3    35  LEU35       0.0001
     40  CD2       69.2630   27.7220    1.0360 C.3    35  LEU35       0.0001
     41  N         68.9570   32.0730    4.3030 N.am   36  LEU36      -0.1964
     42  CA        69.0890   32.7400    5.5960 C.3    36  LEU36       0.1713
     43  C         68.1830   33.9880    5.6190 C.2    36  LEU36       0.2458
     44  O         67.8240   34.5120    4.5650 O.2    36  LEU36      -0.2730
     45  CB        70.5500   33.1290    5.8320 C.3    36  LEU36       0.0310
     46  CG        71.6410   32.0550    5.8840 C.3    36  LEU36       0.0022
     47  CD1       73.0200   32.7020    5.9570 C.3    36  LEU36       0.0001
     48  CD2       71.4190   31.1450    7.0680 C.3    36  LEU36       0.0001
     49  N         67.8280   34.4840    6.8190 N.am   37  PRO37      -0.2716
     50  CA        67.0250   35.7160    6.8170 C.3    37  PRO37       0.1536
     51  C         67.7220   36.8890    6.0860 C.2    37  PRO37       0.2598
     52  O         68.9500   36.9910    6.1090 O.2    37  PRO37      -0.2715
     53  CB        66.8420   36.0520    8.3170 C.3    37  PRO37       0.0310
     54  CG        67.3200   34.8570    9.0790 C.3    37  PRO37       0.0237
     55  CD        68.2090   34.0430    8.1700 C.3    37  PRO37       0.0939
     56  N         66.9540   37.7500    5.4170 N.am   38  VAL38      -0.1964
     57  CA        67.5570   38.9750    4.9000 C.3    38  VAL38       0.1727
     58  C         68.1230   39.7730    6.0580 C.2    38  VAL38       0.2616
     59  O         67.4570   39.9840    7.0770 O.2    38  VAL38      -0.2715
     60  CB        66.5550   39.8290    4.1020 C.3    38  VAL38       0.0290
     61  CG1       67.2260   41.1170    3.6030 C.3    38  VAL38       0.0023
     62  CG2       65.9900   39.0300    2.9330 C.3    38  VAL38       0.0023
     63  N         69.3820   40.1520    5.9300 N.am   39  ASN39      -0.1972
     64  CA        70.0820   40.9030    6.9390 C.3    39  ASN39       0.1688
     65  C         69.6030   42.3650    6.9550 C.2    39  ASN39       0.2292
     66  O         69.8590   43.1140    6.0280 O.2    39  ASN39      -0.2864
     67  CB        71.6030   40.8170    6.6640 C.3    39  ASN39       0.1181
     68  CG        72.4390   41.4690    7.7520 C.2    39  ASN39       0.2629
     69  OD1       72.0480   42.4610    8.3470 O.2    39  ASN39      -0.2716
     70  ND2       73.6220   40.9410    7.9730 N.am   39  ASN39      -0.0877
     71  N         72.1390   44.9850    6.2670 N.3    42  LEU42      -0.1231
     72  CA        72.7050   45.0040    4.9290 C.3    42  LEU42       0.1693
     73  C         71.7540   45.5430    3.8880 C.2    42  LEU42       0.2591
     74  O         72.2190   46.0220    2.8620 O.2    42  LEU42      -0.2718
     75  CB        73.1130   43.6030    4.4740 C.3    42  LEU42       0.0284
     76  CG        74.5970   43.2690    4.3320 C.3    42  LEU42       0.0019
     77  CD1       75.4320   43.7600    5.5200 C.3    42  LEU42       0.0001
     78  CD2       74.7370   41.7580    4.1490 C.3    42  LEU42       0.0001
     79  N         70.4440   45.4330    4.1050 N.am   43  VAL43      -0.1980
     80  CA        69.5230   45.7210    3.0290 C.3    43  VAL43       0.1595
     81  C         68.6350   46.9270    3.3180 C.2    43  VAL43       0.2287
     82  O         67.6860   46.7830    4.0860 O.2    43  VAL43      -0.2864
     83  CB        68.6760   44.4800    2.6740 C.3    43  VAL43       0.0276
     84  CG1       67.8530   44.7280    1.4280 C.3    43  VAL43       0.0022
     85  CG2       69.5940   43.2860    2.4340 C.3    43  VAL43       0.0022
     86  N         64.3870   46.9150    3.8210 N.3    46  TYR46      -0.1241
     87  CA        63.7530   45.6100    4.0820 C.3    46  TYR46       0.1605
     88  C         62.8610   45.6040    5.3050 C.2    46  TYR46       0.2264
     89  O         61.6940   45.1670    5.2590 O.2    46  TYR46      -0.2867
     90  CB        64.7760   44.4700    4.2170 C.3    46  TYR46       0.0534
     91  CG        64.1260   43.1970    3.7740 C.ar   46  TYR46      -0.0201
     92  CD1       63.9820   42.9150    2.4170 C.ar   46  TYR46      -0.0009
     93  CD2       63.5440   42.3480    4.6920 C.ar   46  TYR46      -0.0009
     94  CE1       63.3400   41.7520    1.9920 C.ar   46  TYR46       0.0417
     95  CE2       62.9090   41.1900    4.2850 C.ar   46  TYR46       0.0417
     96  CZ        62.8060   40.9010    2.9360 C.ar   46  TYR46       0.1957
     97  OH        62.1590   39.7400    2.5630 O.3    46  TYR46      -0.2866
     98  N         57.7360   33.4880    1.8300 N.3    81  VAL81      -0.1245
     99  CA        59.0960   33.7090    1.3090 C.3    81  VAL81       0.1561
    100  C         59.0270   34.3040   -0.1160 C.2    81  VAL81       0.2260
    101  O         59.6530   35.3230   -0.4240 O.2    81  VAL81      -0.2867
    102  CB        59.9160   32.4050    1.2710 C.3    81  VAL81       0.0252
    103  CG1       61.2780   32.6490    0.6100 C.3    81  VAL81       0.0019
    104  CG2       60.1870   31.8290    2.6490 C.3    81  VAL81       0.0019
    105  N         59.6130   38.1740   -1.6200 N.3    85  CYS85      -0.1235
    106  CA        60.6220   38.3250   -2.6530 C.3    85  CYS85       0.1677
    107  C         60.0780   39.1570   -3.8040 C.2    85  CYS85       0.2270
    108  O         60.7570   40.0430   -4.3080 O.2    85  CYS85      -0.2867
    109  CB        61.1100   36.9650   -3.1540 C.3    85  CYS85       0.0956
    110  SG        62.4240   36.9910   -4.3830 S.3    85  CYS85      -0.0801
    111  N         59.7030   42.8910   -2.8770 N.3    88  PHE88      -0.1227
    112  CA        60.9160   43.6730   -2.6750 C.3    88  PHE88       0.1736
    113  C         61.8040   43.7280   -3.9150 C.2    88  PHE88       0.2595
    114  O         62.5060   44.7070   -4.1030 O.2    88  PHE88      -0.2718
    115  CB        61.7030   43.1350   -1.4790 C.3    88  PHE88       0.0547
    116  CG        62.7080   44.1130   -0.9390 C.ar   88  PHE88      -0.0202
    117  CD1       62.3100   45.1680   -0.1180 C.ar   88  PHE88      -0.0042
    118  CD2       64.0450   43.9790   -1.2420 C.ar   88  PHE88      -0.0042
    119  CE1       63.2310   46.0700    0.3880 C.ar   88  PHE88      -0.0003
    120  CE2       64.9810   44.8780   -0.7410 C.ar   88  PHE88      -0.0003
    121  CZ        64.5740   45.9360    0.0660 C.ar   88  PHE88      -0.0000
    122  N         61.7680   42.6890   -4.7530 N.am   89  ASN89      -0.1974
    123  CA        62.6750   42.5870   -5.8880 C.3    89  ASN89       0.1688
    124  C         61.9810   42.7130   -7.2470 C.2    89  ASN89       0.2292
    125  O         60.8730   42.2340   -7.4390 O.2    89  ASN89      -0.2864
    126  CB        63.3950   41.2540   -5.8400 C.3    89  ASN89       0.1181
    127  CG        64.1650   41.0590   -4.5490 C.2    89  ASN89       0.2629
    128  OD1       65.3200   41.4680   -4.4500 O.2    89  ASN89      -0.2716
    129  ND2       63.5270   40.4450   -3.5480 N.am   89  ASN89      -0.0877
    130  N         67.5970   37.7550   -8.1310 N.3    95  ILE95      -0.1245
    131  CA        66.8110   37.3630   -6.9820 C.3    95  ILE95       0.1561
    132  C         65.3430   37.2350   -7.3380 C.2    95  ILE95       0.2260
    133  O         64.6960   36.2930   -6.8860 O.2    95  ILE95      -0.2867
    134  CB        66.9330   38.3680   -5.8070 C.3    95  ILE95       0.0252
    135  CG1       68.3450   38.3240   -5.2160 C.3    95  ILE95       0.0019
    136  CG2       65.9200   38.0440   -4.7190 C.3    95  ILE95       0.0019
    137  CD1       68.6600   39.5220   -4.3540 C.3    95  ILE95       0.0001
@<TRIPOS>BOND
     1   130   131    1
     2   125   124    2
     3   132   131    1
     4   132   133    2
     5   124   123    1
     6   131   134    1
     7    12    10   ar
     8    12    14   ar
     9     9    10   ar
    10     9     7   ar
    11    10     8   ar
    12    14    13   ar
    13   123   126    1
    14   123   122    1
    15   126   127    1
    16   134   135    1
    17   134   136    1
    18     7     6   ar
    19   135   137    1
    20     8     6   ar
    21     8    11   ar
    22   122   113   am
    23    13    11   ar
    24   127   128    2
    25   127   129   am
    26     6     5    1
    27   110   109    1
    28    20    21    1
    29    20    19    1
    30   108   107    2
    31   114   113    2
    32   113   112    1
    33    21    15    1
    34   107   106    1
    35    31    32   ar
    36    31    29   ar
    37    32    30   ar
    38     5     2    1
    39   109   106    1
    40     1     2    1
    41    19    16    1
    42   111   112    1
    43   112   115    1
    44   106   105    1
    45    29    27   ar
    46    15    16    1
    47    15     3   am
    48     2     3    1
    49    30    28   ar
    50    16    17    1
    51     3     4    2
    52   115   116    1
    53    27    28   ar
    54    27    26    1
    55   118   116   ar
    56   118   120   ar
    57   116   117   ar
    58   120   121   ar
    59    17    22   am
    60    17    18    2
    61   101   100    2
    62    22    23    1
    63    26    23    1
    64   117   119   ar
    65   100    99    1
    66   121   119   ar
    67    23    24    1
    68   103   102    1
    69    39    38    1
    70    40    38    1
    71    38    37    1
    72   102    99    1
    73   102   104    1
    74    99    98    1
    75    84    83    1
    76    24    33   am
    77    24    25    2
    78    33    34    1
    79    94    92   ar
    80    94    96   ar
    81    37    34    1
    82    92    91   ar
    83    85    83    1
    84    97    96    1
    85    83    80    1
    86    34    35    1
    87    74    73    2
    88    62    60    1
    89    96    95   ar
    90    80    81    1
    91    80    79    1
    92    81    82    2
    93    61    60    1
    94    91    90    1
    95    91    93   ar
    96    86    87    1
    97    73    79   am
    98    73    72    1
    99    87    90    1
   100    87    88    1
   101    60    57    1
   102    78    76    1
   103    35    41   am
   104    35    36    2
   105    95    93   ar
   106    41    42    1
   107    76    75    1
   108    76    77    1
   109    75    72    1
   110    44    43    2
   111    57    56    1
   112    57    58    1
   113    72    71    1
   114    89    88    2
   115    56    51   am
   116    42    43    1
   117    42    45    1
   118    43    49   am
   119    45    46    1
   120    46    47    1
   121    46    48    1
   122    63    58   am
   123    63    64    1
   124    66    65    2
   125    58    59    2
   126    51    52    2
   127    51    50    1
   128    67    64    1
   129    67    68    1
   130    50    49    1
   131    50    53    1
   132    49    55    1
   133    64    65    1
   134    68    70   am
   135    68    69    2
   136    55    54    1
   137    53    54    1
