@<TRIPOS>MOLECULE
tmp/4xudA00.pdb
 117 113 0 0 0
SMALL
GASTEIGER

@<TRIPOS>ATOM
      1  N         -1.0990    8.6080  -32.3470 N.3    41  TRP41      -0.1241
      2  CA        -2.1720    8.2720  -31.4140 C.3    41  TRP41       0.1605
      3  C         -1.6030    8.1870  -30.0010 C.2    41  TRP41       0.2264
      4  O         -0.4710    7.7450  -29.8010 O.2    41  TRP41      -0.2867
      5  CB        -2.8250    6.9290  -31.7960 C.3    41  TRP41       0.0550
      6  CG        -4.0520    6.6400  -30.9850 C.ar   41  TRP41       0.0003
      7  CD1       -5.3200    7.0520  -31.2560 C.ar   41  TRP41       0.0946
      8  CD2       -4.1100    5.9400  -29.7310 C.ar   41  TRP41       0.0152
      9  NE1       -6.1730    6.6390  -30.2620 N.ar   41  TRP41      -0.2442
     10  CE2       -5.4560    5.9550  -29.3110 C.ar   41  TRP41       0.0810
     11  CE3       -3.1520    5.2980  -28.9230 C.ar   41  TRP41       0.0012
     12  CZ2       -5.8770    5.3430  -28.1190 C.ar   41  TRP41       0.0191
     13  CZ3       -3.5750    4.6900  -27.7320 C.ar   41  TRP41       0.0001
     14  CH2       -4.9190    4.7160  -27.3510 C.ar   41  TRP41       0.0015
     15  N         -3.1810    7.6740  -25.6040 N.3    43  MET43      -0.1245
     16  CA        -4.3570    7.2690  -24.8070 C.3    43  MET43       0.1570
     17  C         -4.9550    8.3470  -23.8930 C.2    43  MET43       0.2261
     18  O         -5.5080    8.0290  -22.8270 O.2    43  MET43      -0.2867
     19  CB        -4.0800    5.9780  -24.0130 C.3    43  MET43       0.0387
     20  CG        -2.8440    6.0180  -23.1200 C.3    43  MET43       0.0595
     21  SD        -2.4420    4.3750  -22.4680 S.3    43  MET43      -0.1393
     22  CE        -0.9820    4.7330  -21.4880 C.3    43  MET43       0.0692
     23  N         -9.1170    5.8990  -15.0340 N.3   144  ASP144     -0.1239
     24  CA        -8.5980    5.8260  -16.4030 C.3   144  ASP144      0.1674
     25  C         -7.2070    5.1610  -16.4430 C.2   144  ASP144      0.2266
     26  O         -6.3680    5.4700  -17.3030 O.2   144  ASP144     -0.2867
     27  CB        -8.5930    7.2290  -17.0280 C.3   144  ASP144      0.1410
     28  CG        -8.3660    7.2150  -18.5410 C.2   144  ASP144      0.3668
     29  OD1       -8.5680    6.1670  -19.1850 O.co2 144  ASP144     -0.2456
     30  OD2       -7.9750    8.2640  -19.1000 O.co2 144  ASP144     -0.2456
     31  N         -5.1450    1.0570  -15.6320 N.3   146  TRP146     -0.1227
     32  CA        -5.3700   -0.2970  -16.1720 C.3   146  TRP146      0.1737
     33  C         -6.8030   -0.7790  -15.8520 C.2   146  TRP146      0.2595
     34  O         -7.2690   -0.6660  -14.7090 O.2   146  TRP146     -0.2718
     35  CB        -4.3080   -1.2910  -15.6930 C.3   146  TRP146      0.0564
     36  CG        -2.8600   -0.9150  -16.0440 C.ar  146  TRP146      0.0003
     37  CD1       -1.7490   -1.1000  -15.2460 C.ar  146  TRP146      0.0946
     38  CD2       -2.3720   -0.2970  -17.2650 C.ar  146  TRP146      0.0152
     39  NE1       -0.6140   -0.6400  -15.8960 N.ar  146  TRP146     -0.2442
     40  CE2       -0.9640   -0.1470  -17.1290 C.ar  146  TRP146      0.0810
     41  CE3       -2.9860    0.1360  -18.4610 C.ar  146  TRP146      0.0012
     42  CZ2       -0.1520    0.4260  -18.1520 C.ar  146  TRP146      0.0191
     43  CZ3       -2.1740    0.7190  -19.4890 C.ar  146  TRP146      0.0001
     44  CH2       -0.7740    0.8550  -19.3170 C.ar  146  TRP146      0.0015
     45  N         -7.5120   -1.2890  -16.8590 N.am  147  LYS147     -0.1980
     46  CA        -8.9580   -1.5050  -16.7210 C.3   147  LYS147      0.1596
     47  C         -9.3110   -2.6190  -15.7570 C.2   147  LYS147      0.2287
     48  O        -10.4140   -2.6180  -15.1900 O.2   147  LYS147     -0.2864
     49  CB        -9.6700   -1.7060  -18.0670 C.3   147  LYS147      0.0298
     50  CG        -9.2960   -0.7230  -19.1860 C.3   147  LYS147      0.0038
     51  CD        -9.2740    0.7090  -18.7160 C.3   147  LYS147      0.0206
     52  CE        -8.3340    1.5730  -19.5580 C.3   147  LYS147      0.1093
     53  NZ        -8.1620    2.9610  -18.9900 N.3   147  LYS147     -0.1314
     54  N        -13.5900    5.8330  -17.6480 N.3   172  ASP172     -0.1225
     55  CA       -13.3500    5.7970  -19.0970 C.3   172  ASP172      0.1805
     56  C        -13.2200    4.3380  -19.5540 C.2   172  ASP172      0.2597
     57  O        -12.8390    3.4660  -18.7610 O.2   172  ASP172     -0.2718
     58  CB       -12.0630    6.5720  -19.4280 C.3   172  ASP172      0.1424
     59  CG       -11.8880    6.8350  -20.9300 C.2   172  ASP172      0.3668
     60  OD1      -12.9090    7.0350  -21.6280 O.co2 172  ASP172     -0.2456
     61  OD2      -10.7220    6.8550  -21.4210 O.co2 172  ASP172     -0.2456
     62  N        -13.5410    4.0820  -20.8300 N.am  173  ASN173     -0.1974
     63  CA       -13.2600    2.7950  -21.4950 C.3   173  ASN173      0.1688
     64  C        -14.0440    1.5930  -20.9600 C.2   173  ASN173      0.2292
     65  O        -13.4830    0.5070  -20.7590 O.2   173  ASN173     -0.2864
     66  CB       -11.7740    2.4630  -21.4230 C.3   173  ASN173      0.1181
     67  CG       -10.8940    3.6150  -21.8010 C.2   173  ASN173      0.2629
     68  OD1      -10.0790    4.0570  -20.9980 O.2   173  ASN173     -0.2716
     69  ND2      -11.0390    4.1070  -23.0250 N.am  173  ASN173     -0.0877
     70  N        -14.5680    0.1510  -24.7230 N.3   176  CYS176     -0.1221
     71  CA       -13.2810   -0.1500  -25.3820 C.3   176  CYS176      0.1794
     72  C        -12.0490    0.0950  -24.4760 C.2   176  CYS176      0.2443
     73  O        -11.5930    1.2310  -24.3460 O.2   176  CYS176     -0.2733
     74  CB       -13.1600    0.6600  -26.6820 C.3   176  CYS176      0.0970
     75  SG       -11.5380    0.5440  -27.4990 S.3   176  CYS176     -0.0800
     76  N        -11.4630   -0.9750  -23.8920 N.am  177  PRO177     -0.2729
     77  CA       -11.7350   -2.4120  -24.0980 C.3   177  PRO177      0.1401
     78  C        -12.8680   -2.9620  -23.2300 C.2   177  PRO177      0.2269
     79  O        -13.3670   -4.0530  -23.4880 O.2   177  PRO177     -0.2865
     80  CB       -10.4160   -3.0600  -23.6890 C.3   177  PRO177      0.0296
     81  CG        -9.8650   -2.1480  -22.6130 C.3   177  PRO177      0.0237
     82  CD       -10.3780   -0.7590  -22.9070 C.3   177  PRO177      0.0939
     83  N        -13.9120    6.3440  -29.0390 N.3   201  LEU201     -0.1231
     84  CA       -12.5270    6.2220  -28.6250 C.3   201  LEU201      0.1693
     85  C        -11.7440    7.4550  -29.1000 C.2   201  LEU201      0.2591
     86  O        -12.0190    7.9960  -30.1760 O.2   201  LEU201     -0.2718
     87  CB       -11.9070    4.9430  -29.1770 C.3   201  LEU201      0.0284
     88  CG       -10.3980    4.8010  -28.9440 C.3   201  LEU201      0.0019
     89  CD1      -10.0620    4.4170  -27.4780 C.3   201  LEU201      0.0001
     90  CD2       -9.8420    3.7990  -29.9350 C.3   201  LEU201      0.0001
     91  N        -10.7770    7.9000  -28.2990 N.am  202  GLU202     -0.1979
     92  CA       -10.0460    9.1170  -28.6150 C.3   202  GLU202      0.1602
     93  C         -9.3430    9.0100  -29.9810 C.2   202  GLU202      0.2287
     94  O         -8.6260    8.0350  -30.2630 O.2   202  GLU202     -0.2864
     95  CB        -9.0510    9.4620  -27.4980 C.3   202  GLU202      0.0415
     96  CG        -8.0540    8.3370  -27.1560 C.3   202  GLU202      0.1163
     97  CD        -8.5330    7.4050  -26.0340 C.2   202  GLU202      0.3649
     98  OE1       -9.7410    7.3360  -25.7220 O.co2 202  GLU202     -0.2457
     99  OE2       -7.6800    6.7330  -25.4460 O.co2 202  GLU202     -0.2457
    100  N        -10.3290    8.3740  -32.8210 N.3   204  ARG204     -0.1245
    101  CA       -10.7670    7.2500  -33.6430 C.3   204  ARG204      0.1563
    102  C        -12.2780    7.2720  -33.7600 C.2   204  ARG204      0.2260
    103  O        -12.9330    8.0490  -33.0620 O.2   204  ARG204     -0.2867
    104  CB       -10.2890    5.9260  -33.0420 C.3   204  ARG204      0.0307
    105  CG        -8.7700    5.7390  -33.0160 C.3   204  ARG204      0.0489
    106  CD        -8.2190    5.5900  -34.4180 C.3   204  ARG204      0.2205
    107  NE        -6.7700    5.4330  -34.4660 N.pl3 204  ARG204     -0.0865
    108  CZ        -5.8990    6.4260  -34.6600 C.cat 204  ARG204      0.5346
    109  NH1       -6.3080    7.6870  -34.8060 N.pl3 204  ARG204      0.1354
    110  NH2       -4.6020    6.1570  -34.7000 N.pl3 204  ARG204      0.1354
    111  N        -13.9880    4.3500  -33.4520 N.3   206  VAL206     -0.1245
    112  CA       -14.3650    3.2140  -32.6310 C.3   206  VAL206      0.1561
    113  C        -15.3190    3.7050  -31.5480 C.2   206  VAL206      0.2260
    114  O        -15.0990    4.7520  -30.9340 O.2   206  VAL206     -0.2867
    115  CB       -13.0990    2.5990  -32.0100 C.3   206  VAL206      0.0252
    116  CG1      -13.4220    1.5200  -30.9690 C.3   206  VAL206      0.0019
    117  CG2      -12.1990    2.0600  -33.1150 C.3   206  VAL206      0.0019
@<TRIPOS>BOND
     1   109   108    1
     2   110   108    1
     3   108   107    2
     4   107   106    1
     5   106   105    1
     6   102   101    1
     7   102   103    2
     8   101   104    1
     9   101   100    1
    10   111   112    1
    11   117   115    1
    12   104   105    1
    13   112   115    1
    14   112   113    1
    15     1     2    1
    16   115   116    1
    17     5     2    1
    18     5     6    1
    19   113   114    2
    20     2     3    1
    21     7     6   ar
    22     7     9   ar
    23     6     8   ar
    24    94    93    2
    25     9    10   ar
    26    86    85    2
    27     3     4    2
    28    93    92    1
    29    90    88    1
    30     8    10   ar
    31     8    11   ar
    32    10    12   ar
    33    87    88    1
    34    87    84    1
    35    85    84    1
    36    85    91   am
    37    83    84    1
    38    88    89    1
    39    11    13   ar
    40    92    91    1
    41    92    95    1
    42    12    14   ar
    43    13    14   ar
    44    75    74    1
    45    95    96    1
    46    96    97    1
    47    74    71    1
    48    97    98   ar
    49    97    99   ar
    50    15    16    1
    51    71    70    1
    52    71    72    1
    53    16    19    1
    54    16    17    1
    55    72    73    2
    56    72    76   am
    57    77    76    1
    58    77    80    1
    59    77    78    1
    60    19    20    1
    61    17    18    2
    62    76    82    1
    63    80    81    1
    64    79    78    2
    65    20    21    1
    66    69    67   am
    67    82    81    1
    68    21    22    1
    69    67    66    1
    70    67    68    2
    71    60    59   ar
    72    63    66    1
    73    63    64    1
    74    63    62    1
    75    61    59   ar
    76    64    65    2
    77    59    58    1
    78    62    56   am
    79    52    53    1
    80    52    51    1
    81    56    55    1
    82    56    57    2
    83    43    44   ar
    84    43    41   ar
    85    58    55    1
    86    44    42   ar
    87    50    51    1
    88    50    49    1
    89    29    28   ar
    90    30    28   ar
    91    55    54    1
    92    28    27    1
    93    41    38   ar
    94    42    40   ar
    95    49    46    1
    96    26    25    2
    97    38    40   ar
    98    38    36   ar
    99    40    39   ar
   100    27    24    1
   101    45    46    1
   102    45    33   am
   103    46    47    1
   104    25    24    1
   105    24    23    1
   106    32    33    1
   107    32    35    1
   108    32    31    1
   109    36    35    1
   110    36    37   ar
   111    39    37   ar
   112    33    34    2
   113    47    48    2
