@<TRIPOS>MOLECULE
tmp/4xueB00.pdb
 111 111 0 0 0
SMALL
GASTEIGER

@<TRIPOS>ATOM
      1  N         14.0250   -5.4920  -40.4940 N.3    37  TRP37      -0.1241
      2  CA        12.6330   -5.5920  -40.0830 C.3    37  TRP37       0.1605
      3  C         12.0310   -4.2080  -39.8350 C.2    37  TRP37       0.2264
      4  O         12.6940   -3.3230  -39.3110 O.2    37  TRP37      -0.2867
      5  CB        12.5050   -6.4330  -38.8040 C.3    37  TRP37       0.0550
      6  CG        11.0770   -6.7200  -38.4840 C.ar   37  TRP37       0.0003
      7  CD1       10.3370   -7.7670  -38.9380 C.ar   37  TRP37       0.0946
      8  CD2       10.1910   -5.9080  -37.6900 C.ar   37  TRP37       0.0152
      9  NE1        9.0470   -7.6810  -38.4600 N.ar   37  TRP37      -0.2442
     10  CE2        8.9320   -6.5440  -37.6920 C.ar   37  TRP37       0.0810
     11  CE3       10.3470   -4.7160  -36.9660 C.ar   37  TRP37       0.0012
     12  CZ2        7.8300   -6.0300  -36.9980 C.ar   37  TRP37       0.0191
     13  CZ3        9.2460   -4.1950  -36.2940 C.ar   37  TRP37       0.0001
     14  CH2        8.0040   -4.8550  -36.3130 C.ar   37  TRP37       0.0015
     15  N          7.9000   -2.1860  -38.9810 N.3    39  MET39      -0.1245
     16  CA         6.5000   -2.4010  -38.5980 C.3    39  MET39       0.1570
     17  C          5.4330   -2.0170  -39.6560 C.2    39  MET39       0.2261
     18  O          4.3310   -1.5680  -39.2940 O.2    39  MET39      -0.2867
     19  CB         6.2190   -1.7170  -37.2470 C.3    39  MET39       0.0387
     20  CG         6.4560   -0.2100  -37.2370 C.3    39  MET39       0.0595
     21  SD         6.3530    0.5640  -35.6090 S.3    39  MET39      -0.1393
     22  CE         6.9210    2.2290  -35.9620 C.3    39  MET39       0.0692
     23  N         -3.6940    1.1160  -36.5470 N.3   140  ASP140     -0.1225
     24  CA        -2.3550    0.5440  -36.6720 C.3   140  ASP140      0.1805
     25  C         -1.2970    1.4170  -35.9690 C.2   140  ASP140      0.2598
     26  O         -0.1260    1.4210  -36.3520 O.2   140  ASP140     -0.2718
     27  CB        -2.0080    0.3300  -38.1590 C.3   140  ASP140      0.1424
     28  CG        -0.9160   -0.7090  -38.3680 C.2   140  ASP140      0.3668
     29  OD1       -0.6630   -1.5130  -37.4450 O.co2 140  ASP140     -0.2456
     30  OD2       -0.3030   -0.7390  -39.4610 O.co2 140  ASP140     -0.2456
     31  N         -1.7160    2.1630  -34.9490 N.am  141  HIS141     -0.1961
     32  CA        -0.7970    3.0270  -34.2010 C.3   141  HIS141      0.1787
     33  C         -0.3440    2.3230  -32.9050 C.2   141  HIS141      0.2620
     34  O         -0.2660    1.0900  -32.9020 O.2   141  HIS141     -0.2715
     35  CB        -1.4090    4.4210  -33.9670 C.3   141  HIS141      0.0785
     36  CG        -2.8020    4.3980  -33.4110 C.ar  141  HIS141      0.0821
     37  ND1       -3.6810    3.3520  -33.6210 N.ar  141  HIS141     -0.2267
     38  CD2       -3.4750    5.3100  -32.6710 C.ar  141  HIS141      0.1154
     39  CE1       -4.8310    3.6200  -33.0290 C.ar  141  HIS141      0.1986
     40  NE2       -4.7320    4.8010  -32.4460 N.ar  141  HIS141     -0.2212
     41  N         -0.0290    3.0590  -31.8330 N.am  142  TRP142     -0.1960
     42  CA         0.4160    2.3930  -30.5910 C.3   142  TRP142      0.1771
     43  C         -0.7890    1.6350  -30.0250 C.2   142  TRP142      0.2620
     44  O         -1.8830    2.1970  -29.9370 O.2   142  TRP142     -0.2715
     45  CB         1.0180    3.3580  -29.5450 C.3   142  TRP142      0.0590
     46  CG         2.3050    4.1140  -29.9130 C.ar  142  TRP142      0.0006
     47  CD1        2.6930    5.3130  -29.3930 C.ar  142  TRP142      0.0946
     48  CD2        3.3480    3.7370  -30.8530 C.ar  142  TRP142      0.0152
     49  NE1        3.8930    5.7160  -29.9350 N.ar  142  TRP142     -0.2442
     50  CE2        4.3230    4.7740  -30.8320 C.ar  142  TRP142      0.0810
     51  CE3        3.5480    2.6420  -31.7110 C.ar  142  TRP142      0.0012
     52  CZ2        5.4810    4.7540  -31.6390 C.ar  142  TRP142      0.0191
     53  CZ3        4.6990    2.6140  -32.5110 C.ar  142  TRP142      0.0001
     54  CH2        5.6540    3.6750  -32.4670 C.ar  142  TRP142      0.0015
     55  N         -0.6000    0.3590  -29.6830 N.am  143  LYS143     -0.1963
     56  CA        -1.7490   -0.5580  -29.4530 C.3   143  LYS143      0.1728
     57  C         -2.6180   -0.2180  -28.2390 C.2   143  LYS143      0.2616
     58  O         -3.7950   -0.5950  -28.1790 O.2   143  LYS143     -0.2715
     59  CB        -1.3030   -2.0330  -29.4050 C.3   143  LYS143      0.0311
     60  CG        -0.4190   -2.4870  -30.5670 C.3   143  LYS143      0.0038
     61  CD        -0.9850   -2.0650  -31.9440 C.3   143  LYS143      0.0206
     62  CE         0.0800   -2.1690  -33.0460 C.3   143  LYS143      0.1093
     63  NZ        -0.3630   -1.4270  -34.2840 N.3   143  LYS143     -0.1314
     64  N         -2.0510    0.5160  -27.2880 N.am  144  ASP144     -0.1971
     65  CA        -2.8250    0.9820  -26.1390 C.3   144  ASP144      0.1709
     66  C         -3.8300    2.0950  -26.5160 C.2   144  ASP144      0.2293
     67  O         -4.7040    2.4480  -25.7210 O.2   144  ASP144     -0.2864
     68  CB        -1.9080    1.3910  -24.9740 C.3   144  ASP144      0.1436
     69  CG        -0.9370    2.5050  -25.3420 C.2   144  ASP144      0.3671
     70  OD1       -0.4900    2.6090  -26.5200 O.co2 144  ASP144     -0.2456
     71  OD2       -0.6010    3.2820  -24.4270 O.co2 144  ASP144     -0.2456
     72  N         -4.9720   -3.7870  -36.9870 N.3   168  ASP168     -0.1225
     73  CA        -3.8100   -4.6660  -37.1090 C.3   168  ASP168      0.1805
     74  C         -3.2910   -5.0450  -35.6980 C.2   168  ASP168      0.2597
     75  O         -3.6360   -4.3810  -34.7020 O.2   168  ASP168     -0.2718
     76  CB        -2.7140   -3.9840  -37.9500 C.3   168  ASP168      0.1424
     77  CG        -1.6090   -4.9450  -38.3820 C.2   168  ASP168      0.3668
     78  OD1       -1.8750   -6.1500  -38.4850 O.co2 168  ASP168     -0.2456
     79  OD2       -0.4640   -4.5010  -38.6310 O.co2 168  ASP168     -0.2456
     80  N         -2.5010   -6.1210  -35.6370 N.am  169  ASN169     -0.1974
     81  CA        -1.7730   -6.5590  -34.4330 C.3   169  ASN169      0.1688
     82  C         -2.6310   -6.8420  -33.1900 C.2   169  ASN169      0.2292
     83  O         -2.2260   -6.5270  -32.0730 O.2   169  ASN169     -0.2864
     84  CB        -0.6490   -5.5760  -34.0540 C.3   169  ASN169      0.1181
     85  CG         0.1780   -5.1280  -35.2420 C.2   169  ASN169      0.2629
     86  OD1       -0.0590   -4.0640  -35.7910 O.2   169  ASN169     -0.2716
     87  ND2        1.1470   -5.9240  -35.6360 N.am  169  ASN169     -0.0877
     88  N          1.9530   -6.9900  -31.2900 N.3   173  PRO173     -0.2116
     89  CA         2.0950   -6.7700  -29.8440 C.3   173  PRO173      0.1372
     90  C          0.8000   -6.8910  -29.0390 C.2   173  PRO173      0.2244
     91  O          0.8520   -6.8740  -27.7980 O.2   173  PRO173     -0.2868
     92  CB         2.6140   -5.3230  -29.7550 C.3   173  PRO173      0.0268
     93  CG         3.2560   -5.0680  -31.0780 C.3   173  PRO173      0.0207
     94  CD         2.4210   -5.8160  -32.0580 C.3   173  PRO173      0.0892
     95  N          2.7610  -12.0900  -38.0430 N.3   197  LEU197     -0.1231
     96  CA         3.4230  -10.8100  -37.8970 C.3   197  LEU197      0.1693
     97  C          4.2530  -10.5660  -39.1470 C.2   197  LEU197      0.2591
     98  O          4.9730  -11.4680  -39.5980 O.2   197  LEU197     -0.2718
     99  CB         4.3210  -10.8110  -36.6590 C.3   197  LEU197      0.0284
    100  CG         5.1140   -9.5420  -36.3450 C.3   197  LEU197      0.0019
    101  CD1        4.1960   -8.4100  -35.8530 C.3   197  LEU197      0.0001
    102  CD2        6.2120   -9.8560  -35.3350 C.3   197  LEU197      0.0001
    103  N          4.1480   -9.3530  -39.6990 N.am  198  GLU198     -0.1979
    104  CA         4.8820   -8.9750  -40.9060 C.3   198  GLU198      0.1602
    105  C          6.3200   -9.4750  -40.8900 C.2   198  GLU198      0.2287
    106  O          7.0400   -9.3010  -39.9030 O.2   198  GLU198     -0.2864
    107  CB         4.8450   -7.4490  -41.1420 C.3   198  GLU198      0.0415
    108  CG         5.3530   -6.5870  -39.9700 C.3   198  GLU198      0.1163
    109  CD         4.2450   -6.0760  -39.0690 C.2   198  GLU198      0.3649
    110  OE1        3.2090   -6.7560  -38.8840 O.co2 198  GLU198     -0.2457
    111  OE2        4.4120   -4.9660  -38.5340 O.co2 198  GLU198     -0.2457
@<TRIPOS>BOND
     1   107   104    1
     2   107   108    1
     3   104   105    1
     4   104   103    1
     5   105   106    2
     6     1     2    1
     7     2     3    1
     8     2     5    1
     9   108   109    1
    10     3     4    2
    11   103    97   am
    12    17    18    2
    13    17    16    1
    14    98    97    2
    15    30    28   ar
    16    97    96    1
    17   109   110   ar
    18   109   111   ar
    19    15    16    1
    20     7     6   ar
    21     7     9   ar
    22     5     6    1
    23    79    77   ar
    24    16    19    1
    25    78    77   ar
    26     6     8   ar
    27     9    10   ar
    28    77    76    1
    29    28    27    1
    30    28    29   ar
    31    27    24    1
    32    95    96    1
    33    76    73    1
    34    96    99    1
    35    10     8   ar
    36    10    12   ar
    37     8    11   ar
    38    19    20    1
    39    20    21    1
    40    73    72    1
    41    73    74    1
    42    12    14   ar
    43    11    13   ar
    44    24    23    1
    45    24    25    1
    46    99   100    1
    47    26    25    2
    48   100   101    1
    49   100   102    1
    50    14    13   ar
    51    25    31   am
    52    22    21    1
    53    86    85    2
    54    74    80   am
    55    74    75    2
    56    80    81    1
    57    87    85   am
    58    85    84    1
    59    31    32    1
    60    81    84    1
    61    81    82    1
    62    63    62    1
    63    32    35    1
    64    32    33    1
    65    35    36    1
    66    37    36   ar
    67    37    39   ar
    68    36    38   ar
    69    82    83    2
    70    62    61    1
    71    39    40   ar
    72    33    34    2
    73    33    41   am
    74    38    40   ar
    75    53    54   ar
    76    53    51   ar
    77    54    52   ar
    78    94    88    1
    79    94    93    1
    80    61    60    1
    81    41    42    1
    82    51    48   ar
    83    52    50   ar
    84    88    89    1
    85    93    92    1
    86    48    50   ar
    87    48    46   ar
    88    50    49   ar
    89    42    43    1
    90    42    45    1
    91    60    59    1
    92    43    44    2
    93    43    55   am
    94    49    47   ar
    95    46    45    1
    96    46    47   ar
    97    89    92    1
    98    89    90    1
    99    55    56    1
   100    56    59    1
   101    56    57    1
   102    90    91    2
   103    57    58    2
   104    57    64   am
   105    64    65    1
   106    70    69   ar
   107    66    65    1
   108    66    67    2
   109    65    68    1
   110    69    68    1
   111    69    71   ar
