@<TRIPOS>MOLECULE
tmp/4xugA00.pdb
 158 148 0 0 0
SMALL
GASTEIGER

@<TRIPOS>ATOM
      1  N        -45.9320    4.1690   16.1350 N.3    22  PHE22      -0.1241
      2  CA       -44.6590    3.9100   16.7470 C.3    22  PHE22       0.1605
      3  C        -43.7940    5.1710   16.6830 C.2    22  PHE22       0.2264
      4  O        -43.7180    5.7960   15.6240 O.2    22  PHE22      -0.2867
      5  CB       -43.9230    2.7330   16.0700 C.3    22  PHE22       0.0534
      6  CG       -42.4720    2.6580   16.4530 C.ar   22  PHE22      -0.0203
      7  CD1      -41.5190    3.4520   15.7730 C.ar   22  PHE22      -0.0042
      8  CD2      -42.0540    1.8500   17.5010 C.ar   22  PHE22      -0.0042
      9  CE1      -40.1830    3.4570   16.1920 C.ar   22  PHE22      -0.0003
     10  CE2      -40.7190    1.8030   17.8990 C.ar   22  PHE22      -0.0003
     11  CZ       -39.7730    2.6160   17.2470 C.ar   22  PHE22      -0.0000
     12  N        -46.7220    2.3560   20.4370 N.3    49  GLU49      -0.1245
     13  CA       -45.5850    1.4580   20.4540 C.3    49  GLU49       0.1567
     14  C        -44.3700    2.3930   20.5880 C.2    49  GLU49       0.2260
     15  O        -44.2230    3.3470   19.8120 O.2    49  GLU49      -0.2867
     16  CB       -45.5870    0.6940   19.1450 C.3    49  GLU49       0.0388
     17  CG       -44.8350   -0.6040   19.1650 C.3    49  GLU49       0.1160
     18  CD       -45.3540   -1.5890   20.2090 C.2    49  GLU49       0.3649
     19  OE1      -46.5810   -1.7780   20.4360 O.co2  49  GLU49      -0.2457
     20  OE2      -44.4380   -2.2040   20.7600 O.co2  49  GLU49      -0.2457
     21  N        -33.9410   -5.2860   13.2750 N.3    59  ALA59      -0.1231
     22  CA       -35.2360   -5.4700   12.5790 C.3    59  ALA59       0.1694
     23  C        -35.7450   -4.1550   11.9560 C.2    59  ALA59       0.2592
     24  O        -36.8600   -4.1340   11.4070 O.2    59  ALA59      -0.2718
     25  CB       -36.2980   -6.0540   13.5090 C.3    59  ALA59       0.0304
     26  N        -34.9480   -3.0960   12.0330 N.am   60  ASP60      -0.1974
     27  CA       -35.3370   -1.7660   11.5470 C.3    60  ASP60       0.1709
     28  C        -34.6450   -1.3020   10.2850 C.2    60  ASP60       0.2293
     29  O        -33.4430   -1.4860   10.1200 O.2    60  ASP60      -0.2864
     30  CB       -35.1420   -0.7160   12.6570 C.3    60  ASP60       0.1436
     31  CG       -36.2230   -0.8380   13.7390 C.2    60  ASP60       0.3671
     32  OD1      -37.4280   -0.6400   13.3690 O.co2  60  ASP60      -0.2456
     33  OD2      -35.8520   -1.1840   14.9100 O.co2  60  ASP60      -0.2456
     34  N        -35.9660    4.1640   10.9460 N.3    64  ILE64      -0.1245
     35  CA       -35.9510    3.9500   12.3870 C.3    64  ILE64       0.1561
     36  C        -34.5090    3.7900   12.8860 C.2    64  ILE64       0.2260
     37  O        -34.1750    4.2260   14.0020 O.2    64  ILE64      -0.2867
     38  CB       -36.9640    2.8660   12.8090 C.3    64  ILE64       0.0252
     39  CG1      -38.3930    3.4650   12.6580 C.3    64  ILE64       0.0019
     40  CG2      -36.7410    2.4540   14.2530 C.3    64  ILE64       0.0019
     41  CD1      -39.5070    2.4170   12.6670 C.3    64  ILE64       0.0001
     42  N        -41.0480   -1.4960   22.2310 N.3   100  LEU100     -0.1245
     43  CA       -40.3310   -2.2820   21.2050 C.3   100  LEU100      0.1561
     44  C        -38.9020   -2.3510   21.7530 C.2   100  LEU100      0.2260
     45  O        -38.1730   -1.3400   21.7550 O.2   100  LEU100     -0.2867
     46  CB       -40.4070   -1.5950   19.8040 C.3   100  LEU100      0.0270
     47  CG       -39.7570   -2.3130   18.6170 C.3   100  LEU100      0.0019
     48  CD1      -38.2340   -2.2200   18.6490 C.3   100  LEU100      0.0001
     49  CD2      -40.1530   -3.7470   18.5490 C.3   100  LEU100      0.0001
     50  N        -42.5710   -6.1030   23.2060 N.3   127  LEU127     -0.1245
     51  CA       -42.2660   -6.9170   22.0100 C.3   127  LEU127      0.1561
     52  C        -40.7460   -6.9000   21.9490 C.2   127  LEU127      0.2260
     53  O        -40.1390   -5.8190   21.8090 O.2   127  LEU127     -0.2867
     54  CB       -42.8870   -6.2170   20.7820 C.3   127  LEU127      0.0270
     55  CG       -42.9350   -7.0230   19.4750 C.3   127  LEU127      0.0019
     56  CD1      -43.7070   -6.2280   18.4210 C.3   127  LEU127      0.0001
     57  CD2      -41.5610   -7.3460   18.9800 C.3   127  LEU127      0.0001
     58  N        -37.8060   -7.8330   19.7850 N.3   129  ALA129     -0.1245
     59  CA       -37.8270   -8.0160   18.3360 C.3   129  ALA129      0.1562
     60  C        -36.9810   -9.2070   17.8770 C.2   129  ALA129      0.2260
     61  O        -37.3180   -9.8950   16.8790 O.2   129  ALA129     -0.2867
     62  CB       -37.3500   -6.7370   17.6570 C.3   129  ALA129      0.0290
     63  N        -44.9170  -12.3330   17.1570 N.3   153  ILE153     -0.1245
     64  CA       -45.0060  -11.9440   15.7890 C.3   153  ILE153      0.1561
     65  C        -45.5410  -13.1410   15.0220 C.2   153  ILE153      0.2260
     66  O        -45.0000  -14.2330   15.1190 O.2   153  ILE153     -0.2867
     67  CB       -43.6040  -11.6330   15.2410 C.3   153  ILE153      0.0252
     68  CG1      -42.9030  -10.5500   16.0690 C.3   153  ILE153      0.0019
     69  CG2      -43.6810  -11.2830   13.7760 C.3   153  ILE153      0.0019
     70  CD1      -43.3500   -9.1330   15.8670 C.3   153  ILE153      0.0001
     71  N        -49.0720   -9.4590   16.9360 N.3   175  TYR175     -0.1241
     72  CA       -48.4670   -8.6670   15.8730 C.3   175  TYR175      0.1605
     73  C        -48.5690   -9.4060   14.5510 C.2   175  TYR175      0.2264
     74  O        -47.9430  -10.4570   14.3920 O.2   175  TYR175     -0.2867
     75  CB       -46.9900   -8.4080   16.1780 C.3   175  TYR175      0.0534
     76  CG       -46.4830   -7.1840   15.4360 C.ar  175  TYR175     -0.0201
     77  CD1      -46.2470   -7.2200   14.0200 C.ar  175  TYR175     -0.0009
     78  CD2      -46.2890   -5.9840   16.0950 C.ar  175  TYR175     -0.0009
     79  CE1      -45.7800   -6.0820   13.3450 C.ar  175  TYR175      0.0417
     80  CE2      -45.8430   -4.8590   15.4280 C.ar  175  TYR175      0.0417
     81  CZ       -45.5990   -4.9040   14.0530 C.ar  175  TYR175      0.1957
     82  OH       -45.1340   -3.7500   13.4300 O.3   175  TYR175     -0.2866
     83  N        -47.3890   -9.4990   10.9420 N.3   177  LEU177     -0.1245
     84  CA       -46.4170   -8.8750   10.0410 C.3   177  LEU177      0.1561
     85  C        -46.9800   -8.8350    8.6340 C.2   177  LEU177      0.2260
     86  O        -47.4780   -9.8600    8.1460 O.2   177  LEU177     -0.2867
     87  CB       -45.1620   -9.7490    9.8960 C.3   177  LEU177      0.0270
     88  CG       -43.9880   -9.5150   10.7880 C.3   177  LEU177      0.0019
     89  CD1      -42.8850  -10.5530   10.4940 C.3   177  LEU177      0.0001
     90  CD2      -43.4630   -8.0880   10.6660 C.3   177  LEU177      0.0001
     91  N        -38.4870   -2.8960    9.1260 N.3   183  THR183     -0.1203
     92  CA       -39.4470   -1.7480    9.1300 C.3   183  THR183      0.1994
     93  C        -39.1630   -0.7780    7.9770 C.2   183  THR183      0.2618
     94  O        -38.0010   -0.6540    7.5630 O.2   183  THR183     -0.2717
     95  CB       -39.4400   -0.9890   10.4530 C.3   183  THR183      0.1784
     96  OG1      -38.1600   -0.3930   10.6750 O.3   183  THR183     -0.2211
     97  CG2      -39.7600   -1.9650   11.6200 C.3   183  THR183      0.0376
     98  N        -40.2070   -0.1530    7.4280 N.am  184  GLY184     -0.1942
     99  CA       -39.9760    0.9800    6.4740 C.3   184  GLY184      0.2014
    100  C        -41.2080    1.2550    5.6340 C.2   184  GLY184      0.2638
    101  O        -41.9000    0.2940    5.2200 O.2   184  GLY184     -0.2714
    102  N        -41.5140    2.5490    5.4510 N.am  185  ALA185     -0.1977
    103  CA       -42.7030    2.9830    4.7180 C.3   185  ALA185      0.1597
    104  C        -42.4770    2.7900    3.2100 C.2   185  ALA185      0.2287
    105  O        -43.4310    2.6850    2.4470 O.2   185  ALA185     -0.2864
    106  CB       -43.0330    4.4450    5.0470 C.3   185  ALA185      0.0319
    107  N        -45.7780   -3.0750    9.7030 N.3   212  PHE212     -0.1227
    108  CA       -44.7040   -3.0370    8.6450 C.3   212  PHE212      0.1736
    109  C        -45.3000   -2.4560    7.3720 C.2   212  PHE212      0.2596
    110  O        -46.2990   -2.9690    6.8350 O.2   212  PHE212     -0.2718
    111  CB       -43.9940   -4.3730    8.3220 C.3   212  PHE212      0.0547
    112  CG       -42.9090   -4.7510    9.3070 C.ar  212  PHE212     -0.0202
    113  CD1      -43.0810   -4.4940   10.6860 C.ar  212  PHE212     -0.0042
    114  CD2      -41.7450   -5.4160    8.8690 C.ar  212  PHE212     -0.0042
    115  CE1      -42.0970   -4.8610   11.5990 C.ar  212  PHE212     -0.0003
    116  CE2      -40.7450   -5.7510    9.7810 C.ar  212  PHE212     -0.0003
    117  CZ       -40.9330   -5.5050   11.1530 C.ar  212  PHE212     -0.0000
    118  N        -44.7160   -1.3560    6.9310 N.am  213  GLY213     -0.1942
    119  CA       -45.1030   -0.7170    5.6780 C.3   213  GLY213      0.2014
    120  C        -46.4460    0.0220    5.6420 C.2   213  GLY213      0.2638
    121  O        -46.8430    0.4300    4.5730 O.2   213  GLY213     -0.2714
    122  N        -47.1360    0.1660    6.7830 N.am  214  ILE214     -0.1977
    123  CA       -48.4400    0.8740    6.8420 C.3   214  ILE214      0.1596
    124  C        -48.1830    2.3780    6.8560 C.2   214  ILE214      0.2287
    125  O        -47.6650    2.9290    7.8620 O.2   214  ILE214     -0.2864
    126  CB       -49.2400    0.4890    8.1060 C.3   214  ILE214      0.0276
    127  CG1      -49.4340   -1.0330    8.1800 C.3   214  ILE214      0.0022
    128  CG2      -50.5820    1.2900    8.2130 C.3   214  ILE214      0.0022
    129  CD1      -50.3550   -1.6470    7.1680 C.3   214  ILE214      0.0001
    130  N        -50.5790   -0.7590   12.9290 N.3   232  ILE232     -0.1231
    131  CA       -49.4480    0.0270   13.4960 C.3   232  ILE232      0.1692
    132  C        -48.6700    0.7160   12.4060 C.2   232  ILE232      0.2593
    133  O        -48.4230    0.1110   11.3400 O.2   232  ILE232     -0.2718
    134  CB       -48.4770   -0.9120   14.2980 C.3   232  ILE232      0.0266
    135  CG1      -49.2030   -1.5780   15.5070 C.3   232  ILE232      0.0019
    136  CG2      -47.1410   -0.2180   14.6490 C.3   232  ILE232      0.0020
    137  CD1      -48.4320   -2.7610   16.1330 C.3   232  ILE232      0.0001
    138  N        -48.2480    1.9550   12.6410 N.am  233  SER233     -0.1938
    139  CA       -47.4550    2.6920   11.6470 C.3   233  SER233      0.2055
    140  C        -46.2990    3.3710   12.3650 C.2   233  SER233      0.2644
    141  O        -46.5210    4.1010   13.3320 O.2   233  SER233     -0.2714
    142  CB       -48.3310    3.7730   10.9440 C.3   233  SER233      0.2130
    143  OG       -47.5620    4.6290   10.1020 O.3   233  SER233     -0.2179
    144  N        -45.0840    3.1390   11.8650 N.am  234  GLY234     -0.1939
    145  CA       -43.8740    3.6100   12.5570 C.3   234  GLY234      0.2014
    146  C        -43.1210    4.5360   11.6490 C.2   234  GLY234      0.2640
    147  O        -43.0770    5.7730   11.8870 O.2   234  GLY234     -0.2714
    148  N        -42.5250    3.9550   10.5950 N.am  235  SER235     -0.1935
    149  CA       -41.6760    4.7720    9.7160 C.3   235  SER235      0.2055
    150  C        -42.3800    6.0070    9.1800 C.2   235  SER235      0.2642
    151  O        -41.7450    7.0860    9.0720 O.2   235  SER235     -0.2714
    152  CB       -41.0920    3.9660    8.5550 C.3   235  SER235      0.2130
    153  OG       -40.2670    2.9520    9.1060 O.3   235  SER235     -0.2179
    154  N        -43.6550    5.8620    8.8000 N.am  236  ALA236     -0.1977
    155  CA       -44.3980    7.0250    8.2960 C.3   236  ALA236      0.1597
    156  C        -44.5090    8.2090    9.2840 C.2   236  ALA236      0.2287
    157  O        -44.4990    9.3850    8.8430 O.2   236  ALA236     -0.2864
    158  CB       -45.7870    6.6360    7.7530 C.3   236  ALA236      0.0319
@<TRIPOS>BOND
     1   105   104    2
     2   104   103    1
     3   121   120    2
     4   103   106    1
     5   103   102    1
     6   101   100    2
     7   102   100   am
     8   100    99    1
     9   120   119    1
    10   120   122   am
    11   119   118    1
    12    99    98    1
    13   122   123    1
    14   110   109    2
    15   123   124    1
    16   123   126    1
    17   124   125    2
    18   118   109   am
    19   129   127    1
    20   109   108    1
    21    98    93   am
    22    94    93    2
    23   158   155    1
    24    93    92    1
    25   126   127    1
    26   126   128    1
    27    86    85    2
    28   155   154    1
    29   155   156    1
    30   111   108    1
    31   111   112    1
    32   152   153    1
    33   152   149    1
    34    85    84    1
    35   108   107    1
    36   154   150   am
    37   157   156    2
    38   114   112   ar
    39   114   116   ar
    40   151   150    2
    41    91    92    1
    42    92    95    1
    43   150   149    1
    44   112   113   ar
    45   149   148    1
    46   116   117   ar
    47    87    84    1
    48    87    88    1
    49    84    83    1
    50   143   142    1
    51    29    28    2
    52    28    27    1
    53    95    96    1
    54    95    97    1
    55    89    88    1
    56   148   146   am
    57    90    88    1
    58   113   115   ar
    59   142   139    1
    60    34    35    1
    61   117   115   ar
    62   133   132    2
    63    24    23    2
    64    27    26    1
    65    27    30    1
    66   139   140    1
    67   139   138    1
    68   146   147    2
    69   146   145    1
    70   144   140   am
    71   144   145    1
    72    23    26   am
    73    23    22    1
    74   140   141    2
    75    35    38    1
    76    35    36    1
    77   132   138   am
    78   132   131    1
    79    22    21    1
    80    22    25    1
    81    30    31    1
    82    39    41    1
    83    39    38    1
    84    38    40    1
    85    36    37    2
    86   130   131    1
    87    79    77   ar
    88    79    81   ar
    89    32    31   ar
    90    82    81    1
    91   131   134    1
    92    31    33   ar
    93    69    67    1
    94    77    76   ar
    95    81    80   ar
    96   134   136    1
    97   134   135    1
    98    74    73    2
    99    73    72    1
   100    65    66    2
   101    65    64    1
   102    67    64    1
   103    67    68    1
   104    80    78   ar
   105    76    78   ar
   106    76    75    1
   107   135   137    1
   108     4     3    2
   109     7     9   ar
   110     7     6   ar
   111    64    63    1
   112    70    68    1
   113    72    75    1
   114    72    71    1
   115     5     6    1
   116     5     2    1
   117     1     2    1
   118     9    11   ar
   119     6     8   ar
   120     3     2    1
   121    61    60    2
   122    11    10   ar
   123     8    10   ar
   124    62    59    1
   125    60    59    1
   126    59    58    1
   127    56    55    1
   128    49    47    1
   129    47    48    1
   130    47    46    1
   131    57    55    1
   132    16    17    1
   133    16    13    1
   134    17    18    1
   135    55    54    1
   136    46    43    1
   137    15    14    2
   138    18    19   ar
   139    18    20   ar
   140    12    13    1
   141    13    14    1
   142    54    51    1
   143    43    44    1
   144    43    42    1
   145    44    45    2
   146    53    52    2
   147    52    51    1
   148    51    50    1
