@<TRIPOS>MOLECULE
tmp/4xuhB01.pdb
 192 182 0 0 0
SMALL
GASTEIGER

@<TRIPOS>ATOM
      1  N         42.4930  -16.9540   42.5070 N.3    67  PHE67      -0.1241
      2  CA        42.3280  -16.7800   41.0660 C.3    67  PHE67       0.1605
      3  C         42.9890  -17.9220   40.3020 C.2    67  PHE67       0.2264
      4  O         42.3890  -18.5020   39.3900 O.2    67  PHE67      -0.2867
      5  CB        42.9030  -15.4280   40.6380 C.3    67  PHE67       0.0534
      6  CG        42.8490  -15.1690   39.1500 C.ar   67  PHE67      -0.0203
      7  CD1       41.6960  -14.6760   38.5580 C.ar   67  PHE67      -0.0042
      8  CD2       43.9660  -15.3870   38.3500 C.ar   67  PHE67      -0.0042
      9  CE1       41.6510  -14.4260   37.1940 C.ar   67  PHE67      -0.0003
     10  CE2       43.9260  -15.1370   36.9850 C.ar   67  PHE67      -0.0003
     11  CZ        42.7720  -14.6560   36.4070 C.ar   67  PHE67      -0.0000
     12  N         41.0000  -21.1030   40.3850 N.3    70  CYS70      -0.1221
     13  CA        39.8980  -21.1110   39.4340 C.3    70  CYS70       0.1808
     14  C         40.3920  -21.4360   38.0290 C.2    70  CYS70       0.2601
     15  O         39.7430  -22.1880   37.2940 O.2    70  CYS70      -0.2717
     16  CB        39.1810  -19.7610   39.4570 C.3    70  CYS70       0.0970
     17  SG        38.4530  -19.3370   41.0590 S.3    70  CYS70      -0.0800
     18  N         41.5500  -20.8900   37.6470 N.am   71  GLN71      -0.1979
     19  CA        42.1220  -21.1880   36.3390 C.3    71  GLN71       0.1601
     20  C         42.4130  -22.6770   36.1950 C.2    71  GLN71       0.2287
     21  O         42.0960  -23.2840   35.1630 O.2    71  GLN71      -0.2864
     22  CB        43.3950  -20.3660   36.1200 C.3    71  GLN71       0.0394
     23  CG        43.1500  -18.9080   35.7630 C.3    71  GLN71       0.0908
     24  CD        44.4480  -18.1540   35.5430 C.2    71  GLN71       0.2608
     25  OE1       45.3260  -18.1350   36.4100 O.2    71  GLN71      -0.2717
     26  NE2       44.5850  -17.5430   34.3750 N.am   71  GLN71      -0.0878
     27  N         39.2000  -24.4490   35.6560 N.3    74  SER74      -0.1217
     28  CA        38.6320  -24.1740   34.3360 C.3    74  SER74       0.1889
     29  C         39.2600  -25.0580   33.2670 C.2    74  SER74       0.2288
     30  O         38.5530  -25.5910   32.4080 O.2    74  SER74      -0.2866
     31  CB        38.7870  -22.6930   33.9820 C.3    74  SER74       0.2089
     32  OG        40.0860  -22.4050   33.5150 O.3    74  SER74      -0.2183
     33  N         32.7120  -21.4290   28.1970 N.3   108  HIS108     -0.1241
     34  CA        32.4770  -20.4260   29.2370 C.3   108  HIS108      0.1621
     35  C         31.0270  -20.4430   29.7090 C.2   108  HIS108      0.2264
     36  O         30.7560  -20.4210   30.9190 O.2   108  HIS108     -0.2867
     37  CB        32.8440  -19.0310   28.7400 C.3   108  HIS108      0.0745
     38  CG        34.2930  -18.6990   28.8860 C.ar  108  HIS108      0.0817
     39  ND1       35.1960  -18.8380   27.8530 N.ar  108  HIS108     -0.2268
     40  CD2       34.9950  -18.2190   29.9410 C.ar  108  HIS108      0.1154
     41  CE1       36.3950  -18.4690   28.2690 C.ar  108  HIS108      0.1986
     42  NE2       36.3000  -18.0850   29.5320 N.ar  108  HIS108     -0.2212
     43  N         30.5150  -23.5330   31.7900 N.3   111  ILE111     -0.1231
     44  CA        31.1580  -23.4280   33.0950 C.3   111  ILE111      0.1692
     45  C         30.3050  -22.5920   34.0430 C.2   111  ILE111      0.2592
     46  O         30.1390  -22.9410   35.2200 O.2   111  ILE111     -0.2718
     47  CB        32.5820  -22.8580   32.9490 C.3   111  ILE111      0.0266
     48  CG1       33.4980  -23.8960   32.2760 C.3   111  ILE111      0.0019
     49  CG2       33.1190  -22.4250   34.3170 C.3   111  ILE111      0.0020
     50  CD1       34.8880  -23.3910   31.9660 C.3   111  ILE111      0.0001
     51  N         29.7410  -21.4840   33.5460 N.am  112  TYR112     -0.1976
     52  CA        28.8110  -20.7030   34.3560 C.3   112  TYR112      0.1639
     53  C         27.6070  -21.5380   34.7730 C.2   112  TYR112      0.2290
     54  O         27.1350  -21.4340   35.9120 O.2   112  TYR112     -0.2864
     55  CB        28.3570  -19.4610   33.5970 C.3   112  TYR112      0.0560
     56  CG        29.1090  -18.2190   33.9960 C.ar  112  TYR112     -0.0198
     57  CD1       30.2950  -17.8780   33.3660 C.ar  112  TYR112     -0.0009
     58  CD2       28.6370  -17.3890   34.9990 C.ar  112  TYR112     -0.0009
     59  CE1       30.9980  -16.7450   33.7260 C.ar  112  TYR112      0.0417
     60  CE2       29.3390  -16.2490   35.3760 C.ar  112  TYR112      0.0417
     61  CZ        30.5180  -15.9360   34.7260 C.ar  112  TYR112      0.1957
     62  OH        31.2290  -14.8080   35.0620 O.3   112  TYR112     -0.2866
     63  N         28.8110  -24.0790   37.3930 N.3   115  LEU115     -0.1245
     64  CA        29.1220  -23.3040   38.5850 C.3   115  LEU115      0.1561
     65  C         27.8900  -23.1280   39.4650 C.2   115  LEU115      0.2260
     66  O         27.9580  -23.2710   40.6880 O.2   115  LEU115     -0.2867
     67  CB        29.6770  -21.9570   38.1290 C.3   115  LEU115      0.0270
     68  CG        30.3680  -20.9070   38.9670 C.3   115  LEU115      0.0019
     69  CD1       31.4540  -21.5730   39.7440 C.3   115  LEU115      0.0001
     70  CD2       30.9730  -19.8890   38.0260 C.3   115  LEU115      0.0001
     71  N         26.7410  -24.2410   43.9160 N.3   119  MET119     -0.1245
     72  CA        26.7840  -22.9380   44.5620 C.3   119  MET119      0.1570
     73  C         25.4260  -22.6250   45.1860 C.2   119  MET119      0.2261
     74  O         24.3820  -23.0560   44.6870 O.2   119  MET119     -0.2867
     75  CB        27.1940  -21.8820   43.5130 C.3   119  MET119      0.0387
     76  CG        27.2570  -20.4310   43.9370 C.3   119  MET119      0.0595
     77  SD        27.9360  -19.3980   42.5960 S.3   119  MET119     -0.1393
     78  CE        29.5450  -20.1090   42.3840 C.3   119  MET119      0.0692
     79  N         30.2150  -21.7120   47.8160 N.3   124  VAL124     -0.1245
     80  CA        30.4710  -22.5130   46.6250 C.3   124  VAL124      0.1561
     81  C         31.3710  -23.6860   46.9880 C.2   124  VAL124      0.2260
     82  O         32.3460  -23.5300   47.7300 O.2   124  VAL124     -0.2867
     83  CB        31.1040  -21.6540   45.5080 C.3   124  VAL124      0.0252
     84  CG1       32.3170  -20.9100   46.0320 C.3   124  VAL124      0.0019
     85  CG2       31.4880  -22.5090   44.3260 C.3   124  VAL124      0.0019
     86  N         34.2380  -26.4180   46.3640 N.3   126  ILE126     -0.1245
     87  CA        35.5070  -26.4360   45.6490 C.3   126  ILE126      0.1561
     88  C         36.1650  -27.7950   45.8270 C.2   126  ILE126      0.2260
     89  O         35.8100  -28.5750   46.7180 O.2   126  ILE126     -0.2867
     90  CB        36.4730  -25.3250   46.1150 C.3   126  ILE126      0.0252
     91  CG1       36.7850  -25.4850   47.6030 C.3   126  ILE126      0.0019
     92  CG2       35.9000  -23.9440   45.8030 C.3   126  ILE126      0.0019
     93  CD1       38.0520  -24.8130   48.0270 C.3   126  ILE126      0.0001
     94  N         34.8020  -14.5120   49.5300 N.3   138  LEU138     -0.1245
     95  CA        35.1720  -14.2200   48.1430 C.3   138  LEU138      0.1561
     96  C         34.8640  -12.7710   47.7940 C.2   138  LEU138      0.2260
     97  O         35.6860  -12.0740   47.1940 O.2   138  LEU138     -0.2867
     98  CB        34.4440  -15.1690   47.1860 C.3   138  LEU138      0.0270
     99  CG        34.8850  -16.6340   47.2870 C.3   138  LEU138      0.0019
    100  CD1       34.1130  -17.5340   46.3370 C.3   138  LEU138      0.0001
    101  CD2       36.3720  -16.7420   47.0180 C.3   138  LEU138      0.0001
    102  N         35.1360   -9.6440   40.9200 N.3   148  PHE148     -0.1227
    103  CA        35.2160  -10.7210   39.9450 C.3   148  PHE148      0.1736
    104  C         34.4720  -11.9630   40.4240 C.2   148  PHE148      0.2595
    105  O         33.9450  -12.7180   39.6010 O.2   148  PHE148     -0.2718
    106  CB        36.6910  -11.0290   39.6620 C.3   148  PHE148      0.0547
    107  CG        36.9240  -11.9540   38.5030 C.ar  148  PHE148     -0.0202
    108  CD1       36.5190  -11.6060   37.2210 C.ar  148  PHE148     -0.0042
    109  CD2       37.5990  -13.1540   38.6860 C.ar  148  PHE148     -0.0042
    110  CE1       36.7540  -12.4550   36.1480 C.ar  148  PHE148     -0.0003
    111  CE2       37.8390  -14.0010   37.6220 C.ar  148  PHE148     -0.0003
    112  CZ        37.4150  -13.6540   36.3520 C.ar  148  PHE148     -0.0000
    113  N         34.3980  -12.1780   41.7460 N.am  149  MET149     -0.1979
    114  CA        33.7440  -13.3730   42.2770 C.3   149  MET149      0.1605
    115  C         32.2310  -13.1980   42.3900 C.2   149  MET149      0.2287
    116  O         31.4680  -14.0950   42.0100 O.2   149  MET149     -0.2864
    117  CB        34.3290  -13.7310   43.6510 C.3   149  MET149      0.0413
    118  CG        35.8460  -13.8780   43.6900 C.3   149  MET149      0.0598
    119  SD        36.4610  -15.1990   42.6190 S.3   149  MET149     -0.1393
    120  CE        38.2300  -14.9080   42.7210 C.3   149  MET149      0.0692
    121  N         29.2940  -14.0940   39.8070 N.3   152  LYS152     -0.1231
    122  CA        28.9770  -15.5060   39.6330 C.3   152  LYS152      0.1693
    123  C         27.8750  -15.9420   40.5950 C.2   152  LYS152      0.2592
    124  O         26.9870  -16.7160   40.2190 O.2   152  LYS152     -0.2718
    125  CB        30.2360  -16.3550   39.8150 C.3   152  LYS152      0.0285
    126  CG        31.1910  -16.3460   38.6180 C.3   152  LYS152      0.0035
    127  CD        31.8860  -15.0070   38.4030 C.3   152  LYS152      0.0206
    128  CE        33.1040  -15.1560   37.4910 C.3   152  LYS152      0.1093
    129  NZ        33.6290  -13.8360   37.0180 N.3   152  LYS152     -0.1314
    130  N         27.9020  -15.4370   41.8350 N.am  153  PHE153     -0.1976
    131  CA        26.8180  -15.7170   42.7800 C.3   153  PHE153      0.1639
    132  C         25.5110  -15.0560   42.3470 C.2   153  PHE153      0.2290
    133  O         24.4340  -15.6520   42.4770 O.2   153  PHE153     -0.2864
    134  CB        27.1910  -15.2390   44.1890 C.3   153  PHE153      0.0560
    135  CG        28.2120  -16.0950   44.8800 C.ar  153  PHE153     -0.0200
    136  CD1       27.8220  -17.2270   45.5940 C.ar  153  PHE153     -0.0042
    137  CD2       29.5600  -15.7590   44.8420 C.ar  153  PHE153     -0.0042
    138  CE1       28.7610  -18.0120   46.2380 C.ar  153  PHE153     -0.0003
    139  CE2       30.5050  -16.5430   45.4880 C.ar  153  PHE153     -0.0003
    140  CZ        30.1050  -17.6670   46.1880 C.ar  153  PHE153     -0.0000
    141  N         32.5050  -11.2190   32.0320 N.3   234  HIS234     -0.1241
    142  CA        33.5440  -12.0310   32.6570 C.3   234  HIS234      0.1621
    143  C         34.8750  -11.8780   31.9300 C.2   234  HIS234      0.2264
    144  O         35.9080  -11.6040   32.5500 O.2   234  HIS234     -0.2867
    145  CB        33.1070  -13.4960   32.6840 C.3   234  HIS234      0.0745
    146  CG        34.2110  -14.4540   33.0200 C.ar  234  HIS234      0.0817
    147  ND1       34.6070  -14.7120   34.3150 N.ar  234  HIS234     -0.2268
    148  CD2       35.0030  -15.2150   32.2270 C.ar  234  HIS234      0.1154
    149  CE1       35.5920  -15.5920   34.3070 C.ar  234  HIS234      0.1986
    150  NE2       35.8510  -15.9150   33.0530 N.ar  234  HIS234     -0.2212
    151  N         38.2680  -10.4860   33.3570 N.3   238  LEU238     -0.1245
    152  CA        39.3700  -11.4430   33.3820 C.3   238  LEU238      0.1561
    153  C         40.5910  -10.9030   32.6490 C.2   238  LEU238      0.2260
    154  O         41.7240  -11.0530   33.1230 O.2   238  LEU238     -0.2867
    155  CB        38.9230  -12.7680   32.7660 C.3   238  LEU238      0.0270
    156  CG        40.0290  -13.7680   32.4290 C.3   238  LEU238      0.0019
    157  CD1       40.3750  -14.6180   33.6430 C.3   238  LEU238      0.0001
    158  CD2       39.6480  -14.6410   31.2310 C.3   238  LEU238      0.0001
    159  N         44.3950  -10.3870   34.2930 N.3   242  LYS242     -0.1245
    160  CA        45.6310  -10.9460   33.7500 C.3   242  LYS242      0.1561
    161  C         46.6210   -9.8460   33.3910 C.2   242  LYS242      0.2260
    162  O         47.8190   -9.9580   33.6820 O.2   242  LYS242     -0.2867
    163  CB        45.3350  -11.8060   32.5220 C.3   242  LYS242      0.0271
    164  CG        44.6640  -13.1400   32.8070 C.3   242  LYS242      0.0035
    165  CD        44.5280  -13.9390   31.5170 C.3   242  LYS242      0.0206
    166  CE        43.9330  -15.3120   31.7510 C.3   242  LYS242      0.1093
    167  NZ        43.9200  -16.1140   30.4910 N.3   242  LYS242     -0.1314
    168  N         46.1250  -19.8000   28.4080 N.3   255  LYS255     -0.1231
    169  CA        45.8590  -18.8010   27.3820 C.3   255  LYS255      0.1693
    170  C         44.3590  -18.5340   27.2440 C.2   255  LYS255      0.2592
    171  O         43.5190  -19.3790   27.5670 O.2   255  LYS255     -0.2718
    172  CB        46.4290  -19.2560   26.0370 C.3   255  LYS255      0.0285
    173  CG        45.8460  -20.5590   25.4930 C.3   255  LYS255      0.0035
    174  CD        46.2030  -20.7340   24.0140 C.3   255  LYS255      0.0206
    175  CE        44.9990  -20.4940   23.1050 C.3   255  LYS255      0.1093
    176  NZ        45.4300  -20.4780   21.6780 N.3   255  LYS255     -0.1314
    177  N         44.0290  -17.3340   26.7700 N.am  256  ASP256     -0.1960
    178  CA        42.6460  -17.0270   26.4270 C.3   256  ASP256      0.1840
    179  C         42.1880  -17.9160   25.2780 C.2   256  ASP256      0.2621
    180  O         42.9410  -18.1750   24.3350 O.2   256  ASP256     -0.2715
    181  CB        42.5030  -15.5550   26.0320 C.3   256  ASP256      0.1450
    182  CG        42.8860  -14.6100   27.1500 C.2   256  ASP256      0.3671
    183  OD1       42.4110  -14.8100   28.2900 O.co2 256  ASP256     -0.2456
    184  OD2       43.6660  -13.6670   26.8880 O.co2 256  ASP256     -0.2456
    185  N         40.9410  -18.3820   25.3560 N.am  257  LEU257     -0.1977
    186  CA        40.4290  -19.2800   24.3270 C.3   257  LEU257      0.1596
    187  C         40.1880  -18.5720   22.9990 C.2   257  LEU257      0.2287
    188  O         40.2060  -19.2290   21.9530 O.2   257  LEU257     -0.2864
    189  CB        39.1460  -19.9480   24.8160 C.3   257  LEU257      0.0297
    190  CG        39.3640  -20.7430   26.1030 C.3   257  LEU257      0.0022
    191  CD1       38.0440  -21.1300   26.7240 C.3   257  LEU257      0.0001
    192  CD2       40.2170  -21.9760   25.8350 C.3   257  LEU257      0.0001
@<TRIPOS>BOND
     1   176   175    1
     2   188   187    2
     3   187   186    1
     4   175   174    1
     5   174   173    1
     6   186   189    1
     7   186   185    1
     8   180   179    2
     9   189   190    1
    10   179   185   am
    11   179   178    1
    12   173   172    1
    13   192   190    1
    14   181   178    1
    15   181   182    1
    16   172   169    1
    17   190   191    1
    18   178   177    1
    19   177   170   am
    20   184   182   ar
    21   182   183   ar
    22   170   169    1
    23   170   171    2
    24   169   168    1
    25    39    41   ar
    26    39    38   ar
    27    33    34    1
    28    41    42   ar
    29    37    38    1
    30    37    34    1
    31    38    40   ar
    32    34    35    1
    33    42    40   ar
    34    35    36    2
    35   167   166    1
    36   158   156    1
    37   165   166    1
    38   165   164    1
    39    43    44    1
    40   143   144    2
    41   143   142    1
    42    50    48    1
    43   141   142    1
    44   148   146   ar
    45   148   150   ar
    46    48    47    1
    47    30    29    2
    48   156   155    1
    49   156   157    1
    50   163   164    1
    51   163   160    1
    52   153   154    2
    53   153   152    1
    54   142   145    1
    55   145   146    1
    56   155   152    1
    57    47    44    1
    58    47    49    1
    59   146   147   ar
    60   150   149   ar
    61    44    45    1
    62    29    28    1
    63   151   152    1
    64    57    59   ar
    65    57    56   ar
    66   161   162    2
    67   161   160    1
    68    32    31    1
    69    51    45   am
    70    51    52    1
    71    55    56    1
    72    55    52    1
    73    59    61   ar
    74   160   159    1
    75    31    28    1
    76    56    58   ar
    77    45    46    2
    78   149   147   ar
    79    28    27    1
    80    52    53    1
    81    26    24   am
    82    61    62    1
    83    61    60   ar
    84    53    54    2
    85    58    60   ar
    86    21    20    2
    87    24    23    1
    88    24    25    2
    89    23    22    1
    90    22    19    1
    91   110   112   ar
    92   110   108   ar
    93    20    19    1
    94    19    18    1
    95   112   111   ar
    96    11    10   ar
    97    11     9   ar
    98    10     8   ar
    99   129   128    1
   100     9     7   ar
   101   108   107   ar
   102    15    14    2
   103    63    64    1
   104   128   127    1
   105   111   109   ar
   106    18    14   am
   107    70    68    1
   108    14    13    1
   109    67    64    1
   110    67    68    1
   111     8     6   ar
   112   127   126    1
   113   107   109   ar
   114   107   106    1
   115     7     6   ar
   116    64    65    1
   117   126   125    1
   118    68    69    1
   119     6     5    1
   120     4     3    2
   121    13    16    1
   122    13    12    1
   123    16    17    1
   124    65    66    2
   125   105   104    2
   126   122   121    1
   127   122   125    1
   128   122   123    1
   129   106   103    1
   130   103   104    1
   131   103   102    1
   132   124   123    2
   133     3     2    1
   134   104   113   am
   135   123   130   am
   136     5     2    1
   137     2     1    1
   138   113   114    1
   139   130   131    1
   140   116   115    2
   141   114   115    1
   142   114   117    1
   143   132   133    2
   144   132   131    1
   145    78    77    1
   146    77    76    1
   147   119   120    1
   148   119   118    1
   149   131   134    1
   150    75    76    1
   151    75    72    1
   152   117   118    1
   153    71    72    1
   154   134   135    1
   155    85    83    1
   156    72    73    1
   157    74    73    2
   158   137   135   ar
   159   137   139   ar
   160   135   136   ar
   161   139   140   ar
   162    83    84    1
   163    83    80    1
   164   136   138   ar
   165    87    88    1
   166    87    90    1
   167    87    86    1
   168    92    90    1
   169    88    89    2
   170    90    91    1
   171   140   138   ar
   172   100    99    1
   173    80    81    1
   174    80    79    1
   175    81    82    2
   176   101    99    1
   177    98    99    1
   178    98    95    1
   179    97    96    2
   180    91    93    1
   181    96    95    1
   182    95    94    1
