@<TRIPOS>MOLECULE
tmp/4xuhB00.pdb
 162 150 0 0 0
SMALL
GASTEIGER

@<TRIPOS>ATOM
      1  N         31.0610  -34.4100   39.7430 N.3    22  LEU22      -0.1245
      2  CA        30.2970  -33.7640   40.8090 C.3    22  LEU22       0.1561
      3  C         29.0290  -33.1680   40.2080 C.2    22  LEU22       0.2260
      4  O         29.0220  -32.0380   39.7220 O.2    22  LEU22      -0.2867
      5  CB        31.1430  -32.7120   41.5130 C.3    22  LEU22       0.0270
      6  CG        30.4580  -31.9600   42.6570 C.3    22  LEU22       0.0019
      7  CD1       29.6900  -32.9150   43.5550 C.3    22  LEU22       0.0001
      8  CD2       31.4970  -31.2030   43.4500 C.3    22  LEU22       0.0001
      9  N         45.5610  -29.0680   47.2360 N.3    54  PHE54      -0.1241
     10  CA        45.3300  -28.2280   46.0680 C.3    54  PHE54       0.1605
     11  C         46.4250  -28.4580   45.0350 C.2    54  PHE54       0.2264
     12  O         47.6160  -28.3190   45.3300 O.2    54  PHE54      -0.2867
     13  CB        45.2760  -26.7570   46.4630 C.3    54  PHE54       0.0534
     14  CG        44.0480  -26.3870   47.2430 C.ar   54  PHE54      -0.0203
     15  CD1       42.7990  -26.4140   46.6460 C.ar   54  PHE54      -0.0042
     16  CD2       44.1420  -26.0000   48.5680 C.ar   54  PHE54      -0.0042
     17  CE1       41.6600  -26.0680   47.3680 C.ar   54  PHE54      -0.0003
     18  CE2       43.0080  -25.6550   49.2900 C.ar   54  PHE54      -0.0003
     19  CZ        41.7660  -25.6890   48.6870 C.ar   54  PHE54      -0.0000
     20  N         47.2130  -26.7290   42.4650 N.3    56  HIS56      -0.1241
     21  CA        47.7040  -25.5320   41.7950 C.3    56  HIS56       0.1621
     22  C         48.7380  -24.7480   42.5940 C.2    56  HIS56       0.2264
     23  O         49.2990  -23.7840   42.0590 O.2    56  HIS56      -0.2867
     24  CB        46.5360  -24.5990   41.4520 C.3    56  HIS56       0.0745
     25  CG        45.8700  -24.0170   42.6560 C.ar   56  HIS56       0.0817
     26  ND1       44.9730  -24.7300   43.4240 N.ar   56  HIS56      -0.2268
     27  CD2       45.9890  -22.8030   43.2430 C.ar   56  HIS56       0.1154
     28  CE1       44.5590  -23.9750   44.4270 C.ar   56  HIS56       0.1986
     29  NE2       45.1620  -22.8030   44.3430 N.ar   56  HIS56      -0.2212
     30  N         43.6830  -17.7720   44.9210 N.3    66  ILE66      -0.1245
     31  CA        42.3240  -18.1990   44.6040 C.3    66  ILE66       0.1561
     32  C         42.0500  -18.0600   43.1110 C.2    66  ILE66       0.2260
     33  O         41.4410  -18.9420   42.4920 O.2    66  ILE66      -0.2867
     34  CB        41.3080  -17.4080   45.4430 C.3    66  ILE66       0.0252
     35  CG1       41.4630  -17.7450   46.9270 C.3    66  ILE66       0.0019
     36  CG2       39.9020  -17.7130   44.9840 C.3    66  ILE66       0.0019
     37  CD1       40.5800  -16.9100   47.8490 C.3    66  ILE66       0.0001
     38  N         43.6140  -20.9050   41.4040 N.3    69  GLY69      -0.1210
     39  CA        42.8410  -22.1190   41.6070 C.3    69  GLY69       0.1956
     40  C         41.6720  -22.2250   40.6440 C.2    69  GLY69       0.2612
     41  O         41.3680  -23.3050   40.1320 O.2    69  GLY69      -0.2717
     42  N         41.0000  -21.1030   40.3850 N.am   70  CYS70      -0.1970
     43  CA        39.8980  -21.1110   39.4340 C.3    70  CYS70       0.1712
     44  C         40.3920  -21.4360   38.0290 C.2    70  CYS70       0.2296
     45  O         39.7430  -22.1880   37.2940 O.2    70  CYS70      -0.2864
     46  CB        39.1810  -19.7610   39.4570 C.3    70  CYS70       0.0983
     47  SG        38.4530  -19.3370   41.0590 S.3    70  CYS70      -0.0798
     48  N         40.9670  -25.1810   37.7040 N.3    73  ARG73      -0.1231
     49  CA        39.7190  -25.9140   37.5600 C.3    73  ARG73       0.1694
     50  C         39.0670  -25.6610   36.2020 C.2    73  ARG73       0.2592
     51  O         38.4440  -26.5680   35.6430 O.2    73  ARG73      -0.2718
     52  CB        38.7710  -25.5500   38.7000 C.3    73  ARG73       0.0321
     53  CG        37.3920  -26.1610   38.5860 C.3    73  ARG73       0.0489
     54  CD        37.3830  -27.6870   38.7650 C.3    73  ARG73       0.2205
     55  NE        36.0590  -28.2080   38.4290 N.pl3  73  ARG73      -0.0865
     56  CZ        35.8170  -29.1600   37.5330 C.cat  73  ARG73       0.5346
     57  NH1       36.8160  -29.7530   36.8970 N.pl3  73  ARG73       0.1354
     58  NH2       34.5690  -29.5390   37.2870 N.pl3  73  ARG73       0.1354
     59  N         39.2000  -24.4490   35.6560 N.am   74  SER74      -0.1952
     60  CA        38.6320  -24.1740   34.3360 C.3    74  SER74       0.1924
     61  C         39.2600  -25.0580   33.2670 C.2    74  SER74       0.2314
     62  O         38.5530  -25.5910   32.4080 O.2    74  SER74      -0.2863
     63  CB        38.7870  -22.6930   33.9820 C.3    74  SER74       0.2116
     64  OG        40.0860  -22.4050   33.5150 O.3    74  SER74      -0.2180
     65  N         37.6800  -28.3150   33.6510 N.3    77  ALA77      -0.1245
     66  CA        36.2890  -28.3090   33.2170 C.3    77  ALA77       0.1562
     67  C         36.1700  -28.3650   31.6990 C.2    77  ALA77       0.2260
     68  O         35.2610  -29.0180   31.1760 O.2    77  ALA77      -0.2867
     69  CB        35.5740  -27.0700   33.7720 C.3    77  ALA77       0.0290
     70  N         30.5150  -23.5330   31.7900 N.3   111  ILE111     -0.1245
     71  CA        31.1580  -23.4280   33.0950 C.3   111  ILE111      0.1561
     72  C         30.3050  -22.5920   34.0430 C.2   111  ILE111      0.2260
     73  O         30.1390  -22.9410   35.2200 O.2   111  ILE111     -0.2867
     74  CB        32.5820  -22.8580   32.9490 C.3   111  ILE111      0.0252
     75  CG1       33.4980  -23.8960   32.2760 C.3   111  ILE111      0.0019
     76  CG2       33.1190  -22.4250   34.3170 C.3   111  ILE111      0.0019
     77  CD1       34.8880  -23.3910   31.9660 C.3   111  ILE111      0.0001
     78  N         27.5070  -24.9600   35.0980 N.3   114  MET114     -0.1230
     79  CA        27.9830  -25.9390   36.0780 C.3   114  MET114      0.1702
     80  C         28.2360  -25.2800   37.4290 C.2   114  MET114      0.2592
     81  O         27.9580  -25.8570   38.4860 O.2   114  MET114     -0.2718
     82  CB        29.2860  -26.5960   35.5960 C.3   114  MET114      0.0401
     83  CG        29.2740  -27.2740   34.2260 C.3   114  MET114      0.0596
     84  SD        30.9660  -27.5960   33.6070 S.3   114  MET114     -0.1393
     85  CE        31.5470  -28.9090   34.6880 C.3   114  MET114      0.0692
     86  N         28.8110  -24.0790   37.3930 N.am  115  LEU115     -0.1980
     87  CA        29.1220  -23.3040   38.5850 C.3   115  LEU115      0.1596
     88  C         27.8900  -23.1280   39.4650 C.2   115  LEU115      0.2287
     89  O         27.9580  -23.2710   40.6880 O.2   115  LEU115     -0.2864
     90  CB        29.6770  -21.9570   38.1290 C.3   115  LEU115      0.0297
     91  CG        30.3680  -20.9070   38.9670 C.3   115  LEU115      0.0022
     92  CD1       31.4540  -21.5730   39.7440 C.3   115  LEU115      0.0001
     93  CD2       30.9730  -19.8890   38.0260 C.3   115  LEU115      0.0001
     94  N         26.8970  -26.0110   41.8580 N.3   118  LEU118     -0.1231
     95  CA        27.7300  -26.2870   43.0170 C.3   118  LEU118      0.1693
     96  C         27.7190  -25.1380   44.0210 C.2   118  LEU118      0.2591
     97  O         28.5800  -25.0820   44.9070 O.2   118  LEU118     -0.2718
     98  CB        29.1580  -26.5940   42.5610 C.3   118  LEU118      0.0284
     99  CG        29.5060  -28.0350   42.1610 C.3   118  LEU118      0.0019
    100  CD1       28.4930  -28.6620   41.2050 C.3   118  LEU118      0.0001
    101  CD2       30.8840  -28.0540   41.5320 C.3   118  LEU118      0.0001
    102  N         26.7410  -24.2410   43.9160 N.am  119  MET119     -0.1979
    103  CA        26.7840  -22.9380   44.5620 C.3   119  MET119      0.1605
    104  C         25.4260  -22.6250   45.1860 C.2   119  MET119      0.2287
    105  O         24.3820  -23.0560   44.6870 O.2   119  MET119     -0.2864
    106  CB        27.1940  -21.8820   43.5130 C.3   119  MET119      0.0413
    107  CG        27.2570  -20.4310   43.9370 C.3   119  MET119      0.0598
    108  SD        27.9360  -19.3980   42.5960 S.3   119  MET119     -0.1393
    109  CE        29.5450  -20.1090   42.3840 C.3   119  MET119      0.0692
    110  N         30.2150  -21.7120   47.8160 N.3   124  VAL124     -0.1231
    111  CA        30.4710  -22.5130   46.6250 C.3   124  VAL124      0.1692
    112  C         31.3710  -23.6860   46.9880 C.2   124  VAL124      0.2592
    113  O         32.3460  -23.5300   47.7300 O.2   124  VAL124     -0.2718
    114  CB        31.1040  -21.6540   45.5080 C.3   124  VAL124      0.0266
    115  CG1       32.3170  -20.9100   46.0320 C.3   124  VAL124      0.0020
    116  CG2       31.4880  -22.5090   44.3260 C.3   124  VAL124      0.0020
    117  N         31.0370  -24.8640   46.4610 N.am  125  LEU125     -0.1966
    118  CA        31.8550  -26.0510   46.6460 C.3   125  LEU125      0.1728
    119  C         33.1150  -25.9770   45.7950 C.2   125  LEU125      0.2616
    120  O         33.0760  -25.5420   44.6370 O.2   125  LEU125     -0.2715
    121  CB        31.0570  -27.3000   46.2740 C.3   125  LEU125      0.0311
    122  CG        29.8260  -27.6030   47.1250 C.3   125  LEU125      0.0022
    123  CD1       29.0920  -28.8280   46.5730 C.3   125  LEU125      0.0001
    124  CD2       30.2340  -27.8130   48.5930 C.3   125  LEU125      0.0001
    125  N         34.2380  -26.4180   46.3640 N.am  126  ILE126     -0.1963
    126  CA        35.5070  -26.4360   45.6490 C.3   126  ILE126      0.1727
    127  C         36.1650  -27.7950   45.8270 C.2   126  ILE126      0.2616
    128  O         35.8100  -28.5750   46.7180 O.2   126  ILE126     -0.2715
    129  CB        36.4730  -25.3250   46.1150 C.3   126  ILE126      0.0290
    130  CG1       36.7850  -25.4850   47.6030 C.3   126  ILE126      0.0022
    131  CG2       35.9000  -23.9440   45.8030 C.3   126  ILE126      0.0023
    132  CD1       38.0520  -24.8130   48.0270 C.3   126  ILE126      0.0001
    133  N         37.1350  -28.0660   44.9520 N.am  127  SER127     -0.1950
    134  CA        38.0180  -29.2300   45.0450 C.3   127  SER127      0.1924
    135  C         37.2270  -30.5250   45.1870 C.2   127  SER127      0.2314
    136  O         37.3090  -31.2280   46.1990 O.2   127  SER127     -0.2863
    137  CB        39.0120  -29.0800   46.2000 C.3   127  SER127      0.2116
    138  OG        40.1900  -28.4260   45.7600 O.3   127  SER127     -0.2180
    139  N         33.6980  -22.5590   50.1080 N.3   133  MET133     -0.1245
    140  CA        34.2100  -21.2080   50.2870 C.3   133  MET133      0.1570
    141  C         33.0270  -20.2560   50.3930 C.2   133  MET133      0.2261
    142  O         32.1290  -20.2840   49.5460 O.2   133  MET133     -0.2867
    143  CB        35.1300  -20.8180   49.1240 C.3   133  MET133      0.0387
    144  CG        36.4090  -20.1110   49.5420 C.3   133  MET133      0.0595
    145  SD        37.5640  -19.8040   48.1840 S.3   133  MET133     -0.1393
    146  CE        38.4190  -21.3590   48.0290 C.3   133  MET133      0.0692
    147  N         34.8020  -14.5120   49.5300 N.3   138  LEU138     -0.1245
    148  CA        35.1720  -14.2200   48.1430 C.3   138  LEU138      0.1561
    149  C         34.8640  -12.7710   47.7940 C.2   138  LEU138      0.2260
    150  O         35.6860  -12.0740   47.1940 O.2   138  LEU138     -0.2867
    151  CB        34.4440  -15.1690   47.1860 C.3   138  LEU138      0.0270
    152  CG        34.8850  -16.6340   47.2870 C.3   138  LEU138      0.0019
    153  CD1       34.1130  -17.5340   46.3370 C.3   138  LEU138      0.0001
    154  CD2       36.3720  -16.7420   47.0180 C.3   138  LEU138      0.0001
    155  N         34.3980  -12.1780   41.7460 N.3   149  MET149     -0.1245
    156  CA        33.7440  -13.3730   42.2770 C.3   149  MET149      0.1570
    157  C         32.2310  -13.1980   42.3900 C.2   149  MET149      0.2261
    158  O         31.4680  -14.0950   42.0100 O.2   149  MET149     -0.2867
    159  CB        34.3290  -13.7310   43.6510 C.3   149  MET149      0.0387
    160  CG        35.8460  -13.8780   43.6900 C.3   149  MET149      0.0595
    161  SD        36.4610  -15.1990   42.6190 S.3   149  MET149     -0.1393
    162  CE        38.2300  -14.9080   42.7210 C.3   149  MET149      0.0692
@<TRIPOS>BOND
     1    68    67    2
     2    67    66    1
     3    70    71    1
     4    77    75    1
     5    75    74    1
     6    62    61    2
     7    74    71    1
     8    74    76    1
     9    71    72    1
    10    66    65    1
    11    66    69    1
    12    61    60    1
    13    64    63    1
    14    84    83    1
    15    84    85    1
    16    63    60    1
    17    72    73    2
    18    83    82    1
    19    60    59    1
    20    78    79    1
    21    82    79    1
    22    51    50    2
    23    59    50   am
    24    79    80    1
    25    50    49    1
    26    57    56    1
    27    58    56    1
    28    45    44    2
    29    86    80   am
    30    86    87    1
    31    80    81    2
    32    56    55    2
    33    49    48    1
    34    49    52    1
    35    93    91    1
    36    44    43    1
    37    90    87    1
    38    90    91    1
    39    55    54    1
    40    87    88    1
    41    53    52    1
    42    53    54    1
    43    91    92    1
    44    43    46    1
    45    43    42    1
    46    46    47    1
    47    88    89    2
    48     4     3    2
    49     1     2    1
    50    41    40    2
    51     3     2    1
    52    42    40   am
    53    40    39    1
    54     2     5    1
    55   100    99    1
    56    38    39    1
    57    24    21    1
    58    24    25    1
    59     5     6    1
    60   101    99    1
    61   155   156    1
    62    21    20    1
    63    21    22    1
    64    94    95    1
    65   158   157    2
    66    23    22    2
    67    99    98    1
    68   156   157    1
    69   156   159    1
    70   109   108    1
    71    33    32    2
    72    98    95    1
    73   108   107    1
    74   161   162    1
    75   161   160    1
    76    25    27   ar
    77    25    26   ar
    78     6     8    1
    79     6     7    1
    80    95    96    1
    81    32    31    1
    82    27    29   ar
    83    26    28   ar
    84   106   107    1
    85   106   103    1
    86   159   160    1
    87   102    96   am
    88   102   103    1
    89    96    97    2
    90   116   114    1
    91    29    28   ar
    92   103   104    1
    93    31    30    1
    94    31    34    1
    95   120   119    2
    96   105   104    2
    97   133   134    1
    98   133   127   am
    99    36    34    1
   100    11    12    2
   101    11    10    1
   102   134   135    1
   103   134   137    1
   104   135   136    2
   105    34    35    1
   106   114   115    1
   107   114   111    1
   108   126   127    1
   109   126   129    1
   110   126   125    1
   111   138   137    1
   112   119   125   am
   113   119   118    1
   114   131   129    1
   115   127   128    2
   116    10    13    1
   117    10     9    1
   118   129   130    1
   119   121   118    1
   120   121   122    1
   121   153   152    1
   122   117   118    1
   123   117   112   am
   124    13    14    1
   125   123   122    1
   126   111   112    1
   127   111   110    1
   128    15    14   ar
   129    15    17   ar
   130    35    37    1
   131   112   113    2
   132   154   152    1
   133   122   124    1
   134   151   152    1
   135   151   148    1
   136   150   149    2
   137    14    16   ar
   138    17    19   ar
   139   130   132    1
   140   149   148    1
   141   146   145    1
   142   148   147    1
   143   145   144    1
   144    16    18   ar
   145    19    18   ar
   146   143   144    1
   147   143   140    1
   148   142   141    2
   149   139   140    1
   150   140   141    1
