@<TRIPOS>MOLECULE
tmp/4xuiA00.pdb
 174 170 0 0 0
SMALL
GASTEIGER

@<TRIPOS>ATOM
      1  N          4.1820   13.3350   -6.3830 N.3    19  GLN19      -0.1231
      2  CA         5.1450   14.2320   -6.9610 C.3    19  GLN19       0.1698
      3  C          4.5140   15.2830   -7.8500 C.2    19  GLN19       0.2593
      4  O          5.1600   16.2510   -8.2260 O.2    19  GLN19      -0.2718
      5  CB         6.1720   13.4520   -7.7480 C.3    19  GLN19       0.0381
      6  CG         5.6420   12.8180   -8.9580 C.3    19  GLN19       0.0905
      7  CD         6.7520   12.2190   -9.7320 C.2    19  GLN19       0.2608
      8  OE1        7.1450   11.0840   -9.4840 O.2    19  GLN19      -0.2717
      9  NE2        7.3030   12.9890  -10.6590 N.am   19  GLN19      -0.0878
     10  N          3.2480   15.0940   -8.1760 N.am   20  GLY20      -0.1942
     11  CA         2.5470   16.0710   -8.9740 C.3    20  GLY20       0.2014
     12  C          3.0230   15.9710  -10.4020 C.2    20  GLY20       0.2639
     13  O          3.8120   15.1030  -10.7530 O.2    20  GLY20      -0.2714
     14  N          2.5470   16.8710  -11.2420 N.am   21  GLN21      -0.1963
     15  CA         2.9090   16.8410  -12.6410 C.3    21  GLN21       0.1733
     16  C          4.2930   17.4500  -12.7990 C.2    21  GLN21       0.2616
     17  O          4.4880   18.4290  -13.5230 O.2    21  GLN21      -0.2715
     18  CB         1.8620   17.5710  -13.4380 C.3    21  GLN21       0.0408
     19  CG         0.4730   17.1490  -13.0060 C.3    21  GLN21       0.0908
     20  CD        -0.6210   17.9480  -13.6730 C.2    21  GLN21       0.2608
     21  OE1       -0.4770   19.1590  -13.9050 O.2    21  GLN21      -0.2717
     22  NE2       -1.7270   17.2750  -13.9960 N.am   21  GLN21      -0.0878
     23  N          5.2480   16.8250  -12.1170 N.am   22  CYS22      -0.1954
     24  CA         6.5860   17.3530  -11.9220 C.3    22  CYS22       0.1843
     25  C          7.5790   16.2040  -11.8060 C.2    22  CYS22       0.2626
     26  O          7.4700   15.3560  -10.9170 O.2    22  CYS22      -0.2714
     27  CB         6.6200   18.2410  -10.6670 C.3    22  CYS22       0.0997
     28  SG         8.2380   18.9380  -10.1920 S.3    22  CYS22      -0.0797
     29  N          8.5380   16.1780  -12.7170 N.am   23  GLY23      -0.1954
     30  CA         9.5850   15.1790  -12.7080 C.3    23  GLY23       0.1869
     31  C         10.5800   15.4280  -11.5970 C.2    23  GLY23       0.2309
     32  O         11.7430   15.7660  -11.8180 O.2    23  GLY23      -0.2863
     33  N         10.8560   12.9730   -9.2230 N.3    25  CYS25      -0.1221
     34  CA        10.8910   11.6360   -8.6560 C.3    25  CYS25       0.1808
     35  C         12.2670   11.2970   -8.1190 C.2    25  CYS25       0.2601
     36  O         12.4010   10.4640   -7.2380 O.2    25  CYS25      -0.2717
     37  CB        10.4960   10.6030   -9.6890 C.3    25  CYS25       0.0970
     38  SG        11.5220   10.6680  -11.1310 S.3    25  CYS25      -0.0800
     39  N         13.2940   11.9400   -8.6490 N.am   26  TRP26      -0.1976
     40  CA        14.6500   11.7010   -8.1870 C.3    26  TRP26       0.1640
     41  C         14.7960   12.2170   -6.7660 C.2    26  TRP26       0.2290
     42  O         15.5240   11.6620   -5.9390 O.2    26  TRP26      -0.2864
     43  CB        15.6180   12.3850   -9.1340 C.3    26  TRP26       0.0576
     44  CG        15.3170   13.8360   -9.2490 C.ar   26  TRP26       0.0006
     45  CD1       14.3620   14.4340  -10.0380 C.ar   26  TRP26       0.0946
     46  CD2       15.9510   14.8820   -8.5260 C.ar   26  TRP26       0.0152
     47  NE1       14.3850   15.7920   -9.8580 N.ar   26  TRP26      -0.2442
     48  CE2       15.3520   16.0930   -8.9310 C.ar   26  TRP26       0.0810
     49  CE3       16.9770   14.9160   -7.5790 C.ar   26  TRP26       0.0012
     50  CZ2       15.7500   17.3220   -8.4200 C.ar   26  TRP26       0.0191
     51  CZ3       17.3710   16.1270   -7.0820 C.ar   26  TRP26       0.0001
     52  CH2       16.7560   17.3190   -7.4970 C.ar   26  TRP26       0.0015
     53  N         18.1390   19.0770  -11.9400 N.3    61  SER61      -0.1217
     54  CA        17.2980   19.9250  -12.7730 C.3    61  SER61       0.1889
     55  C         15.8450   20.0350  -12.3560 C.2    61  SER61       0.2288
     56  O         14.9700   20.1580  -13.2050 O.2    61  SER61      -0.2866
     57  CB        17.3610   19.4160  -14.2040 C.3    61  SER61       0.2089
     58  OG        18.6380   18.8570  -14.4520 O.3    61  SER61      -0.2183
     59  N         12.1260   20.1780  -11.6590 N.3    63  CYS63      -0.1221
     60  CA        10.9790   19.4810  -12.2040 C.3    63  CYS63       0.1808
     61  C         11.3030   18.8030  -13.5090 C.2    63  CYS63       0.2602
     62  O         10.5290   17.9720  -13.9800 O.2    63  CYS63      -0.2717
     63  CB         9.8100   20.4370  -12.3770 C.3    63  CYS63       0.0970
     64  SG         8.9620   20.7290  -10.8280 S.3    63  CYS63      -0.0800
     65  N         12.4500   19.1390  -14.0900 N.am   64  SER64      -0.1938
     66  CA        12.8820   18.4910  -15.3340 C.3    64  SER64       0.2055
     67  C         13.5600   17.1460  -15.0840 C.2    64  SER64       0.2644
     68  O         13.7610   16.3790  -16.0110 O.2    64  SER64      -0.2714
     69  CB        13.8270   19.4010  -16.1200 C.3    64  SER64       0.2130
     70  OG        13.2470   20.6750  -16.3240 O.3    64  SER64      -0.2179
     71  N         13.9160   16.8670  -13.8360 N.am   65  GLY65      -0.1939
     72  CA        14.5310   15.5970  -13.4980 C.3    65  GLY65       0.2014
     73  C         15.9310   15.6830  -12.9120 C.2    65  GLY65       0.2639
     74  O         16.4960   16.7600  -12.7530 O.2    65  GLY65      -0.2714
     75  N         16.5000   14.5320  -12.5840 N.am   66  GLY66      -0.1939
     76  CA        17.8100   14.5140  -11.9750 C.3    66  GLY66       0.2014
     77  C         18.2410   13.1500  -11.4740 C.2    66  GLY66       0.2639
     78  O         17.5690   12.1490  -11.7080 O.2    66  GLY66      -0.2714
     79  N         19.3770   13.1180  -10.7790 N.am   67  LEU67      -0.1963
     80  CA        19.9110   11.8790  -10.2190 C.3    67  LEU67       0.1728
     81  C         19.7700   11.8780   -8.7160 C.2    67  LEU67       0.2616
     82  O         19.5610   12.9280   -8.1080 O.2    67  LEU67      -0.2715
     83  CB        21.3760   11.6890  -10.6110 C.3    67  LEU67       0.0311
     84  CG        21.5000   11.5530  -12.1240 C.3    67  LEU67       0.0022
     85  CD1       22.9370   11.6200  -12.5730 C.3    67  LEU67       0.0001
     86  CD2       20.8520   10.2700  -12.5580 C.3    67  LEU67       0.0001
     87  N         19.8610   10.6920   -8.1240 N.am   68  MET68      -0.1977
     88  CA        19.8120   10.5530   -6.6810 C.3    68  MET68       0.1605
     89  C         21.2150   10.6930   -6.1140 C.2    68  MET68       0.2287
     90  O         21.4110   11.2840   -5.0410 O.2    68  MET68      -0.2864
     91  CB        19.2050    9.2070   -6.2710 C.3    68  MET68       0.0413
     92  CG        17.7030    9.0710   -6.4860 C.3    68  MET68       0.0598
     93  SD        17.1870    8.4390   -8.1070 S.3    68  MET68      -0.1393
     94  CE        17.8940    6.8040   -8.0900 C.3    68  MET68       0.0692
     95  N         17.1130    3.7740   -9.6060 N.3   138  ALA138     -0.1245
     96  CA        16.6980    4.3080  -10.8800 C.3   138  ALA138      0.1562
     97  C         16.0950    3.1630  -11.6430 C.2   138  ALA138      0.2260
     98  O         16.4970    2.0160  -11.4480 O.2   138  ALA138     -0.2867
     99  CB        17.8630    4.8980  -11.6230 C.3   138  ALA138      0.0290
    100  N         10.5300    2.9400  -16.0510 N.3   141  ALA141     -0.1245
    101  CA         9.1050    2.8900  -15.7450 C.3   141  ALA141      0.1562
    102  C          8.2090    2.9960  -16.9850 C.2   141  ALA141      0.2260
    103  O          7.0780    3.4450  -16.8960 O.2   141  ALA141     -0.2867
    104  CB         8.7560    3.9890  -14.7870 C.3   141  ALA141      0.0290
    105  N          2.7350    2.7020  -16.4240 N.3   145  MET145     -0.1245
    106  CA         1.5470    3.5450  -16.3090 C.3   145  MET145      0.1570
    107  C          0.3050    2.7160  -16.5300 C.2   145  MET145      0.2261
    108  O         -0.8080    3.2160  -16.4540 O.2   145  MET145     -0.2867
    109  CB         1.5770    4.7000  -17.2960 C.3   145  MET145      0.0387
    110  CG         2.9280    4.9880  -17.9050 C.3   145  MET145      0.0595
    111  SD         4.1190    5.6470  -16.7220 S.3   145  MET145     -0.1393
    112  CE         5.5300    5.8720  -17.7980 C.3   145  MET145      0.0692
    113  N         15.7940    2.1050  -21.0620 N.3   159  GLN159     -0.1231
    114  CA        16.3370    3.3740  -20.6200 C.3   159  GLN159      0.1698
    115  C         15.7820    3.6940  -19.2490 C.2   159  GLN159      0.2592
    116  O         14.6020    3.4640  -18.9880 O.2   159  GLN159     -0.2718
    117  CB        16.0120    4.4860  -21.6200 C.3   159  GLN159      0.0381
    118  CG        16.4670    5.8830  -21.2040 C.3   159  GLN159      0.0905
    119  CD        17.9550    5.9480  -20.8610 C.2   159  GLN159      0.2608
    120  OE1       18.3450    5.8170  -19.6960 O.2   159  GLN159     -0.2717
    121  NE2       18.7890    6.1460  -21.8770 N.am  159  GLN159     -0.0878
    122  N         16.6480    4.2000  -18.3740 N.am  160  LEU160     -0.1966
    123  CA        16.2650    4.5850  -17.0210 C.3   160  LEU160      0.1728
    124  C         15.5760    5.9440  -17.0070 C.2   160  LEU160      0.2616
    125  O         16.1500    6.9360  -17.4620 O.2   160  LEU160     -0.2715
    126  CB        17.4970    4.6160  -16.1280 C.3   160  LEU160      0.0311
    127  CG        18.2330    3.2920  -16.0150 C.3   160  LEU160      0.0022
    128  CD1       19.5920    3.5190  -15.3910 C.3   160  LEU160      0.0001
    129  CD2       17.4050    2.3840  -15.1580 C.3   160  LEU160      0.0001
    130  N         14.3550    5.9960  -16.4810 N.am  161  ASP161     -0.1957
    131  CA        13.5300    7.2090  -16.5840 C.3   161  ASP161      0.1840
    132  C         12.9310    7.6790  -15.2560 C.2   161  ASP161      0.2622
    133  O         12.3870    8.7740  -15.1670 O.2   161  ASP161     -0.2715
    134  CB        12.3970    6.9920  -17.6130 C.3   161  ASP161      0.1450
    135  CG        11.6070    5.6940  -17.3910 C.2   161  ASP161      0.3671
    136  OD1       11.4540    5.2410  -16.2480 O.co2 161  ASP161     -0.2456
    137  OD2       11.1140    5.1200  -18.3790 O.co2 161  ASP161     -0.2456
    138  N         13.0550    6.8590  -14.2250 N.am  162  HIS162     -0.1959
    139  CA        12.3310    7.0900  -12.9870 C.3   162  HIS162      0.1787
    140  C         13.2450    6.8960  -11.7610 C.2   162  HIS162      0.2620
    141  O         14.2820    6.2300  -11.8460 O.2   162  HIS162     -0.2715
    142  CB        11.1200    6.1390  -12.9510 C.3   162  HIS162      0.0785
    143  CG        10.0640    6.5010  -11.9510 C.ar  162  HIS162      0.0821
    144  ND1       10.0460    7.6980  -11.2720 N.ar  162  HIS162     -0.2267
    145  CD2        8.9840    5.8080  -11.5220 C.ar  162  HIS162      0.1154
    146  CE1        9.0080    7.7250  -10.4530 C.ar  162  HIS162      0.1986
    147  NE2        8.3500    6.5910  -10.5870 N.ar  162  HIS162     -0.2212
    148  N         12.8510    7.4810  -10.6300 N.am  163  GLY163     -0.1954
    149  CA        13.5360    7.2910   -9.3600 C.3   163  GLY163      0.1869
    150  C         12.5930    6.8660   -8.2410 C.2   163  GLY163      0.2309
    151  O         11.7460    7.6380   -7.8070 O.2   163  GLY163     -0.2863
    152  N          3.9420    8.3040   -6.9910 N.3   184  TRP184     -0.1241
    153  CA         2.6730    8.6040   -7.6020 C.3   184  TRP184      0.1605
    154  C          1.7800    8.0870   -6.5180 C.2   184  TRP184      0.2264
    155  O          2.2230    7.2230   -5.7560 O.2   184  TRP184     -0.2867
    156  CB         2.5090    7.9210   -8.9560 C.3   184  TRP184      0.0550
    157  CG         3.7450    8.0290   -9.7910 C.ar  184  TRP184      0.0003
    158  CD1        4.7650    8.9270   -9.6360 C.ar  184  TRP184      0.0946
    159  CD2        4.1050    7.2060  -10.9100 C.ar  184  TRP184      0.0152
    160  NE1        5.7350    8.7130  -10.5790 N.ar  184  TRP184     -0.2442
    161  CE2        5.3650    7.6680  -11.3720 C.ar  184  TRP184      0.0810
    162  CE3        3.4900    6.1290  -11.5610 C.ar  184  TRP184      0.0012
    163  CZ2        6.0190    7.0900  -12.4650 C.ar  184  TRP184      0.0191
    164  CZ3        4.1480    5.5470  -12.6530 C.ar  184  TRP184      0.0001
    165  CH2        5.4020    6.0340  -13.0900 C.ar  184  TRP184      0.0015
    166  N         21.4950    1.7020  -11.4110 N.3   208  GLU208     -0.1245
    167  CA        21.8770    2.7850  -10.5310 C.3   208  GLU208      0.1567
    168  C         21.1620    2.6550   -9.1840 C.2   208  GLU208      0.2260
    169  O         20.0820    3.1970   -8.9920 O.2   208  GLU208     -0.2867
    170  CB        21.5590    4.1290  -11.1960 C.3   208  GLU208      0.0388
    171  CG        22.0900    5.3310  -10.4390 C.3   208  GLU208      0.1160
    172  CD        21.8070    6.6480  -11.1380 C.2   208  GLU208      0.3649
    173  OE1       21.7860    6.6650  -12.3870 O.co2 208  GLU208     -0.2457
    174  OE2       21.6060    7.6610  -10.4280 O.co2 208  GLU208     -0.2457
@<TRIPOS>BOND
     1   121   119   am
     2   117   118    1
     3   117   114    1
     4   118   119    1
     5   113   114    1
     6   119   120    2
     7   114   115    1
     8   115   116    2
     9   115   122   am
    10   137   135   ar
    11   122   123    1
    12   110   109    1
    13   110   111    1
    14   112   111    1
    15   134   135    1
    16   134   131    1
    17   125   124    2
    18   135   136   ar
    19   109   106    1
    20   123   124    1
    21   123   126    1
    22   124   130   am
    23   102   103    2
    24   102   101    1
    25   131   130    1
    26   131   132    1
    27   107   108    2
    28   107   106    1
    29   105   106    1
    30    70    69    1
    31   126   127    1
    32    69    66    1
    33   100   101    1
    34   127   128    1
    35   127   129    1
    36    68    67    2
    37   101   104    1
    38    66    67    1
    39    66    65    1
    40   132   133    2
    41   132   138   am
    42    67    71   am
    43    58    57    1
    44   138   139    1
    45    57    54    1
    46    65    61   am
    47    22    20   am
    48    62    61    2
    49    21    20    2
    50    71    72    1
    51    20    19    1
    52    17    16    2
    53    61    60    1
    54    72    73    1
    55    18    19    1
    56    18    15    1
    57    56    55    2
    58   165   164   ar
    59   165   163   ar
    60   139   142    1
    61   139   140    1
    62   142   143    1
    63    73    74    2
    64    73    75   am
    65    16    15    1
    66    16    23   am
    67    54    55    1
    68    54    53    1
    69    29    30    1
    70    29    25   am
    71    30    31    1
    72   164   162   ar
    73    15    14    1
    74    75    76    1
    75    85    84    1
    76    86    84    1
    77   163   161   ar
    78   173   172   ar
    79    63    60    1
    80    63    64    1
    81    60    59    1
    82    84    83    1
    83    23    24    1
    84    76    77    1
    85   143   145   ar
    86   143   144   ar
    87    24    25    1
    88    24    27    1
    89   141   140    2
    90    32    31    2
    91    25    26    2
    92   140   148   am
    93    78    77    2
    94    97    98    2
    95    97    96    1
    96    99    96    1
    97   162   159   ar
    98   145   147   ar
    99    77    79   am
   100   166   167    1
   101   161   159   ar
   102   161   160   ar
   103   144   146   ar
   104    14    12   am
   105   170   167    1
   106   170   171    1
   107   172   171    1
   108   172   174   ar
   109    38    37    1
   110   159   157   ar
   111    96    95    1
   112    64    28    1
   113    79    80    1
   114    13    12    2
   115    27    28    1
   116     9     7   am
   117   148   149    1
   118    83    80    1
   119   147   146   ar
   120   160   158   ar
   121   167   168    1
   122    12    11    1
   123    80    81    1
   124    45    47   ar
   125    45    44   ar
   126    47    48   ar
   127   157   158   ar
   128   157   156    1
   129     7     8    2
   130     7     6    1
   131    37    34    1
   132   149   150    1
   133    44    43    1
   134    44    46   ar
   135    33    34    1
   136   168   169    2
   137    43    40    1
   138    11    10    1
   139     6     5    1
   140   156   153    1
   141    48    46   ar
   142    48    50   ar
   143    81    87   am
   144    81    82    2
   145    34    35    1
   146    39    40    1
   147    39    35   am
   148    46    49   ar
   149    50    52   ar
   150   150   151    2
   151     4     3    2
   152    40    41    1
   153    10     3   am
   154    87    88    1
   155    35    36    2
   156    93    94    1
   157    93    92    1
   158     3     2    1
   159     5     2    1
   160   153   152    1
   161   153   154    1
   162    49    51   ar
   163    52    51   ar
   164     2     1    1
   165    41    42    2
   166    88    91    1
   167    88    89    1
   168   154   155    2
   169    92    91    1
   170    89    90    2
