@<TRIPOS>MOLECULE
tmp/4xulA00.pdb
 178 164 0 0 0
SMALL
GASTEIGER

@<TRIPOS>ATOM
      1  N         29.0810   52.7380   65.4430 N.3    38  GLY38      -0.1210
      2  CA        28.0850   51.7710   65.8680 C.3    38  GLY38       0.1956
      3  C         28.4570   50.3270   65.5900 C.2    38  GLY38       0.2612
      4  O         29.6340   49.9850   65.4740 O.2    38  GLY38      -0.2717
      5  N         27.4410   49.4810   65.4670 N.am   39  SER39      -0.1952
      6  CA        27.6500   48.0410   65.3840 C.3    39  SER39       0.1924
      7  C         28.2180   47.5800   64.0410 C.2    39  SER39       0.2314
      8  O         28.8430   46.5230   63.9660 O.2    39  SER39      -0.2863
      9  CB        26.3390   47.3060   65.6660 C.3    39  SER39       0.2116
     10  OG        25.3370   47.6860   64.7410 O.3    39  SER39      -0.2180
     11  N         31.8490   47.4540   64.1460 N.3    42  ARG42      -0.1245
     12  CA        32.3100   46.2680   64.8630 C.3    42  ARG42       0.1563
     13  C         31.9950   45.0040   64.0730 C.2    42  ARG42       0.2260
     14  O         32.2920   43.8940   64.5170 O.2    42  ARG42      -0.2867
     15  CB        31.6740   46.1890   66.2530 C.3    42  ARG42       0.0307
     16  CG        32.1640   47.2480   67.2290 C.3    42  ARG42       0.0489
     17  CD        31.7380   46.9150   68.6530 C.3    42  ARG42       0.2205
     18  NE        30.3210   46.5680   68.7240 N.pl3  42  ARG42      -0.0865
     19  CZ        29.3410   47.4590   68.8240 C.cat  42  ARG42       0.5346
     20  NH1       29.6230   48.7540   68.8720 N.pl3  42  ARG42       0.1354
     21  NH2       28.0780   47.0570   68.8800 N.pl3  42  ARG42       0.1354
     22  N         22.0560   45.3750   61.8640 N.3    48  THR48      -0.1203
     23  CA        20.8780   46.1400   62.2520 C.3    48  THR48       0.1994
     24  C         20.7240   47.3560   61.3490 C.2    48  THR48       0.2617
     25  O         19.7790   47.4500   60.5670 O.2    48  THR48      -0.2717
     26  CB        20.9580   46.6010   63.7140 C.3    48  THR48       0.1784
     27  OG1       22.1650   47.3490   63.9110 O.3    48  THR48      -0.2211
     28  CG2       20.9450   45.4040   64.6480 C.3    48  THR48       0.0376
     29  N         21.6630   48.2870   61.4660 N.am   49  ASP49      -0.1973
     30  CA        21.6950   49.4470   60.5900 C.3    49  ASP49       0.1709
     31  C         23.1390   49.8720   60.3700 C.2    49  ASP49       0.2293
     32  O         24.0630   49.2160   60.8470 O.2    49  ASP49      -0.2864
     33  CB        20.8630   50.5970   61.1720 C.3    49  ASP49       0.1436
     34  CG        21.4400   51.1580   62.4640 C.2    49  ASP49       0.3671
     35  OD1       22.2900   50.4960   63.1000 O.co2  49  ASP49      -0.2456
     36  OD2       21.0280   52.2730   62.8500 O.co2  49  ASP49      -0.2456
     37  N         25.6480   53.2850   60.7360 N.3    51  ASP51      -0.1239
     38  CA        25.7430   54.6300   61.2870 C.3    51  ASP51       0.1674
     39  C         27.0240   55.3060   60.8040 C.2    51  ASP51       0.2266
     40  O         28.1200   54.7650   60.9690 O.2    51  ASP51      -0.2867
     41  CB        25.6920   54.5840   62.8180 C.3    51  ASP51       0.1410
     42  CG        24.5340   53.7380   63.3390 C.2    51  ASP51       0.3668
     43  OD1       23.4000   54.2580   63.4290 O.co2  51  ASP51      -0.2456
     44  OD2       24.7590   52.5490   63.6570 O.co2  51  ASP51      -0.2456
     45  N         21.9340   55.6640   58.9550 N.3   196  ASP196     -0.1239
     46  CA        21.9030   56.9630   59.6130 C.3   196  ASP196      0.1674
     47  C         23.1760   57.7350   59.3060 C.2   196  ASP196      0.2266
     48  O         24.2780   57.3030   59.6520 O.2   196  ASP196     -0.2867
     49  CB        21.7340   56.8050   61.1300 C.3   196  ASP196      0.1410
     50  CG        20.4130   56.1580   61.5060 C.2   196  ASP196      0.3668
     51  OD1       19.4290   56.3330   60.7550 O.co2 196  ASP196     -0.2456
     52  OD2       20.3600   55.4740   62.5510 O.co2 196  ASP196     -0.2456
     53  N         20.9230   55.8110   76.5630 N.3   217  GLN217     -0.1245
     54  CA        20.6600   54.3980   76.3280 C.3   217  GLN217      0.1566
     55  C         20.6590   53.6380   77.6550 C.2   217  GLN217      0.2260
     56  O         19.8420   52.7400   77.8650 O.2   217  GLN217     -0.2867
     57  CB        21.6920   53.8190   75.3570 C.3   217  GLN217      0.0367
     58  CG        21.3480   52.4410   74.8090 C.3   217  GLN217      0.0905
     59  CD        21.7430   51.3270   75.7560 C.2   217  GLN217      0.2608
     60  OE1       22.7070   51.4550   76.5110 O.2   217  GLN217     -0.2717
     61  NE2       20.9970   50.2280   75.7270 N.am  217  GLN217     -0.0878
     62  N         17.3420   54.5570   79.3930 N.3   220  LEU220     -0.1231
     63  CA        16.2390   53.9170   78.6880 C.3   220  LEU220      0.1693
     64  C         16.1210   52.4440   79.0640 C.2   220  LEU220      0.2591
     65  O         15.0310   51.9510   79.3530 O.2   220  LEU220     -0.2718
     66  CB        16.4170   54.0560   77.1770 C.3   220  LEU220      0.0284
     67  CG        15.3490   53.3720   76.3210 C.3   220  LEU220      0.0019
     68  CD1       13.9680   53.9420   76.6130 C.3   220  LEU220      0.0001
     69  CD2       15.6860   53.4890   74.8430 C.3   220  LEU220      0.0001
     70  N         17.2530   51.7490   79.0590 N.am  221  ALA221     -0.1980
     71  CA        17.2810   50.3240   79.3560 C.3   221  ALA221      0.1597
     72  C         16.9450   50.0490   80.8210 C.2   221  ALA221      0.2287
     73  O         16.1300   49.1780   81.1270 O.2   221  ALA221     -0.2864
     74  CB        18.6440   49.7430   79.0050 C.3   221  ALA221      0.0319
     75  N         15.0230   46.5220   80.9810 N.3   226  GLU226     -0.1245
     76  CA        15.3120   45.6780   79.8310 C.3   226  GLU226      0.1567
     77  C         16.7380   45.1410   79.9340 C.2   226  GLU226      0.2260
     78  O         17.6830   45.7520   79.4310 O.2   226  GLU226     -0.2867
     79  CB        15.1030   46.4630   78.5360 C.3   226  GLU226      0.0388
     80  CG        13.6500   46.8580   78.3080 C.3   226  GLU226      0.1160
     81  CD        13.4860   47.9020   77.2250 C.2   226  GLU226      0.3649
     82  OE1       14.4030   48.7330   77.0550 O.co2 226  GLU226     -0.2457
     83  OE2       12.4380   47.8950   76.5450 O.co2 226  GLU226     -0.2457
     84  N         19.3520   45.1260   77.0130 N.3   229  TYR229     -0.1241
     85  CA        19.9280   46.4160   76.6570 C.3   229  TYR229      0.1605
     86  C         20.7290   47.0120   77.8090 C.2   229  TYR229      0.2264
     87  O         21.6090   47.8440   77.5910 O.2   229  TYR229     -0.2867
     88  CB        18.8290   47.3730   76.1970 C.3   229  TYR229      0.0534
     89  CG        18.2300   46.9340   74.8830 C.ar  229  TYR229     -0.0201
     90  CD1       18.9690   47.0090   73.7100 C.ar  229  TYR229     -0.0009
     91  CD2       16.9400   46.4270   74.8160 C.ar  229  TYR229     -0.0009
     92  CE1       18.4420   46.5950   72.5060 C.ar  229  TYR229      0.0417
     93  CE2       16.3990   46.0140   73.6110 C.ar  229  TYR229      0.0417
     94  CZ        17.1580   46.1020   72.4590 C.ar  229  TYR229      0.1957
     95  OH        16.6390   45.6940   71.2530 O.3   229  TYR229     -0.2866
     96  N         24.4710   46.7670   77.4740 N.3   232  PHE232     -0.1241
     97  CA        25.2030   47.6920   76.6050 C.3   232  PHE232      0.1605
     98  C         26.1650   48.6070   77.3760 C.2   232  PHE232      0.2264
     99  O         27.3220   48.7430   76.9790 O.2   232  PHE232     -0.2867
    100  CB        24.2260   48.5390   75.7710 C.3   232  PHE232      0.0534
    101  CG        23.6540   47.8210   74.5750 C.ar  232  PHE232     -0.0203
    102  CD1       23.1380   46.5390   74.6910 C.ar  232  PHE232     -0.0042
    103  CD2       23.6130   48.4420   73.3370 C.ar  232  PHE232     -0.0042
    104  CE1       22.6080   45.8870   73.5920 C.ar  232  PHE232     -0.0003
    105  CE2       23.0830   47.7960   72.2360 C.ar  232  PHE232     -0.0003
    106  CZ        22.5810   46.5180   72.3630 C.ar  232  PHE232     -0.0000
    107  N         29.3610   46.8750   78.3570 N.3   235  ARG235     -0.1245
    108  CA        30.2990   46.7010   77.2600 C.3   235  ARG235      0.1563
    109  C         31.2860   47.8700   77.2210 C.2   235  ARG235      0.2260
    110  O         32.4580   47.6880   76.8950 O.2   235  ARG235     -0.2867
    111  CB        29.5430   46.5690   75.9330 C.3   235  ARG235      0.0307
    112  CG        30.3730   46.0320   74.7830 C.3   235  ARG235      0.0489
    113  CD        29.4980   45.4190   73.6900 C.3   235  ARG235      0.2205
    114  NE        28.3290   46.2370   73.3730 N.pl3 235  ARG235     -0.0865
    115  CZ        27.5130   46.0070   72.3490 C.cat 235  ARG235      0.5346
    116  NH1       27.7360   44.9850   71.5350 N.pl3 235  ARG235      0.1354
    117  NH2       26.4700   46.7980   72.1380 N.pl3 235  ARG235      0.1354
    118  N         25.6780   40.1810   70.5520 N.3   253  GLU253     -0.1245
    119  CA        25.6360   40.1820   69.0930 C.3   253  GLU253      0.1567
    120  C         25.4430   38.8040   68.4690 C.2   253  GLU253      0.2260
    121  O         24.8840   38.6910   67.3770 O.2   253  GLU253     -0.2867
    122  CB        26.9120   40.8160   68.5350 C.3   253  GLU253      0.0388
    123  CG        27.2120   42.2170   69.0750 C.3   253  GLU253      0.1160
    124  CD        26.1700   43.2650   68.6810 C.2   253  GLU253      0.3649
    125  OE1       25.2730   42.9730   67.8590 O.co2 253  GLU253     -0.2457
    126  OE2       26.2600   44.4010   69.1910 O.co2 253  GLU253     -0.2457
    127  N         17.7290   41.3150   68.6970 N.3   260  LYS260     -0.1245
    128  CA        17.9620   42.7370   68.4720 C.3   260  LYS260      0.1561
    129  C         17.6190   43.1120   67.0330 C.2   260  LYS260      0.2260
    130  O         16.9460   44.1090   66.7900 O.2   260  LYS260     -0.2867
    131  CB        19.4140   43.1090   68.7960 C.3   260  LYS260      0.0271
    132  CG        19.7960   44.5450   68.4180 C.3   260  LYS260      0.0035
    133  CD        21.0360   45.0470   69.1690 C.3   260  LYS260      0.0206
    134  CE        22.2530   44.1410   68.9680 C.3   260  LYS260      0.1093
    135  NZ        22.8150   44.2000   67.5850 N.3   260  LYS260     -0.1314
    136  N         13.8940   43.2780   66.3410 N.3   263  MET263     -0.1230
    137  CA        13.3140   44.4650   66.9500 C.3   263  MET263      0.1702
    138  C         13.5680   45.6870   66.0640 C.2   263  MET263      0.2592
    139  O         12.6670   46.4940   65.8390 O.2   263  MET263     -0.2718
    140  CB        13.8780   44.6740   68.3590 C.3   263  MET263      0.0401
    141  CG        13.0990   43.9300   69.4400 C.3   263  MET263      0.0596
    142  SD        13.7390   44.1210   71.1190 S.3   263  MET263     -0.1393
    143  CE        15.0960   42.9600   71.1010 C.3   263  MET263      0.0692
    144  N         14.7880   45.8090   65.5470 N.am  264  VAL264     -0.1980
    145  CA        15.1350   46.9030   64.6380 C.3   264  VAL264      0.1595
    146  C         14.3210   46.8300   63.3460 C.2   264  VAL264      0.2287
    147  O         13.8140   47.8430   62.8590 O.2   264  VAL264     -0.2864
    148  CB        16.6420   46.8960   64.2980 C.3   264  VAL264      0.0276
    149  CG1       16.9440   47.8480   63.1470 C.3   264  VAL264      0.0022
    150  CG2       17.4620   47.2610   65.5270 C.3   264  VAL264      0.0022
    151  N         10.8790   47.9880   63.9440 N.3   267  ASP267     -0.1239
    152  CA        10.8900   49.4370   64.0870 C.3   267  ASP267      0.1674
    153  C         10.9890   50.0840   62.7050 C.2   267  ASP267      0.2266
    154  O         10.3160   51.0770   62.4270 O.2   267  ASP267     -0.2867
    155  CB        12.0590   49.8830   64.9660 C.3   267  ASP267      0.1410
    156  CG        11.6040   50.4450   66.2980 C.2   267  ASP267      0.3668
    157  OD1       10.4990   51.0240   66.3550 O.co2 267  ASP267     -0.2456
    158  OD2       12.3520   50.3090   67.2890 O.co2 267  ASP267     -0.2456
    159  N          6.8880   42.9690   68.8170 N.3   332  TYR332     -0.1241
    160  CA         8.0940   43.6600   69.2620 C.3   332  TYR332      0.1605
    161  C          8.2950   43.5050   70.7660 C.2   332  TYR332      0.2264
    162  O          9.3880   43.1760   71.2250 O.2   332  TYR332     -0.2867
    163  CB         8.0220   45.1470   68.8870 C.3   332  TYR332      0.0534
    164  CG         9.2080   45.9840   69.3370 C.ar  332  TYR332     -0.0201
    165  CD1        9.2950   46.4720   70.6400 C.ar  332  TYR332     -0.0009
    166  CD2       10.2310   46.3010   68.4520 C.ar  332  TYR332     -0.0009
    167  CE1       10.3720   47.2330   71.0480 C.ar  332  TYR332      0.0417
    168  CE2       11.3100   47.0670   68.8520 C.ar  332  TYR332      0.0417
    169  CZ        11.3760   47.5290   70.1500 C.ar  332  TYR332      0.1957
    170  OH        12.4500   48.2890   70.5500 O.3   332  TYR332     -0.2866
    171  N         11.0460   41.5720   72.8410 N.3   336  ASN336     -0.1240
    172  CA        11.7460   42.3520   73.8520 C.3   336  ASN336      0.1653
    173  C         11.6950   41.6640   75.2200 C.2   336  ASN336      0.2266
    174  O         12.7060   41.5590   75.9160 O.2   336  ASN336     -0.2867
    175  CB        11.1430   43.7580   73.9320 C.3   336  ASN336      0.1155
    176  CG        12.0240   44.7340   74.6900 C.2   336  ASN336      0.2627
    177  OD1       13.2440   44.5880   74.7260 O.2   336  ASN336     -0.2716
    178  ND2       11.4050   45.7440   75.2900 N.am  336  ASN336     -0.0877
@<TRIPOS>BOND
     1    45    46    1
     2    47    46    1
     3    47    48    2
     4    46    49    1
     5    31    30    1
     6    31    32    2
     7    25    24    2
     8    30    33    1
     9    30    29    1
    10    37    38    1
    11    51    50   ar
    12    39    40    2
    13    39    38    1
    14    49    50    1
    15    33    34    1
    16    38    41    1
    17    24    29   am
    18    24    23    1
    19    50    52   ar
    20    22    23    1
    21    23    26    1
    22   154   153    2
    23    34    36   ar
    24    34    35   ar
    25   153   152    1
    26    41    42    1
    27   147   146    2
    28   149   148    1
    29    42    43   ar
    30    42    44   ar
    31   146   145    1
    32    26    27    1
    33    26    28    1
    34   151   152    1
    35     8     7    2
    36     7     6    1
    37    13    14    2
    38    13    12    1
    39   152   155    1
    40    11    12    1
    41   148   145    1
    42   148   150    1
    43   145   144    1
    44    10     9    1
    45    12    15    1
    46   155   156    1
    47     6     5    1
    48     6     9    1
    49     1     2    1
    50     5     3   am
    51     4     3    2
    52   144   138   am
    53     3     2    1
    54   139   138    2
    55   138   137    1
    56    15    16    1
    57   156   157   ar
    58   156   158   ar
    59   136   137    1
    60   130   129    2
    61   137   140    1
    62   129   128    1
    63    16    17    1
    64   121   120    2
    65   135   134    1
    66   125   124   ar
    67   140   141    1
    68   132   131    1
    69   132   133    1
    70   166   168   ar
    71   166   164   ar
    72   120   119    1
    73   128   127    1
    74   128   131    1
    75   122   123    1
    76   122   119    1
    77    17    18    1
    78   124   123    1
    79   124   126   ar
    80    18    19    2
    81   159   160    1
    82    19    20    1
    83    19    21    1
    84   168   169   ar
    85   163   160    1
    86   163   164    1
    87   134   133    1
    88   119   118    1
    89   160   161    1
    90   164   165   ar
    91   141   142    1
    92   169   170    1
    93   169   167   ar
    94   165   167   ar
    95   161   162    2
    96   143   142    1
    97    95    94    1
    98   116   115    1
    99   117   115    1
   100   105   106   ar
   101   105   103   ar
   102   115   114    2
   103   106   104   ar
   104    94    92   ar
   105    94    93   ar
   106    92    90   ar
   107   171   172    1
   108   103   101   ar
   109   114   113    1
   110   104   102   ar
   111    93    91   ar
   112   113   112    1
   113    90    89   ar
   114   172   175    1
   115   172   173    1
   116   175   176    1
   117   101   102   ar
   118   101   100    1
   119   176   177    2
   120   176   178   am
   121   112   111    1
   122    58    57    1
   123    58    59    1
   124    91    89   ar
   125    69    67    1
   126    89    88    1
   127   173   174    2
   128    57    54    1
   129    61    59   am
   130    59    60    2
   131   100    97    1
   132   111   108    1
   133    88    85    1
   134    67    68    1
   135    67    66    1
   136    54    53    1
   137    54    55    1
   138    83    81   ar
   139    97    98    1
   140    97    96    1
   141    85    84    1
   142    85    86    1
   143   110   109    2
   144    99    98    2
   145    82    81   ar
   146    66    63    1
   147   109   108    1
   148    81    80    1
   149   108   107    1
   150    87    86    2
   151    55    56    2
   152    80    79    1
   153    79    76    1
   154    63    64    1
   155    63    62    1
   156    74    71    1
   157    70    64   am
   158    70    71    1
   159    64    65    2
   160    71    72    1
   161    78    77    2
   162    76    77    1
   163    76    75    1
   164    72    73    2
