@<TRIPOS>MOLECULE
tmp/4xuxA01.pdb
 92 86 0 0 0
SMALL
GASTEIGER

@<TRIPOS>ATOM
      1  N        -12.1260    5.4130   25.7180 N.3    92  TRP92      -0.1241
      2  CA       -12.6420    6.5830   26.4210 C.3    92  TRP92       0.1605
      3  C        -14.1160    6.6990   26.1650 C.2    92  TRP92       0.2264
      4  O        -14.5440    7.5210   25.3770 O.2    92  TRP92      -0.2867
      5  CB       -11.9140    7.8550   25.9760 C.3    92  TRP92       0.0550
      6  CG       -11.9620    8.9880   26.9710 C.ar   92  TRP92       0.0003
      7  CD1      -12.5890    9.0240   28.2180 C.ar   92  TRP92       0.0946
      8  CD2      -11.3580   10.3100   26.8190 C.ar   92  TRP92       0.0152
      9  NE1      -12.4150   10.2380   28.8220 N.ar   92  TRP92      -0.2442
     10  CE2      -11.6780   11.0520   28.0360 C.ar   92  TRP92       0.0810
     11  CE3      -10.6260   10.9330   25.8240 C.ar   92  TRP92       0.0012
     12  CZ2      -11.2600   12.3530   28.2310 C.ar   92  TRP92       0.0191
     13  CZ3      -10.2080   12.2380   26.0310 C.ar   92  TRP92       0.0001
     14  CH2      -10.5100   12.9300   27.2060 C.ar   92  TRP92       0.0015
     15  N         -8.4740   16.1890   33.4560 N.3   127  ASN127     -0.1240
     16  CA        -9.1780   15.2790   32.5480 C.3   127  ASN127      0.1653
     17  C        -10.5240   15.8170   32.1250 C.2   127  ASN127      0.2266
     18  O        -10.9020   15.6770   30.9660 O.2   127  ASN127     -0.2867
     19  CB        -9.3000   13.8740   33.1490 C.3   127  ASN127      0.1155
     20  CG        -7.9910   13.0990   33.0670 C.2   127  ASN127      0.2627
     21  OD1       -7.0010   13.5600   32.4530 O.2   127  ASN127     -0.2716
     22  ND2       -7.9670   11.9100   33.6740 N.am  127  ASN127     -0.0877
     23  N         -9.8910   18.3860   29.4630 N.3   130  LEU130     -0.1245
     24  CA        -9.4040   17.6530   28.2980 C.3   130  LEU130      0.1561
     25  C        -10.5880   17.0120   27.5530 C.2   130  LEU130      0.2260
     26  O        -10.7060   17.1490   26.3480 O.2   130  LEU130     -0.2867
     27  CB        -8.3880   16.6010   28.7280 C.3   130  LEU130      0.0270
     28  CG        -7.6480   15.8860   27.6090 C.3   130  LEU130      0.0019
     29  CD1       -6.7190   16.8450   26.8700 C.3   130  LEU130      0.0001
     30  CD2       -6.8840   14.6820   28.1420 C.3   130  LEU130      0.0001
     31  N         -2.9930   12.1710   22.8750 N.3   156  LEU156     -0.1245
     32  CA        -4.1620   11.3770   23.3040 C.3   156  LEU156      0.1561
     33  C         -3.9710    9.8910   23.0070 C.2   156  LEU156      0.2260
     34  O         -4.3150    9.0660   23.8350 O.2   156  LEU156     -0.2867
     35  CB        -5.4730   11.8850   22.6960 C.3   156  LEU156      0.0270
     36  CG        -6.7840   11.2220   23.1780 C.3   156  LEU156      0.0019
     37  CD1       -6.9620   11.3360   24.6830 C.3   156  LEU156      0.0001
     38  CD2       -8.0180   11.7970   22.4680 C.3   156  LEU156      0.0001
     39  N         -1.9060    8.4810   25.8830 N.3   159  ALA159     -0.1231
     40  CA        -2.6890    8.3680   27.1130 C.3   159  ALA159      0.1694
     41  C         -3.6690    7.1980   27.0770 C.2   159  ALA159      0.2591
     42  O         -3.8170    6.4810   28.0610 O.2   159  ALA159     -0.2718
     43  CB        -3.4360    9.6720   27.3640 C.3   159  ALA159      0.0304
     44  N         -4.3360    7.0090   25.9450 N.am  160  LEU160     -0.1980
     45  CA        -5.3340    5.9450   25.8220 C.3   160  LEU160      0.1596
     46  C         -4.6740    4.5760   25.6420 C.2   160  LEU160      0.2287
     47  O         -5.1970    3.5550   26.1260 O.2   160  LEU160     -0.2864
     48  CB        -6.2900    6.2280   24.6720 C.3   160  LEU160      0.0297
     49  CG        -7.1360    7.5040   24.7440 C.3   160  LEU160      0.0022
     50  CD1       -8.0060    7.6320   23.4920 C.3   160  LEU160      0.0001
     51  CD2       -7.9470    7.5200   26.0270 C.3   160  LEU160      0.0001
     52  N         -4.1060    2.6280   28.8610 N.3   163  LYS163     -0.1245
     53  CA        -5.2410    2.3770   29.7800 C.3   163  LYS163      0.1561
     54  C         -5.4230    0.8930   30.1540 C.2   163  LYS163      0.2260
     55  O         -5.5850    0.5900   31.3380 O.2   163  LYS163     -0.2867
     56  CB        -6.5550    3.0360   29.2860 C.3   163  LYS163      0.0271
     57  CG        -6.3960    4.5700   29.1210 C.3   163  LYS163      0.0035
     58  CD        -6.3720    5.2490   30.4640 C.3   163  LYS163      0.0206
     59  CE        -7.2650    6.4580   30.6130 C.3   163  LYS163      0.1093
     60  NZ        -6.8070    7.6430   29.8510 N.3   163  LYS163     -0.1314
     61  N         -0.1730    4.3340   35.1520 N.3   168  PRO168     -0.2116
     62  CA        -0.0210    5.6770   34.6150 C.3   168  PRO168      0.1372
     63  C          1.0270    5.6660   33.5050 C.2   168  PRO168      0.2244
     64  O          1.9040    4.7960   33.4760 O.2   168  PRO168     -0.2868
     65  CB         0.4610    6.4940   35.8140 C.3   168  PRO168      0.0268
     66  CG         0.0470    5.7040   37.0220 C.3   168  PRO168      0.0207
     67  CD         0.1850    4.2680   36.5770 C.3   168  PRO168      0.0892
     68  N         -0.6780   19.6770   29.6840 N.3   214  MET214     -0.1230
     69  CA        -1.4580   18.4500   29.5520 C.3   214  MET214      0.1702
     70  C         -0.9140   17.6080   28.4020 C.2   214  MET214      0.2592
     71  O         -0.6170   18.1280   27.3120 O.2   214  MET214     -0.2718
     72  CB        -2.9640   18.7300   29.3550 C.3   214  MET214      0.0401
     73  CG        -3.7070   19.0670   30.6610 C.3   214  MET214      0.0596
     74  SD        -3.7880   17.7550   31.8850 S.3   214  MET214     -0.1393
     75  CE        -5.0890   16.6690   31.3220 C.3   214  MET214      0.0692
     76  N         -0.7730   16.3170   28.6770 N.am  215  LEU215     -0.1980
     77  CA        -0.2430   15.3380   27.7240 C.3   215  LEU215      0.1596
     78  C          1.2100   15.6360   27.3000 C.2   215  LEU215      0.2287
     79  O          1.6580   15.2220   26.2210 O.2   215  LEU215     -0.2864
     80  CB        -1.1750   15.1920   26.5030 C.3   215  LEU215      0.0297
     81  CG        -2.6590   14.8920   26.7430 C.3   215  LEU215      0.0022
     82  CD1       -3.4110   14.7660   25.4220 C.3   215  LEU215      0.0001
     83  CD2       -2.8300   13.6270   27.5680 C.3   215  LEU215      0.0001
     84  N          3.5170   12.4680   26.7870 N.3   218  GLN218     -0.1245
     85  CA         3.1730   11.6740   25.6180 C.3   218  GLN218      0.1566
     86  C          3.5790   12.3650   24.3120 C.2   218  GLN218      0.2260
     87  O          3.7130   11.7140   23.2840 O.2   218  GLN218     -0.2867
     88  CB         1.6510   11.4400   25.5980 C.3   218  GLN218      0.0367
     89  CG         1.0780   10.6000   26.7410 C.3   218  GLN218      0.0905
     90  CD         0.7360   11.3680   27.9980 C.2   218  GLN218      0.2608
     91  OE1        1.1280   12.5210   28.1880 O.2   218  GLN218     -0.2717
     92  NE2       -0.0360   10.7240   28.8870 N.am  218  GLN218     -0.0878
@<TRIPOS>BOND
     1    38    36    1
     2    35    36    1
     3    35    32    1
     4    31    32    1
     5    33    32    1
     6    33    34    2
     7    36    37    1
     8    87    86    2
     9    50    49    1
    10    86    85    1
    11    48    49    1
    12    48    45    1
    13    49    51    1
    14     4     3    2
    15    82    81    1
    16    88    85    1
    17    88    89    1
    18    85    84    1
    19    46    45    1
    20    46    47    2
    21     1     2    1
    22    45    44    1
    23    11    13   ar
    24    11     8   ar
    25    39    40    1
    26    44    41   am
    27     5     2    1
    28     5     6    1
    29    13    14   ar
    30     3     2    1
    31    79    78    2
    32    26    25    2
    33    80    81    1
    34    80    77    1
    35    89    90    1
    36    81    83    1
    37     8     6   ar
    38     8    10   ar
    39    29    28    1
    40     6     7   ar
    41    41    40    1
    42    41    42    2
    43    40    43    1
    44    14    12   ar
    45    78    77    1
    46    71    70    2
    47    25    24    1
    48    28    30    1
    49    28    27    1
    50    77    76    1
    51    90    91    2
    52    90    92   am
    53    10    12   ar
    54    10     9   ar
    55     7     9   ar
    56    24    27    1
    57    24    23    1
    58    70    76   am
    59    70    69    1
    60    52    53    1
    61    57    56    1
    62    57    58    1
    63    56    53    1
    64    72    69    1
    65    72    73    1
    66    69    68    1
    67    53    54    1
    68    60    59    1
    69    54    55    2
    70    58    59    1
    71    73    74    1
    72    18    17    2
    73    75    74    1
    74    17    16    1
    75    21    20    2
    76    16    19    1
    77    16    15    1
    78    20    19    1
    79    20    22   am
    80    64    63    2
    81    63    62    1
    82    62    61    1
    83    62    65    1
    84    61    67    1
    85    65    66    1
    86    67    66    1
