@<TRIPOS>MOLECULE
tmp/4xuxA00.pdb
 140 131 0 0 0
SMALL
GASTEIGER

@<TRIPOS>ATOM
      1  N          9.7400   16.7920   20.6360 N.3    63  SER63      -0.1217
      2  CA         8.9220   15.8320   19.8880 C.3    63  SER63       0.1889
      3  C          9.5880   14.4860   19.5460 C.2    63  SER63       0.2288
      4  O          8.9080   13.5920   19.0570 O.2    63  SER63      -0.2866
      5  CB         8.3690   16.4630   18.6140 C.3    63  SER63       0.2089
      6  OG         7.4900   17.5370   18.9190 O.3    63  SER63      -0.2183
      7  N          7.8290   11.5480   20.9200 N.3    66  LYS66      -0.1245
      8  CA         6.7950   10.8190   20.1740 C.3    66  LYS66       0.1561
      9  C          7.2450    9.4440   19.6630 C.2    66  LYS66       0.2260
     10  O          6.4070    8.5670   19.4270 O.2    66  LYS66      -0.2867
     11  CB         6.3090   11.6930   19.0000 C.3    66  LYS66       0.0271
     12  CG         5.5880   12.9630   19.4200 C.3    66  LYS66       0.0035
     13  CD         5.2700   13.8390   18.2190 C.3    66  LYS66       0.0206
     14  CE         4.4320   15.0820   18.5400 C.3    66  LYS66       0.1093
     15  NZ         5.1050   16.1130   19.4120 N.3    66  LYS66      -0.1314
     16  N         -2.3320   21.4970   16.5740 N.3   118  LEU118     -0.1231
     17  CA        -0.9570   21.2910   17.0150 C.3   118  LEU118      0.1693
     18  C         -0.8260   21.1010   18.5230 C.2   118  LEU118      0.2591
     19  O         -0.1160   20.1940   18.9840 O.2   118  LEU118     -0.2718
     20  CB        -0.0740   22.4590   16.5330 C.3   118  LEU118      0.0284
     21  CG         1.4020   22.3630   16.9250 C.3   118  LEU118      0.0019
     22  CD1        2.0440   21.1420   16.2570 C.3   118  LEU118      0.0001
     23  CD2        2.1500   23.6360   16.5320 C.3   118  LEU118      0.0001
     24  N         -1.5000   21.9550   19.2820 N.am  119  GLN119     -0.1979
     25  CA        -1.3860   21.9520   20.7330 C.3   119  GLN119      0.1601
     26  C         -2.7210   21.6660   21.4120 C.2   119  GLN119      0.2287
     27  O         -3.7870   22.0120   20.9040 O.2   119  GLN119     -0.2864
     28  CB        -0.8390   23.2950   21.2290 C.3   119  GLN119      0.0394
     29  CG         0.6070   23.6090   20.7680 C.3   119  GLN119      0.0908
     30  CD         1.6820   22.6360   21.2350 C.2   119  GLN119      0.2608
     31  OE1        1.4440   21.7310   22.0180 O.2   119  GLN119     -0.2717
     32  NE2        2.9200   22.8200   20.7270 N.am  119  GLN119     -0.0878
     33  N          0.0820   17.4870   11.6460 N.3   149  TYR149     -0.1241
     34  CA         0.9690   17.1720   12.7790 C.3   149  TYR149      0.1605
     35  C          0.4610   17.8190   14.0550 C.2   149  TYR149      0.2264
     36  O          0.1500   19.0280   14.0760 O.2   149  TYR149     -0.2867
     37  CB         2.3650   17.6540   12.4540 C.3   149  TYR149      0.0534
     38  CG         3.3980   17.3480   13.4910 C.ar  149  TYR149     -0.0201
     39  CD1        4.1020   16.1430   13.4800 C.ar  149  TYR149     -0.0009
     40  CD2        3.7290   18.2930   14.4390 C.ar  149  TYR149     -0.0009
     41  CE1        5.0790   15.8880   14.4150 C.ar  149  TYR149      0.0417
     42  CE2        4.7050   18.0500   15.3800 C.ar  149  TYR149      0.0417
     43  CZ         5.3760   16.8490   15.3700 C.ar  149  TYR149      0.1957
     44  OH         6.3840   16.6720   16.2990 O.3   149  TYR149     -0.2866
     45  N          0.2050   17.5160   18.5820 N.3   151  ASN151     -0.1240
     46  CA         0.3280   16.9930   19.9530 C.3   151  ASN151      0.1653
     47  C         -1.0150   16.5520   20.5080 C.2   151  ASN151      0.2266
     48  O         -1.0910   15.5730   21.2650 O.2   151  ASN151     -0.2867
     49  CB         0.9210   18.0630   20.8880 C.3   151  ASN151      0.1155
     50  CG         2.3660   18.3900   20.5660 C.2   151  ASN151      0.2627
     51  OD1        3.0530   17.5940   19.9580 O.2   151  ASN151     -0.2716
     52  ND2        2.8490   19.5400   21.0450 N.am  151  ASN151     -0.0877
     53  N         17.3150   30.5270   24.6650 N.3   203  ARG203     -0.1245
     54  CA        16.5440   31.1960   23.6290 C.3   203  ARG203      0.1563
     55  C         16.8200   32.6980   23.7110 C.2   203  ARG203      0.2260
     56  O         16.5160   33.3280   24.7210 O.2   203  ARG203     -0.2867
     57  CB        15.0600   30.9200   23.8350 C.3   203  ARG203      0.0307
     58  CG        14.1470   31.5410   22.7770 C.3   203  ARG203      0.0489
     59  CD        12.6870   31.1320   22.9560 C.3   203  ARG203      0.2205
     60  NE        12.2900   31.2310   24.3580 N.pl3 203  ARG203     -0.0865
     61  CZ        11.1930   30.6960   24.8900 C.cat 203  ARG203      0.5346
     62  NH1       10.3050   30.0500   24.1340 N.pl3 203  ARG203      0.1354
     63  NH2       10.9740   30.8560   26.1970 N.pl3 203  ARG203      0.1354
     64  N         11.5660   23.4510   29.8050 N.3   210  VAL210     -0.1245
     65  CA        10.1890   23.2020   29.3950 C.3   210  VAL210      0.1561
     66  C          9.2590   23.2420   30.5980 C.2   210  VAL210      0.2260
     67  O          9.6320   22.7950   31.6810 O.2   210  VAL210     -0.2867
     68  CB        10.0350   21.8510   28.6630 C.3   210  VAL210      0.0252
     69  CG1       10.2390   20.6490   29.6050 C.3   210  VAL210      0.0019
     70  CG2        8.6760   21.7930   27.9820 C.3   210  VAL210      0.0019
     71  N          5.9220   15.5960   24.1900 N.3   220  TYR220     -0.1241
     72  CA         7.1670   16.3630   24.1200 C.3   220  TYR220      0.1605
     73  C          8.0320   16.4360   25.3970 C.2   220  TYR220      0.2264
     74  O          8.9240   17.2680   25.4750 O.2   220  TYR220     -0.2867
     75  CB         6.8670   17.8100   23.6760 C.3   220  TYR220      0.0534
     76  CG         5.8530   18.5300   24.5510 C.ar  220  TYR220     -0.0201
     77  CD1        6.2250   19.1210   25.7630 C.ar  220  TYR220     -0.0009
     78  CD2        4.5090   18.6160   24.1610 C.ar  220  TYR220     -0.0009
     79  CE1        5.2910   19.7740   26.5590 C.ar  220  TYR220      0.0417
     80  CE2        3.5720   19.2710   24.9550 C.ar  220  TYR220      0.0417
     81  CZ         3.9730   19.8550   26.1450 C.ar  220  TYR220      0.1957
     82  OH         3.0600   20.5040   26.9540 O.3   220  TYR220     -0.2866
     83  N          6.0360   20.8230    7.0340 N.3   291  ALA291     -0.1231
     84  CA         5.8930   19.9030    8.1810 C.3   291  ALA291      0.1694
     85  C          4.6770   20.1690    9.0600 C.2   291  ALA291      0.2591
     86  O          4.1080   19.2110    9.6160 O.2   291  ALA291     -0.2718
     87  CB         7.1680   19.9040    9.0430 C.3   291  ALA291      0.0304
     88  N          4.2790   21.4340    9.1800 N.am  292  LEU292     -0.1980
     89  CA         3.1110   21.8220    9.9930 C.3   292  LEU292      0.1596
     90  C          1.8310   22.0220    9.1710 C.2   292  LEU292      0.2287
     91  O          0.7800   22.2980    9.7390 O.2   292  LEU292     -0.2864
     92  CB         3.4140   23.0970   10.8040 C.3   292  LEU292      0.0297
     93  CG         4.5470   22.9730   11.8350 C.3   292  LEU292      0.0022
     94  CD1        4.6160   24.2180   12.6990 C.3   292  LEU292      0.0001
     95  CD2        4.4570   21.7200   12.6960 C.3   292  LEU292      0.0001
     96  N         13.3920   11.7960   13.1400 N.3   314  LYS314     -0.1231
     97  CA        12.4620   12.6470   13.8690 C.3   314  LYS314      0.1693
     98  C         13.1720   13.8620   14.4290 C.2   314  LYS314      0.2593
     99  O         14.2250   13.7240   15.0360 O.2   314  LYS314     -0.2718
    100  CB        11.8030   11.8880   15.0230 C.3   314  LYS314      0.0285
    101  CG        10.6720   12.6650   15.6880 C.3   314  LYS314      0.0035
    102  CD         9.4690   12.8720   14.7850 C.3   314  LYS314      0.0206
    103  CE         8.4160   13.7760   15.4250 C.3   314  LYS314      0.1093
    104  NZ         8.7060   15.2160   15.2300 N.3   314  LYS314     -0.1314
    105  N         12.5840   15.0420   14.2100 N.am  315  THR315     -0.1939
    106  CA        13.0270   16.2770   14.8580 C.3   315  THR315      0.2028
    107  C         12.3270   16.4400   16.2110 C.2   315  THR315      0.2643
    108  O         11.2020   16.0170   16.3860 O.2   315  THR315     -0.2714
    109  CB        12.6960   17.5160   13.9900 C.3   315  THR315      0.1808
    110  OG1       11.2960   17.5200   13.6740 O.3   315  THR315     -0.2208
    111  CG2       13.4490   17.5120   12.6870 C.3   315  THR315      0.0379
    112  N         12.9920   17.0810   17.1720 N.am  316  GLY316     -0.1939
    113  CA        12.3220   17.4300   18.4200 C.3   316  GLY316      0.2014
    114  C         12.8120   18.7550   18.9520 C.2   316  GLY316      0.2640
    115  O         14.0050   19.0240   18.9250 O.2   316  GLY316     -0.2714
    116  N         11.8880   19.5700   19.4650 N.am  317  SER317     -0.1935
    117  CA        12.2300   20.8990   19.9640 C.3   317  SER317      0.2055
    118  C         11.4140   21.2600   21.1920 C.2   317  SER317      0.2644
    119  O         10.2670   20.8260   21.3420 O.2   317  SER317     -0.2714
    120  CB        11.9720   21.9520   18.8920 C.3   317  SER317      0.2130
    121  OG        12.5290   21.5650   17.6480 O.3   317  SER317     -0.2179
    122  N         12.0110   22.0960   22.0300 N.am  318  THR318     -0.1936
    123  CA        11.2880   22.8330   23.0630 C.3   318  THR318      0.2028
    124  C         11.7100   24.2940   22.9380 C.2   318  THR318      0.2642
    125  O         12.3700   24.6620   21.9540 O.2   318  THR318     -0.2714
    126  CB        11.5600   22.2620   24.4590 C.3   318  THR318      0.1808
    127  OG1       12.9510   22.3770   24.7370 O.3   318  THR318     -0.2208
    128  CG2       11.1040   20.7840   24.5660 C.3   318  THR318      0.0379
    129  N         11.3120   25.1470   23.8860 N.am  319  GLY319     -0.1954
    130  CA        11.6690   26.5370   23.8330 C.3   319  GLY319      0.1869
    131  C         13.1620   26.7590   23.7570 C.2   319  GLY319      0.2309
    132  O         13.6400   27.6380   23.0300 O.2   319  GLY319     -0.2863
    133  N         14.9160   23.3560   11.6880 N.3   345  ASN345     -0.1240
    134  CA        14.9600   21.9340   11.3130 C.3   345  ASN345      0.1653
    135  C         15.7400   21.6360   10.0330 C.2   345  ASN345      0.2266
    136  O         16.4850   20.6680   10.0010 O.2   345  ASN345     -0.2867
    137  CB        13.5650   21.3240   11.2480 C.3   345  ASN345      0.1155
    138  CG        12.9480   21.1460   12.6270 C.2   345  ASN345      0.2627
    139  OD1       13.6310   21.2700   13.6230 O.2   345  ASN345     -0.2716
    140  ND2       11.6610   20.7950   12.6780 N.am  345  ASN345     -0.0877
@<TRIPOS>BOND
     1    83    84    1
     2    84    87    1
     3    84    85    1
     4    85    88   am
     5    85    86    2
     6    90    91    2
     7    90    89    1
     8    88    89    1
     9    89    92    1
    10   136   135    2
    11   135   134    1
    12    92    93    1
    13   137   134    1
    14   137   138    1
    15   134   133    1
    16    33    34    1
    17    93    95    1
    18    93    94    1
    19    37    34    1
    20    37    38    1
    21   138   140   am
    22   138   139    2
    23   111   109    1
    24    34    35    1
    25    96    97    1
    26    39    38   ar
    27    39    41   ar
    28    38    40   ar
    29   110   109    1
    30    97    98    1
    31    97   100    1
    32   109   106    1
    33    35    36    2
    34   105    98   am
    35   105   106    1
    36    41    43   ar
    37    98    99    2
    38    40    42   ar
    39   102   103    1
    40   102   101    1
    41   106   107    1
    42   100   101    1
    43   104   103    1
    44    43    42   ar
    45    43    44    1
    46   107   108    2
    47   107   112   am
    48    22    21    1
    49    23    21    1
    50    20    21    1
    51    20    17    1
    52    16    17    1
    53    17    18    1
    54   112   113    1
    55   121   120    1
    56    13    14    1
    57    13    12    1
    58   113   114    1
    59    18    19    2
    60    18    24   am
    61    14    15    1
    62    45    46    1
    63     5     6    1
    64     5     2    1
    65   120   117    1
    66   115   114    2
    67   114   116   am
    68    11    12    1
    69    11     8    1
    70     4     3    2
    71    24    25    1
    72    10     9    2
    73   116   117    1
    74     3     2    1
    75     9     8    1
    76     2     1    1
    77    46    47    1
    78    46    49    1
    79    51    50    2
    80   117   118    1
    81     8     7    1
    82    47    48    2
    83    50    49    1
    84    50    52   am
    85    32    30   am
    86    25    28    1
    87    25    26    1
    88    29    28    1
    89    29    30    1
    90    27    26    2
    91   118   119    2
    92   118   122   am
    93    30    31    2
    94   125   124    2
    95   122   123    1
    96    58    59    1
    97    58    57    1
    98   124   123    1
    99   124   129   am
   100    59    60    1
   101   132   131    2
   102   123   126    1
   103    54    55    1
   104    54    57    1
   105    54    53    1
   106    75    72    1
   107    75    76    1
   108    55    56    2
   109   131   130    1
   110   130   129    1
   111    72    71    1
   112    72    73    1
   113    62    61    1
   114    78    76   ar
   115    78    80   ar
   116    60    61    2
   117   126   128    1
   118   126   127    1
   119    76    77   ar
   120    61    63    1
   121    80    81   ar
   122    73    74    2
   123    77    79   ar
   124    81    79   ar
   125    81    82    1
   126    70    68    1
   127    68    65    1
   128    68    69    1
   129    65    64    1
   130    65    66    1
   131    66    67    2
