@<TRIPOS>MOLECULE
tmp/4xuzA00.pdb
 121 113 0 0 0
SMALL
GASTEIGER

@<TRIPOS>ATOM
      1  N         41.0370   40.7230   14.8030 N.3    44  SER44      -0.1217
      2  CA        39.7490   40.5830   15.4710 C.3    44  SER44       0.1889
      3  C         39.4810   39.1700   16.0370 C.2    44  SER44       0.2288
      4  O         38.5530   38.9870   16.8020 O.2    44  SER44      -0.2866
      5  CB        38.6040   41.0120   14.5450 C.3    44  SER44       0.2089
      6  OG        38.6290   42.4330   14.2670 O.3    44  SER44      -0.2183
      7  N         39.0150   38.8870   19.8160 N.3    47  LYS47      -0.1245
      8  CA        37.7410   39.1840   20.4750 C.3    47  LYS47       0.1561
      9  C         37.1870   37.9780   21.2640 C.2    47  LYS47       0.2260
     10  O         36.5100   38.1560   22.2550 O.2    47  LYS47      -0.2867
     11  CB        36.7300   39.7340   19.4560 C.3    47  LYS47       0.0271
     12  CG        37.1400   41.1080   18.9540 C.3    47  LYS47       0.0035
     13  CD        36.3910   41.5660   17.7190 C.3    47  LYS47       0.0206
     14  CE        36.7930   43.0140   17.3810 C.3    47  LYS47       0.1093
     15  NZ        36.6270   43.4020   15.9530 N.3    47  LYS47      -0.1314
     16  N         36.8040   52.8120   14.2640 N.3    78  ASN78      -0.1225
     17  CA        36.8140   52.6720   12.7830 C.3    78  ASN78       0.1785
     18  C         35.7590   51.7260   12.2420 C.2    78  ASN78       0.2597
     19  O         35.5390   51.6710   11.0380 O.2    78  ASN78      -0.2718
     20  CB        38.1600   52.1830   12.3290 C.3    78  ASN78       0.1169
     21  CG        38.4900   50.8090   12.8760 C.2    78  ASN78       0.2627
     22  OD1       38.2220   50.5140   14.0350 O.2    78  ASN78      -0.2716
     23  ND2       39.0790   49.9540   12.0280 N.am   78  ASN78      -0.0877
     24  N         35.2160   50.8850   13.0920 N.am   79  TYR79      -0.1976
     25  CA        34.3170   49.8430   12.6640 C.3    79  TYR79       0.1639
     26  C         33.3070   49.5450   13.7730 C.2    79  TYR79       0.2290
     27  O         33.6040   48.8610   14.7420 O.2    79  TYR79      -0.2864
     28  CB        35.0930   48.5600   12.2620 C.3    79  TYR79       0.0560
     29  CG        34.2190   47.5490   11.5820 C.ar   79  TYR79      -0.0198
     30  CD1       33.5640   47.8670   10.3930 C.ar   79  TYR79      -0.0009
     31  CD2       33.9110   46.3450   12.1890 C.ar   79  TYR79      -0.0009
     32  CE1       32.6930   46.9830    9.8000 C.ar   79  TYR79       0.0417
     33  CE2       33.0450   45.4450   11.5890 C.ar   79  TYR79       0.0417
     34  CZ        32.4550   45.7740   10.3800 C.ar   79  TYR79       0.1957
     35  OH        31.5360   44.9140    9.7600 O.3    79  TYR79      -0.2866
     36  N         31.8220   41.5330   14.8990 N.3   104  SER104     -0.1217
     37  CA        33.2050   42.0180   14.9390 C.3   104  SER104      0.1889
     38  C         33.2640   43.5130   15.2360 C.2   104  SER104      0.2288
     39  O         34.1880   44.2000   14.8320 O.2   104  SER104     -0.2866
     40  CB        33.9400   41.6780   13.6370 C.3   104  SER104      0.2089
     41  OG        35.2480   41.2170   13.9050 O.3   104  SER104     -0.2183
     42  N         34.1660   46.8540   16.8560 N.3   106  ASN106     -0.1240
     43  CA        35.3620   47.2930   17.5720 C.3   106  ASN106      0.1653
     44  C         35.0910   48.0880   18.8340 C.2   106  ASN106      0.2266
     45  O         35.8940   48.0440   19.7750 O.2   106  ASN106     -0.2867
     46  CB        36.3020   48.0880   16.6490 C.3   106  ASN106      0.1155
     47  CG        37.2410   47.1970   15.8490 C.2   106  ASN106      0.2627
     48  OD1       37.3380   45.9890   16.0920 O.2   106  ASN106     -0.2716
     49  ND2       37.9350   47.7890   14.8800 N.am  106  ASN106     -0.0877
     50  N         41.5220   50.8420   17.5260 N.3   141  PRO141     -0.2102
     51  CA        41.7630   50.0070   16.3540 C.3   141  PRO141      0.1504
     52  C         43.2180   49.5790   16.1820 C.2   141  PRO141      0.2576
     53  O         43.5360   48.8320   15.2470 O.2   141  PRO141     -0.2718
     54  CB        41.3780   50.9350   15.2160 C.3   141  PRO141      0.0282
     55  CG        41.7870   52.2770   15.7060 C.3   141  PRO141      0.0208
     56  CD        41.4550   52.2740   17.1550 C.3   141  PRO141      0.0893
     57  N         44.1240   50.0870   17.0230 N.am  142  THR142     -0.1953
     58  CA        45.5580   49.9480   16.7230 C.3   142  THR142      0.1897
     59  C         46.0780   48.5140   16.8530 C.2   142  THR142      0.2313
     60  O         47.1150   48.1840   16.2880 O.2   142  THR142     -0.2863
     61  CB        46.4370   50.8790   17.5740 C.3   142  THR142      0.1794
     62  OG1       46.2830   50.5660   18.9640 O.3   142  THR142     -0.2208
     63  CG2       46.0710   52.3570   17.3230 C.3   142  THR142      0.0378
     64  N         45.3490   46.0440   15.3250 N.3   144  ASN144     -0.1225
     65  CA        45.2940   45.3470   14.0060 C.3   144  ASN144      0.1785
     66  C         46.3870   45.7600   12.9960 C.2   144  ASN144      0.2597
     67  O         46.3230   45.3580   11.8420 O.2   144  ASN144     -0.2718
     68  CB        43.9350   45.5660   13.3560 C.3   144  ASN144      0.1169
     69  CG        42.7990   45.2110   14.2670 C.2   144  ASN144      0.2627
     70  OD1       42.6150   44.0580   14.5980 O.2   144  ASN144     -0.2716
     71  ND2       42.0530   46.2160   14.7190 N.am  144  ASN144     -0.0877
     72  N         47.3530   46.5640   13.4110 N.am  145  THR145     -0.1953
     73  CA        48.3460   47.0790   12.4400 C.3   145  THR145      0.1897
     74  C         49.1010   45.9410   11.7250 C.2   145  THR145      0.2313
     75  O         49.4170   46.0550   10.5430 O.2   145  THR145     -0.2863
     76  CB        49.3390   48.0660   13.0830 C.3   145  THR145      0.1794
     77  OG1       49.8880   47.5100   14.2770 O.3   145  THR145     -0.2208
     78  CG2       48.6410   49.3910   13.4280 C.3   145  THR145      0.0378
     79  N         29.9550   36.8270   10.2590 N.3   190  THR190     -0.1218
     80  CA        31.0610   37.3760    9.4580 C.3   190  THR190      0.1862
     81  C         31.9470   36.2920    8.8020 C.2   190  THR190      0.2287
     82  O         32.9020   36.6170    8.1340 O.2   190  THR190     -0.2866
     83  CB        32.0030   38.2580   10.2960 C.3   190  THR190      0.1770
     84  OG1       32.7260   37.4350   11.2150 O.3   190  THR190     -0.2211
     85  CG2       31.2270   39.3190   11.0520 C.3   190  THR190      0.0375
     86  N         36.3430   35.6760   12.9340 N.3   209  THR209     -0.1203
     87  CA        37.2130   36.1640   11.8840 C.3   209  THR209      0.1994
     88  C         38.0880   37.3370   12.3740 C.2   209  THR209      0.2618
     89  O         37.8400   37.9300   13.4290 O.2   209  THR209     -0.2717
     90  CB        36.3750   36.6620   10.7050 C.3   209  THR209      0.1784
     91  OG1       35.3850   37.5680   11.1970 O.3   209  THR209     -0.2211
     92  CG2       35.6860   35.4880    9.9820 C.3   209  THR209      0.0376
     93  N         39.0440   37.7260   11.5480 N.am  210  GLY210     -0.1942
     94  CA        39.6850   39.0110   11.6900 C.3   210  GLY210      0.2014
     95  C         40.3420   39.4720   10.4030 C.2   210  GLY210      0.2640
     96  O         40.8130   38.6590    9.6050 O.2   210  GLY210     -0.2714
     97  N         40.3310   40.7850   10.1940 N.am  211  SER211     -0.1935
     98  CA        40.9810   41.4270    9.0400 C.3   211  SER211      0.2055
     99  C         41.8630   42.5540    9.5850 C.2   211  SER211      0.2644
    100  O         41.4670   43.2700   10.5190 O.2   211  SER211     -0.2714
    101  CB        39.9300   42.0050    8.0970 C.3   211  SER211      0.2130
    102  OG        38.9720   41.0290    7.7110 O.3   211  SER211     -0.2179
    103  N         43.0700   42.6700    9.0990 N.am  212  GLY212     -0.1939
    104  CA        43.9540   43.6940    9.5850 C.3   212  GLY212      0.2014
    105  C         44.8930   44.2290    8.5510 C.2   212  GLY212      0.2639
    106  O         44.7500   43.9470    7.3630 O.2   212  GLY212     -0.2714
    107  N         45.8780   44.9980    8.9990 N.am  213  GLY213     -0.1954
    108  CA        46.8780   45.5290    8.1290 C.3   213  GLY213      0.1869
    109  C         47.6680   44.4260    7.4520 C.2   213  GLY213      0.2309
    110  O         47.6040   43.2690    7.8530 O.2   213  GLY213     -0.2863
    111  N         40.1950   35.8750    2.1360 N.3   248  ARG248     -0.1245
    112  CA        39.4170   34.8750    2.8520 C.3   248  ARG248      0.1563
    113  C         39.3830   33.5490    2.0980 C.2   248  ARG248      0.2260
    114  O         39.2580   32.4780    2.7060 O.2   248  ARG248     -0.2867
    115  CB        38.0120   35.3860    3.1150 C.3   248  ARG248      0.0307
    116  CG        37.9900   36.5890    4.0450 C.3   248  ARG248      0.0489
    117  CD        36.5860   37.0610    4.3180 C.3   248  ARG248      0.2205
    118  NE        36.0270   37.7780    3.1820 N.pl3 248  ARG248     -0.0865
    119  CZ        36.2340   39.0610    2.9390 C.cat 248  ARG248      0.5346
    120  NH1       37.0130   39.7740    3.7430 N.pl3 248  ARG248      0.1354
    121  NH2       35.6790   39.6320    1.8880 N.pl3 248  ARG248      0.1354
@<TRIPOS>BOND
     1   121   119    1
     2   113   114    2
     3   113   112    1
     4   111   112    1
     5   112   115    1
     6   119   118    2
     7   119   120    1
     8   115   116    1
     9   118   117    1
    10   116   117    1
    11   106   105    2
    12   109   110    2
    13   109   108    1
    14   102   101    1
    15   101    98    1
    16   108   107    1
    17    82    81    2
    18   105   107   am
    19   105   104    1
    20    81    80    1
    21    98    99    1
    22    98    97    1
    23   103    99   am
    24   103   104    1
    25    80    79    1
    26    80    83    1
    27    99   100    2
    28    96    95    2
    29    35    34    1
    30    32    34   ar
    31    32    30   ar
    32    92    90    1
    33    97    95   am
    34    83    85    1
    35    83    84    1
    36    34    33   ar
    37    30    29   ar
    38    95    94    1
    39    75    74    2
    40    90    91    1
    41    90    87    1
    42    19    18    2
    43    93    94    1
    44    93    88   am
    45    29    31   ar
    46    29    28    1
    47    33    31   ar
    48    74    73    1
    49    67    66    2
    50    87    88    1
    51    87    86    1
    52    23    21   am
    53    18    17    1
    54    18    24   am
    55    28    25    1
    56    20    17    1
    57    20    21    1
    58    88    89    2
    59    73    76    1
    60    73    72    1
    61    25    24    1
    62    25    26    1
    63    17    16    1
    64    21    22    2
    65    66    72   am
    66    66    65    1
    67    76    78    1
    68    76    77    1
    69    68    65    1
    70    68    69    1
    71    40    41    1
    72    40    37    1
    73    26    27    2
    74    65    64    1
    75    69    70    2
    76    69    71   am
    77     6     5    1
    78     5     2    1
    79     1     2    1
    80    39    38    2
    81    49    47   am
    82    36    37    1
    83    37    38    1
    84    54    55    1
    85    54    51    1
    86    53    52    2
    87     2     3    1
    88    55    56    1
    89    47    48    2
    90    47    46    1
    91    15    14    1
    92     3     4    2
    93    52    51    1
    94    52    57   am
    95    60    59    2
    96    51    50    1
    97    46    43    1
    98    58    59    1
    99    58    57    1
   100    58    61    1
   101    42    43    1
   102    56    50    1
   103    63    61    1
   104    14    13    1
   105    43    44    1
   106    61    62    1
   107    13    12    1
   108    44    45    2
   109    12    11    1
   110    11     8    1
   111     7     8    1
   112     8     9    1
   113     9    10    2
