@<TRIPOS>MOLECULE
tmp/4xv1A00.pdb
 171 163 0 0 0
SMALL
GASTEIGER

@<TRIPOS>ATOM
      1  N          7.5190    2.5340  -26.0770 N.3    15  ILE15      -0.1245
      2  CA         8.0250    1.3020  -25.4900 C.3    15  ILE15       0.1561
      3  C          7.8380    0.1190  -26.4310 C.2    15  ILE15       0.2260
      4  O          8.7640   -0.6600  -26.6570 O.2    15  ILE15      -0.2867
      5  CB         7.3390    1.0000  -24.1420 C.3    15  ILE15       0.0252
      6  CG1        7.7190    2.0630  -23.1080 C.3    15  ILE15       0.0019
      7  CG2        7.7070   -0.3950  -23.6520 C.3    15  ILE15       0.0019
      8  CD1        9.2140    2.2980  -22.9900 C.3    15  ILE15       0.0001
      9  N          2.2910    1.5740  -26.8170 N.3    20  VAL20      -0.1245
     10  CA         2.5660    1.8060  -25.4030 C.3    20  VAL20       0.1561
     11  C          3.6830    2.8210  -25.2020 C.2    20  VAL20       0.2260
     12  O          4.7210    2.7530  -25.8610 O.2    20  VAL20      -0.2867
     13  CB         2.9500    0.4980  -24.6880 C.3    20  VAL20       0.0252
     14  CG1        3.2330    0.7580  -23.2120 C.3    20  VAL20       0.0019
     15  CG2        1.8510   -0.5440  -24.8530 C.3    20  VAL20       0.0019
     16  N          2.2820    4.1380  -17.5100 N.3    30  ALA30      -0.1245
     17  CA         2.3490    3.5910  -18.8530 C.3    30  ALA30       0.1562
     18  C          1.0770    3.9780  -19.5870 C.2    30  ALA30       0.2260
     19  O         -0.0230    3.8180  -19.0620 O.2    30  ALA30      -0.2867
     20  CB         2.5020    2.0860  -18.8080 C.3    30  ALA30       0.0290
     21  N         -1.1400    3.3750  -22.9880 N.3    32  LYS32      -0.1245
     22  CA        -1.4140    2.6530  -24.2220 C.3    32  LYS32       0.1561
     23  C         -2.3240    3.4880  -25.1150 C.2    32  LYS32       0.2260
     24  O         -3.5170    3.6300  -24.8430 O.2    32  LYS32      -0.2867
     25  CB        -2.0520    1.2870  -23.9530 C.3    32  LYS32       0.0271
     26  CG        -2.3670    0.5180  -25.2410 C.3    32  LYS32       0.0035
     27  CD        -3.2410   -0.7100  -25.0110 C.3    32  LYS32       0.0206
     28  CE        -2.4120   -1.9290  -24.6430 C.3    32  LYS32       0.1093
     29  NZ        -3.2600   -3.1470  -24.4780 N.3    32  LYS32      -0.1314
     30  N        -11.7310   -3.2260  -16.6720 N.3    53  LEU53      -0.1245
     31  CA       -10.4950   -2.9430  -15.9650 C.3    53  LEU53       0.1561
     32  C        -10.8100   -2.1890  -14.6850 C.2    53  LEU53       0.2260
     33  O        -10.0760   -2.2770  -13.7020 O.2    53  LEU53      -0.2867
     34  CB        -9.5900   -2.1040  -16.8550 C.3    53  LEU53       0.0270
     35  CG        -9.6480   -2.5360  -18.3180 C.3    53  LEU53       0.0019
     36  CD1       -9.2190   -1.4010  -19.2440 C.3    53  LEU53       0.0001
     37  CD2       -8.7940   -3.7810  -18.5220 C.3    53  LEU53       0.0001
     38  N        -10.9090   -4.3020  -11.4260 N.3    56  THR56      -0.1218
     39  CA        -9.7480   -5.0820  -11.0150 C.3    56  THR56       0.1862
     40  C         -8.9100   -4.3430   -9.9650 C.2    56  THR56       0.2287
     41  O         -8.2630   -3.3350  -10.2590 O.2    56  THR56      -0.2866
     42  CB        -8.8360   -5.4110  -12.2070 C.3    56  THR56       0.1770
     43  OG1       -8.3670   -4.1900  -12.7970 O.3    56  THR56      -0.2211
     44  CG2       -9.5830   -6.2420  -13.2500 C.3    56  THR56       0.0375
     45  N         -2.0420   -5.9660  -13.2210 N.3    62  LEU62      -0.1245
     46  CA        -1.5200   -4.6440  -13.5730 C.3    62  LEU62       0.1561
     47  C         -2.5120   -3.5620  -13.1670 C.2    62  LEU62       0.2260
     48  O         -3.6980   -3.6560  -13.4720 O.2    62  LEU62      -0.2867
     49  CB        -1.2380   -4.5640  -15.0730 C.3    62  LEU62       0.0270
     50  CG        -0.6670   -3.2580  -15.6330 C.3    62  LEU62       0.0019
     51  CD1        0.7760   -3.0640  -15.1980 C.3    62  LEU62       0.0001
     52  CD2       -0.7860   -3.2130  -17.1690 C.3    62  LEU62       0.0001
     53  N         -4.7230   -0.7070  -13.3010 N.3    64  PHE64      -0.1241
     54  CA        -5.4220    0.3060  -14.0720 C.3    64  PHE64       0.1605
     55  C         -5.5020    1.5810  -13.2300 C.2    64  PHE64       0.2264
     56  O         -5.8620    1.5250  -12.0550 O.2    64  PHE64      -0.2867
     57  CB        -6.8260   -0.1890  -14.4200 C.3    64  PHE64       0.0534
     58  CG        -7.7520    0.8930  -14.8980 C.ar   64  PHE64      -0.0203
     59  CD1       -7.6390    1.4040  -16.1810 C.ar   64  PHE64      -0.0042
     60  CD2       -8.7440    1.3900  -14.0680 C.ar   64  PHE64      -0.0042
     61  CE1       -8.4900    2.3960  -16.6240 C.ar   64  PHE64      -0.0003
     62  CE2       -9.6010    2.3810  -14.5060 C.ar   64  PHE64      -0.0003
     63  CZ        -9.4740    2.8850  -15.7870 C.ar   64  PHE64      -0.0000
     64  N         -5.4110    4.0600  -22.4510 N.3    75  ILE75      -0.1245
     65  CA        -5.5040    3.4140  -21.1560 C.3    75  ILE75       0.1561
     66  C         -4.2610    3.7850  -20.3620 C.2    75  ILE75       0.2260
     67  O         -3.1420    3.6320  -20.8530 O.2    75  ILE75      -0.2867
     68  CB        -5.5450    1.8820  -21.2790 C.3    75  ILE75       0.0252
     69  CG1       -6.5980    1.4310  -22.2980 C.3    75  ILE75       0.0019
     70  CG2       -5.8080    1.2700  -19.9220 C.3    75  ILE75       0.0019
     71  CD1       -8.0230    1.5970  -21.8220 C.3    75  ILE75       0.0001
     72  N         -2.0200    3.0420  -16.9660 N.3    77  THR77      -0.1203
     73  CA        -1.7600    2.0950  -15.8920 C.3    77  THR77       0.1994
     74  C         -0.4580    2.4380  -15.1990 C.2    77  THR77       0.2618
     75  O          0.2790    3.3160  -15.6480 O.2    77  THR77      -0.2717
     76  CB        -1.6420    0.6530  -16.4260 C.3    77  THR77       0.1784
     77  OG1       -0.3820    0.4850  -17.0900 O.3    77  THR77      -0.2211
     78  CG2       -2.7560    0.3670  -17.3980 C.3    77  THR77       0.0376
     79  N         -0.1790    1.7330  -14.1070 N.am   78  GLN78      -0.1965
     80  CA         1.1060    1.8270  -13.4330 C.3    78  GLN78       0.1733
     81  C          2.2520    1.4740  -14.3780 C.2    78  GLN78       0.2616
     82  O          2.0640    0.7820  -15.3840 O.2    78  GLN78      -0.2715
     83  CB         1.1420    0.8850  -12.2300 C.3    78  GLN78       0.0408
     84  CG         1.0250   -0.5880  -12.5940 C.3    78  GLN78       0.0908
     85  CD         1.2120   -1.5120  -11.4020 C.2    78  GLN78       0.2608
     86  OE1        0.4370   -2.4450  -11.2030 O.2    78  GLN78      -0.2717
     87  NE2        2.2450   -1.2590  -10.6070 N.am   78  GLN78      -0.0878
     88  N          3.4420    1.9540  -14.0460 N.am   79  TRP79      -0.1960
     89  CA         4.6380    1.6130  -14.7930 C.3    79  TRP79       0.1771
     90  C          5.3990    0.4870  -14.1040 C.2    79  TRP79       0.2619
     91  O          5.6400    0.5390  -12.8990 O.2    79  TRP79      -0.2715
     92  CB         5.5380    2.8370  -14.9510 C.3    79  TRP79       0.0590
     93  CG         6.8370    2.5260  -15.6200 C.ar   79  TRP79       0.0006
     94  CD1        8.0490    2.3550  -15.0170 C.ar   79  TRP79       0.0946
     95  CD2        7.0530    2.3260  -17.0200 C.ar   79  TRP79       0.0152
     96  NE1        9.0110    2.0720  -15.9560 N.ar   79  TRP79      -0.2442
     97  CE2        8.4260    2.0490  -17.1940 C.ar   79  TRP79       0.0810
     98  CE3        6.2240    2.3640  -18.1450 C.ar   79  TRP79       0.0012
     99  CZ2        8.9860    1.8090  -18.4480 C.ar   79  TRP79       0.0191
    100  CZ3        6.7830    2.1280  -19.3900 C.ar   79  TRP79       0.0001
    101  CH2        8.1510    1.8540  -19.5300 C.ar   79  TRP79       0.0015
    102  N          5.7780   -0.5300  -14.8720 N.am   80  CYS80      -0.1968
    103  CA         6.5010   -1.6720  -14.3210 C.3    80  CYS80       0.1712
    104  C          7.9960   -1.5950  -14.6060 C.2    80  CYS80       0.2296
    105  O          8.4100   -1.4050  -15.7480 O.2    80  CYS80      -0.2864
    106  CB         5.9410   -2.9830  -14.8760 C.3    80  CYS80       0.0983
    107  SG         4.2480   -3.3400  -14.3810 S.3    80  CYS80      -0.0798
    108  N         11.6170   -3.3740  -14.9910 N.3    82  GLY82      -0.1210
    109  CA        12.0320   -4.6840  -15.4540 C.3    82  GLY82       0.1956
    110  C         11.2500   -5.1420  -16.6690 C.2    82  GLY82       0.2613
    111  O         10.4600   -4.3860  -17.2350 O.2    82  GLY82      -0.2717
    112  N         11.4620   -6.3910  -17.0660 N.am   83  SER83      -0.1938
    113  CA        10.8570   -6.9120  -18.2860 C.3    83  SER83       0.2055
    114  C          9.8330   -8.0170  -18.0320 C.2    83  SER83       0.2643
    115  O          9.6140   -8.4280  -16.8930 O.2    83  SER83      -0.2714
    116  CB        11.9450   -7.4040  -19.2400 C.3    83  SER83       0.2130
    117  OG        12.9200   -8.1540  -18.5400 O.3    83  SER83      -0.2179
    118  N          9.2090   -8.4870  -19.1080 N.am   84  SER84      -0.1949
    119  CA         8.1730   -9.5130  -19.0280 C.3    84  SER84       0.1924
    120  C          8.7360  -10.8730  -18.6270 C.2    84  SER84       0.2314
    121  O          9.9510  -11.0760  -18.5950 O.2    84  SER84      -0.2863
    122  CB         7.4610   -9.6450  -20.3730 C.3    84  SER84       0.2116
    123  OG         8.3660  -10.0920  -21.3670 O.3    84  SER84      -0.2180
    124  N         10.7240  -12.3240  -21.5560 N.3    87  HIS87      -0.1241
    125  CA        12.0910  -11.8540  -21.7410 C.3    87  HIS87       0.1621
    126  C         13.0640  -12.5640  -20.8060 C.2    87  HIS87       0.2264
    127  O         14.1760  -12.9070  -21.2010 O.2    87  HIS87      -0.2867
    128  CB        12.1710  -10.3390  -21.5400 C.3    87  HIS87       0.0745
    129  CG        13.4880   -9.7490  -21.9390 C.ar   87  HIS87       0.0817
    130  ND1       14.4780   -9.4520  -21.0260 N.ar   87  HIS87      -0.2268
    131  CD2       13.9800   -9.4100  -23.1520 C.ar   87  HIS87       0.1154
    132  CE1       15.5220   -8.9510  -21.6610 C.ar   87  HIS87       0.1986
    133  NE2       15.2460   -8.9130  -22.9530 N.ar   87  HIS87      -0.2212
    134  N          4.1810   -9.3330  -16.6160 N.3   129  PHE129     -0.1241
    135  CA         5.3430   -8.4900  -16.3590 C.3   129  PHE129      0.1605
    136  C          5.8950   -8.7370  -14.9620 C.2   129  PHE129      0.2264
    137  O          5.1380   -8.8950  -14.0060 O.2   129  PHE129     -0.2867
    138  CB         4.9820   -7.0130  -16.5370 C.3   129  PHE129      0.0534
    139  CG         4.2660   -6.7200  -17.8270 C.ar  129  PHE129     -0.0203
    140  CD1        4.9740   -6.5790  -19.0110 C.ar  129  PHE129     -0.0042
    141  CD2        2.8850   -6.5970  -17.8600 C.ar  129  PHE129     -0.0042
    142  CE1        4.3180   -6.3170  -20.2050 C.ar  129  PHE129     -0.0003
    143  CE2        2.2220   -6.3340  -19.0500 C.ar  129  PHE129     -0.0003
    144  CZ         2.9390   -6.1950  -20.2240 C.ar  129  PHE129     -0.0000
    145  N         -1.2870   -8.2350  -17.5370 N.3   139  GLY139     -0.1210
    146  CA        -1.9610   -7.2120  -18.3170 C.3   139  GLY139      0.1956
    147  C         -2.4930   -7.7270  -19.6400 C.2   139  GLY139      0.2612
    148  O         -2.5110   -8.9360  -19.8750 O.2   139  GLY139     -0.2717
    149  N         -2.9380   -6.8020  -20.4900 N.am  140  ASP140     -0.1959
    150  CA        -3.3750   -7.0940  -21.8610 C.3   140  ASP140      0.1840
    151  C         -4.6630   -7.9140  -22.0050 C.2   140  ASP140      0.2622
    152  O         -4.8710   -8.5590  -23.0320 O.2   140  ASP140     -0.2715
    153  CB        -2.2500   -7.7540  -22.6650 C.3   140  ASP140      0.1450
    154  CG        -1.4620   -6.7630  -23.4910 C.2   140  ASP140      0.3671
    155  OD1       -0.4750   -6.2010  -22.9700 O.co2 140  ASP140     -0.2456
    156  OD2       -1.8280   -6.5530  -24.6680 O.co2 140  ASP140     -0.2456
    157  N         -5.5310   -7.8800  -20.9990 N.am  141  PHE141     -0.1960
    158  CA        -6.7770   -8.6480  -21.0600 C.3   141  PHE141      0.1771
    159  C         -7.9870   -7.8110  -21.4810 C.2   141  PHE141      0.2620
    160  O         -9.0530   -8.3560  -21.7750 O.2   141  PHE141     -0.2715
    161  CB        -7.0560   -9.3650  -19.7300 C.3   141  PHE141      0.0574
    162  CG        -7.0140   -8.4630  -18.5250 C.ar  141  PHE141     -0.0200
    163  CD1       -5.8290   -8.2600  -17.8360 C.ar  141  PHE141     -0.0042
    164  CD2       -8.1620   -7.8290  -18.0770 C.ar  141  PHE141     -0.0042
    165  CE1       -5.7860   -7.4380  -16.7320 C.ar  141  PHE141     -0.0003
    166  CE2       -8.1250   -7.0050  -16.9720 C.ar  141  PHE141     -0.0003
    167  CZ        -6.9350   -6.8080  -16.3000 C.ar  141  PHE141     -0.0000
    168  N         -7.8150   -6.4930  -21.5130 N.am  142  GLY142     -0.1954
    169  CA        -8.8970   -5.5870  -21.8560 C.3   142  GLY142      0.1869
    170  C         -9.3630   -5.7380  -23.2900 C.2   142  GLY142      0.2309
    171  O         -8.6130   -5.4700  -24.2270 O.2   142  GLY142     -0.2863
@<TRIPOS>BOND
     1     9    10    1
     2     4     3    2
     3     3     2    1
     4     1     2    1
     5    12    11    2
     6     2     5    1
     7    10    11    1
     8    10    13    1
     9    26    27    1
    10    26    25    1
    11    23    24    2
    12    23    22    1
    13    27    28    1
    14    15    13    1
    15    13    14    1
    16   156   154   ar
    17    28    29    1
    18   171   170    2
    19    22    25    1
    20    22    21    1
    21     5     7    1
    22     5     6    1
    23   154   155   ar
    24   154   153    1
    25   170   169    1
    26   131   133   ar
    27   131   129   ar
    28     6     8    1
    29   152   151    2
    30   133   132   ar
    31   153   150    1
    32    64    65    1
    33    69    71    1
    34    69    68    1
    35   151   150    1
    36   151   157   am
    37   129   128    1
    38   129   130   ar
    39   150   149    1
    40   169   168    1
    41   160   159    2
    42   125   124    1
    43   125   128    1
    44   125   126    1
    45   132   130   ar
    46   168   159   am
    47   159   158    1
    48   123   122    1
    49    68    65    1
    50    68    70    1
    51   127   126    2
    52    65    66    1
    53   158   157    1
    54   158   161    1
    55    67    66    2
    56   149   147   am
    57   122   119    1
    58   144   142   ar
    59   144   143   ar
    60   142   140   ar
    61   148   147    2
    62   161   162    1
    63   147   146    1
    64    18    19    2
    65    18    17    1
    66   101   100   ar
    67   101    99   ar
    68   100    98   ar
    69    36    35    1
    70   116   117    1
    71   116   113    1
    72   118   119    1
    73   118   114   am
    74   143   141   ar
    75   119   120    1
    76   140   139   ar
    77    17    20    1
    78    17    16    1
    79   120   121    2
    80   162   164   ar
    81   162   163   ar
    82    37    35    1
    83    99    97   ar
    84    35    34    1
    85   146   145    1
    86   113   114    1
    87   113   112    1
    88    98    95   ar
    89   164   166   ar
    90   114   115    2
    91   141   139   ar
    92   163   165   ar
    93   139   138    1
    94    78    76    1
    95   111   110    2
    96    97    95   ar
    97    97    96   ar
    98    52    50    1
    99    77    76    1
   100   112   110   am
   101    95    93   ar
   102   166   167   ar
   103    72    73    1
   104    34    31    1
   105   165   167   ar
   106    30    31    1
   107   110   109    1
   108    61    59   ar
   109    61    63   ar
   110   134   135    1
   111   138   135    1
   112    76    73    1
   113   135   136    1
   114    59    58   ar
   115    31    32    1
   116    96    94   ar
   117    73    74    1
   118    63    62   ar
   119   105   104    2
   120    75    74    2
   121    50    51    1
   122    50    49    1
   123    93    94   ar
   124    93    92    1
   125   109   108    1
   126    82    81    2
   127    74    79   am
   128    49    46    1
   129   136   137    2
   130    92    89    1
   131    58    57    1
   132    58    60   ar
   133   106   107    1
   134   106   103    1
   135   102   103    1
   136   102    90   am
   137    89    90    1
   138    89    88    1
   139    32    33    2
   140   104   103    1
   141    62    60   ar
   142    57    54    1
   143    81    88   am
   144    81    80    1
   145    79    80    1
   146    90    91    2
   147    54    53    1
   148    54    55    1
   149    46    45    1
   150    46    47    1
   151    48    47    2
   152    80    83    1
   153    44    42    1
   154    55    56    2
   155    43    42    1
   156    84    83    1
   157    84    85    1
   158    42    39    1
   159    38    39    1
   160    85    86    2
   161    85    87   am
   162    39    40    1
   163    41    40    2
