@<TRIPOS>MOLECULE
tmp/4xv2B00.pdb
 202 193 0 0 0
SMALL
GASTEIGER

@<TRIPOS>ATOM
      1  N         -2.5460   -8.4570   13.4320 N.3    16  ILE16      -0.1231
      2  CA        -1.3340   -7.6570   13.2680 C.3    16  ILE16       0.1692
      3  C         -1.3480   -6.4010   14.1380 C.2    16  ILE16       0.2593
      4  O         -0.2980   -5.9190   14.5660 O.2    16  ILE16      -0.2718
      5  CB        -1.1270   -7.2800   11.7850 C.3    16  ILE16       0.0266
      6  CG1       -0.9560   -8.5440   10.9460 C.3    16  ILE16       0.0019
      7  CG2        0.0760   -6.3590   11.6020 C.3    16  ILE16       0.0020
      8  CD1       -1.7750   -8.5350    9.6890 C.3    16  ILE16       0.0001
      9  N         -2.5380   -5.8760   14.4090 N.am   17  GLY17      -0.1942
     10  CA        -2.6600   -4.6970   15.2440 C.3    17  GLY17       0.2014
     11  C         -3.8380   -3.8200   14.8770 C.2    17  GLY17       0.2640
     12  O         -4.6990   -4.2130   14.0920 O.2    17  GLY17      -0.2714
     13  N         -3.8670   -2.6220   15.4540 N.am   18  SER18      -0.1935
     14  CA        -4.9460   -1.6710   15.2180 C.3    18  SER18       0.2055
     15  C         -4.4010   -0.3120   14.7840 C.2    18  SER18       0.2643
     16  O         -3.5040    0.2370   15.4210 O.2    18  SER18      -0.2714
     17  CB        -5.7980   -1.5150   16.4790 C.3    18  SER18       0.2130
     18  OG        -6.4310   -2.7350   16.8260 O.3    18  SER18      -0.2179
     19  N         -4.9460    0.2240   13.6950 N.am   19  GLY19      -0.1954
     20  CA        -4.5290    1.5200   13.1890 C.3    19  GLY19       0.1869
     21  C         -5.4770    2.6350   13.5910 C.2    19  GLY19       0.2309
     22  O         -6.0580    2.6000   14.6790 O.2    19  GLY19      -0.2863
     23  N         -8.4080    3.3390   12.3970 N.3    21  PHE21      -0.1241
     24  CA        -9.6900    2.6780   12.6140 C.3    21  PHE21       0.1605
     25  C         -9.5790    1.1930   12.2730 C.2    21  PHE21       0.2264
     26  O         -8.7760    0.8040   11.4270 O.2    21  PHE21      -0.2867
     27  CB       -10.8080    3.3540   11.8070 C.3    21  PHE21       0.0534
     28  CG       -10.6030    3.3070   10.3160 C.ar   21  PHE21      -0.0203
     29  CD1       -9.8130    4.2520    9.6790 C.ar   21  PHE21      -0.0042
     30  CD2      -11.2120    2.3250    9.5510 C.ar   21  PHE21      -0.0042
     31  CE1       -9.6260    4.2120    8.3060 C.ar   21  PHE21      -0.0003
     32  CE2      -11.0300    2.2780    8.1780 C.ar   21  PHE21      -0.0003
     33  CZ       -10.2360    3.2240    7.5550 C.ar   21  PHE21      -0.0000
     34  N         -6.4960   -5.1080   12.0000 N.3    24  VAL24      -0.1245
     35  CA        -6.0810   -5.8370   10.8040 C.3    24  VAL24       0.1561
     36  C         -5.5050   -7.2320   11.0710 C.2    24  VAL24       0.2260
     37  O         -4.7780   -7.4510   12.0420 O.2    24  VAL24      -0.2867
     38  CB        -5.1330   -4.9930    9.9040 C.3    24  VAL24       0.0252
     39  CG1       -5.4370   -3.5110   10.0620 C.3    24  VAL24       0.0019
     40  CG2       -3.6730   -5.2630   10.2180 C.3    24  VAL24       0.0019
     41  N         -4.7360   -8.3720    3.2740 N.3    34  ALA34      -0.1245
     42  CA        -4.8530   -7.8210    4.6140 C.3    34  ALA34       0.1562
     43  C         -6.3240   -7.5330    4.8670 C.2    34  ALA34       0.2260
     44  O         -7.0120   -6.9960    4.0030 O.2    34  ALA34      -0.2867
     45  CB        -4.0260   -6.5620    4.7500 C.3    34  ALA34       0.0290
     46  N         -8.9510   -5.6440    7.3780 N.3    36  LYS36      -0.1245
     47  CA        -9.2750   -4.7490    8.4800 C.3    36  LYS36       0.1561
     48  C        -10.7410   -4.8960    8.8770 C.2    36  LYS36       0.2260
     49  O        -11.6380   -4.6220    8.0810 O.2    36  LYS36      -0.2867
     50  CB        -8.9620   -3.2990    8.1130 C.3    36  LYS36       0.0271
     51  CG        -9.4790   -2.2850    9.1190 C.3    36  LYS36       0.0035
     52  CD        -9.0860   -0.8710    8.7310 C.3    36  LYS36       0.0206
     53  CE        -7.5870   -0.6650    8.8410 C.3    36  LYS36       0.1093
     54  NZ        -7.2180    0.7600    8.6160 N.3    36  LYS36      -0.1314
     55  N        -12.3100    4.8840   -0.4530 N.3    58  LEU58      -0.1245
     56  CA       -11.2360    3.9650   -0.8170 C.3    58  LEU58       0.1561
     57  C        -11.3920    3.4030   -2.2280 C.2    58  LEU58       0.2260
     58  O        -10.4030    3.1410   -2.9130 O.2    58  LEU58      -0.2867
     59  CB       -11.1560    2.8210    0.1930 C.3    58  LEU58       0.0270
     60  CG       -10.8610    3.2290    1.6360 C.3    58  LEU58       0.0019
     61  CD1      -11.0780    2.0490    2.5680 C.3    58  LEU58       0.0001
     62  CD2       -9.4490    3.7800    1.7690 C.3    58  LEU58       0.0001
     63  N         -9.6340    5.1450   -5.1510 N.3    61  THR61      -0.1218
     64  CA        -8.1790    5.1440   -5.2410 C.3    61  THR61       0.1862
     65  C         -7.6490    4.0270   -6.1410 C.2    61  THR61       0.2287
     66  O         -7.8920    2.8500   -5.8910 O.2    61  THR61      -0.2866
     67  CB        -7.5270    5.0290   -3.8440 C.3    61  THR61       0.1770
     68  OG1       -7.9520    3.8170   -3.2070 O.3    61  THR61      -0.2211
     69  CG2       -7.9180    6.2120   -2.9740 C.3    61  THR61       0.0375
     70  N         -0.5930    4.0050   -3.4610 N.3    66  ILE66      -0.1231
     71  CA        -1.6630    3.9300   -2.4820 C.3    66  ILE66       0.1692
     72  C         -2.0210    2.4700   -2.2650 C.2    66  ILE66       0.2591
     73  O         -2.2030    1.7280   -3.2250 O.2    66  ILE66      -0.2718
     74  CB        -2.9190    4.6940   -2.9380 C.3    66  ILE66       0.0266
     75  CG1       -2.5620    6.1260   -3.3260 C.3    66  ILE66       0.0019
     76  CG2       -3.9690    4.6980   -1.8340 C.3    66  ILE66       0.0020
     77  CD1       -1.9960    6.9340   -2.1790 C.3    66  ILE66       0.0001
     78  N         -2.1010    2.0680   -1.0000 N.am   67  LEU67      -0.1980
     79  CA        -2.4640    0.7060   -0.6290 C.3    67  LEU67       0.1596
     80  C         -3.7140    0.2700   -1.3800 C.2    67  LEU67       0.2287
     81  O         -4.7050    0.9980   -1.4280 O.2    67  LEU67      -0.2864
     82  CB        -2.6980    0.6250    0.8780 C.3    67  LEU67       0.0297
     83  CG        -3.0580   -0.7350    1.4670 C.3    67  LEU67       0.0022
     84  CD1       -1.8760   -1.6970    1.3670 C.3    67  LEU67       0.0001
     85  CD2       -3.5180   -0.5710    2.9090 C.3    67  LEU67       0.0001
     86  N         -7.0490   -1.1070   -2.2650 N.3    69  PHE69      -0.1241
     87  CA        -8.3570   -1.5590   -1.8280 C.3    69  PHE69       0.1605
     88  C         -8.8150   -2.6730   -2.7630 C.2    69  PHE69       0.2264
     89  O         -8.7680   -2.5180   -3.9830 O.2    69  PHE69      -0.2867
     90  CB        -9.3380   -0.3900   -1.8760 C.3    69  PHE69       0.0534
     91  CG       -10.7750   -0.7990   -1.7780 C.ar   69  PHE69      -0.0203
     92  CD1      -11.3390   -1.1040   -0.5490 C.ar   69  PHE69      -0.0042
     93  CD2      -11.5670   -0.8650   -2.9130 C.ar   69  PHE69      -0.0042
     94  CE1      -12.6640   -1.4780   -0.4520 C.ar   69  PHE69      -0.0003
     95  CE2      -12.8960   -1.2370   -2.8270 C.ar   69  PHE69      -0.0003
     96  CZ       -13.4470   -1.5430   -1.5940 C.ar   69  PHE69      -0.0000
     97  N        -12.7660   -4.6380    5.5720 N.3    80  ILE80      -0.1245
     98  CA       -12.2080   -4.0960    4.3460 C.3    80  ILE80       0.1561
     99  C        -10.9820   -4.9000    3.9390 C.2    80  ILE80       0.2260
    100  O        -10.0430   -5.0630    4.7170 O.2    80  ILE80      -0.2867
    101  CB       -11.8380   -2.6130    4.4920 C.3    80  ILE80       0.0252
    102  CG1      -13.0790   -1.7950    4.8480 C.3    80  ILE80       0.0019
    103  CG2      -11.2200   -2.0940    3.2050 C.3    80  ILE80       0.0019
    104  CD1      -12.7910   -0.3410    5.1460 C.3    80  ILE80       0.0001
    105  N         -7.6580   -5.5330    1.6560 N.3    82  THR82      -0.1203
    106  CA        -6.6350   -4.8510    0.8810 C.3    82  THR82       0.1994
    107  C         -5.5610   -5.8330    0.4450 C.2    82  THR82       0.2618
    108  O         -5.5750   -7.0020    0.8380 O.2    82  THR82      -0.2717
    109  CB        -5.9660   -3.7200    1.6880 C.3    82  THR82       0.1784
    110  OG1       -5.0970   -4.2840    2.6800 O.3    82  THR82      -0.2211
    111  CG2       -7.0130   -2.8530    2.3630 C.3    82  THR82       0.0376
    112  N         -4.6280   -5.3510   -0.3660 N.am   83  GLN83      -0.1965
    113  CA        -3.4760   -6.1500   -0.7470 C.3    83  GLN83       0.1733
    114  C         -2.5940   -6.3800    0.4700 C.2    83  GLN83       0.2616
    115  O         -2.6680   -5.6460    1.4600 O.2    83  GLN83      -0.2715
    116  CB        -2.6710   -5.4510   -1.8430 C.3    83  GLN83       0.0408
    117  CG        -1.9460   -4.2010   -1.3750 C.3    83  GLN83       0.0908
    118  CD        -1.1010   -3.5720   -2.4650 C.2    83  GLN83       0.2608
    119  OE1       -1.2710   -2.3990   -2.8000 O.2    83  GLN83      -0.2717
    120  NE2       -0.1740   -4.3450   -3.0150 N.am   83  GLN83      -0.0878
    121  N         -1.7520   -7.4010    0.3920 N.am   84  TRP84      -0.1960
    122  CA        -0.8090   -7.6630    1.4620 C.3    84  TRP84       0.1771
    123  C          0.5710   -7.1170    1.1130 C.2    84  TRP84       0.2619
    124  O          1.1330   -7.4390    0.0690 O.2    84  TRP84      -0.2715
    125  CB        -0.7320   -9.1560    1.7650 C.3    84  TRP84       0.0590
    126  CG         0.2390   -9.4590    2.8420 C.ar   84  TRP84       0.0006
    127  CD1        1.4810   -9.9930    2.6940 C.ar   84  TRP84       0.0946
    128  CD2        0.0670   -9.2190    4.2440 C.ar   84  TRP84       0.0152
    129  NE1        2.0910  -10.1140    3.9160 N.ar   84  TRP84      -0.2442
    130  CE2        1.2430   -9.6450    4.8850 C.ar   84  TRP84       0.0810
    131  CE3       -0.9710   -8.6910    5.0180 C.ar   84  TRP84       0.0012
    132  CZ2        1.4150   -9.5620    6.2640 C.ar   84  TRP84       0.0191
    133  CZ3       -0.8000   -8.6090    6.3870 C.ar   84  TRP84       0.0001
    134  CH2        0.3840   -9.0430    6.9960 C.ar   84  TRP84       0.0015
    135  N          1.1080   -6.2810    1.9930 N.am   85  CYS85      -0.1968
    136  CA         2.4380   -5.7210    1.8000 C.3    85  CYS85       0.1712
    137  C          3.4830   -6.5860    2.4820 C.2    85  CYS85       0.2296
    138  O          3.3150   -6.9940    3.6280 O.2    85  CYS85      -0.2864
    139  CB         2.5090   -4.2930    2.3440 C.3    85  CYS85       0.0983
    140  SG         1.4290   -3.1320    1.4920 S.3    85  CYS85      -0.0798
    141  N          7.2440   -6.9490    4.0060 N.3    87  GLY87      -0.1225
    142  CA         8.2630   -6.1040    4.5950 C.3    87  GLY87       0.1811
    143  C          7.7320   -5.3230    5.7750 C.2    87  GLY87       0.2280
    144  O          6.7720   -5.7350    6.4220 O.2    87  GLY87      -0.2866
    145  N          4.9100    5.6240    9.8880 N.3   131  ASN131     -0.1225
    146  CA         4.2850    4.4090   10.3810 C.3   131  ASN131      0.1785
    147  C          3.2630    3.8780    9.3770 C.2   131  ASN131      0.2597
    148  O          3.0380    2.6720    9.2840 O.2   131  ASN131     -0.2718
    149  CB         3.5890    4.7190   11.7060 C.3   131  ASN131      0.1169
    150  CG         3.5070    3.5200   12.6180 C.2   131  ASN131      0.2627
    151  OD1        4.4570    2.7430   12.7320 O.2   131  ASN131     -0.2716
    152  ND2        2.3670    3.3600   13.2810 N.am  131  ASN131     -0.0877
    153  N          2.6500    4.7980    8.6340 N.am  132  ASN132     -0.1974
    154  CA         1.6080    4.4790    7.6620 C.3   132  ASN132      0.1688
    155  C          2.1580    4.2390    6.2570 C.2   132  ASN132      0.2292
    156  O          1.3970    4.0140    5.3200 O.2   132  ASN132     -0.2864
    157  CB         0.5810    5.6190    7.5960 C.3   132  ASN132      0.1181
    158  CG        -0.0910    5.8860    8.9260 C.2   132  ASN132      0.2629
    159  OD1        0.3430    5.3970    9.9650 O.2   132  ASN132     -0.2716
    160  ND2       -1.1670    6.6610    8.8960 N.am  132  ASN132     -0.0877
    161  N          4.1930    1.8600    4.0360 N.3   134  PHE134     -0.1241
    162  CA         4.7300    0.5070    3.9500 C.3   134  PHE134      0.1605
    163  C          5.6530    0.3330    2.7470 C.2   134  PHE134      0.2264
    164  O          5.2640    0.6000    1.6130 O.2   134  PHE134     -0.2867
    165  CB         3.5990   -0.5250    3.8750 C.3   134  PHE134      0.0534
    166  CG         2.4590   -0.2590    4.8180 C.ar  134  PHE134     -0.0203
    167  CD1        2.6640   -0.2210    6.1880 C.ar  134  PHE134     -0.0042
    168  CD2        1.1750   -0.0680    4.3320 C.ar  134  PHE134     -0.0042
    169  CE1        1.6120    0.0170    7.0540 C.ar  134  PHE134     -0.0003
    170  CE2        0.1200    0.1720    5.1920 C.ar  134  PHE134     -0.0003
    171  CZ         0.3380    0.2140    6.5550 C.ar  134  PHE134     -0.0000
    172  N          0.9280    3.8200    0.7340 N.3   143  ILE143     -0.1231
    173  CA         0.3420    4.6540    1.7710 C.3   143  ILE143      0.1692
    174  C         -0.9790    4.0640    2.2330 C.2   143  ILE143      0.2593
    175  O         -1.8540    3.7610    1.4210 O.2   143  ILE143     -0.2718
    176  CB         0.1200    6.0920    1.2730 C.3   143  ILE143      0.0266
    177  CG1        1.4600    6.7560    0.9590 C.3   143  ILE143      0.0019
    178  CG2       -0.6390    6.9040    2.3050 C.3   143  ILE143      0.0020
    179  CD1        1.3290    8.0570    0.2010 C.3   143  ILE143      0.0001
    180  N         -1.1150    3.8940    3.5430 N.am  144  GLY144     -0.1942
    181  CA        -2.3320    3.3460    4.1020 C.3   144  GLY144      0.2014
    182  C         -2.7210    4.0090    5.4010 C.2   144  GLY144      0.2639
    183  O         -2.1900    5.0630    5.7600 O.2   144  GLY144     -0.2714
    184  N         -3.6630    3.3800    6.0960 N.am  145  ASP145     -0.1957
    185  CA        -4.0970    3.8070    7.4160 C.3   145  ASP145      0.1840
    186  C         -4.5960    5.2510    7.4270 C.2   145  ASP145      0.2622
    187  O         -4.0440    6.1050    8.1180 O.2   145  ASP145     -0.2715
    188  CB        -2.9690    3.6070    8.4320 C.3   145  ASP145      0.1450
    189  CG        -3.4690    3.5960    9.8570 C.2   145  ASP145      0.3671
    190  OD1       -4.6850    3.3900   10.0610 O.co2 145  ASP145     -0.2456
    191  OD2       -2.6440    3.7850   10.7740 O.co2 145  ASP145     -0.2456
    192  N         -5.6510    5.5150    6.6650 N.am  146  PHE146     -0.1974
    193  CA        -6.2240    6.8520    6.6170 C.3   146  PHE146      0.1639
    194  C         -6.9840    7.1400    7.9050 C.2   146  PHE146      0.2290
    195  O         -7.1670    6.2580    8.7420 O.2   146  PHE146     -0.2864
    196  CB        -7.1870    7.0000    5.4340 C.3   146  PHE146      0.0560
    197  CG        -6.5450    6.8290    4.0850 C.ar  146  PHE146     -0.0200
    198  CD1       -5.1760    6.6640    3.9550 C.ar  146  PHE146     -0.0042
    199  CD2       -7.3220    6.8420    2.9400 C.ar  146  PHE146     -0.0042
    200  CE1       -4.5980    6.5050    2.7120 C.ar  146  PHE146     -0.0003
    201  CE2       -6.7490    6.6880    1.6950 C.ar  146  PHE146     -0.0003
    202  CZ        -5.3860    6.5200    1.5800 C.ar  146  PHE146     -0.0000
@<TRIPOS>BOND
     1    65    66    2
     2    65    64    1
     3    64    63    1
     4    64    67    1
     5    89    88    2
     6    67    68    1
     7    67    69    1
     8    70    71    1
     9    75    74    1
    10    75    77    1
    11    73    72    2
    12   120   118   am
    13    74    71    1
    14    74    76    1
    15    93    95   ar
    16    93    91   ar
    17    58    57    2
    18    95    96   ar
    19   119   118    2
    20    88    87    1
    21    71    72    1
    22   118   117    1
    23    86    87    1
    24    72    78   am
    25    57    56    1
    26    90    87    1
    27    90    91    1
    28   116   117    1
    29   116   113    1
    30    91    92   ar
    31    96    94   ar
    32    81    80    2
    33    80    79    1
    34    78    79    1
    35    56    55    1
    36    56    59    1
    37   113   112    1
    38   113   114    1
    39    79    82    1
    40    92    94   ar
    41   112   107   am
    42   124   123    2
    43    59    60    1
    44   179   177    1
    45   121   114   am
    46   121   122    1
    47   107   108    2
    48   107   106    1
    49   114   115    2
    50   172   173    1
    51    82    83    1
    52   106   105    1
    53   106   109    1
    54   177   176    1
    55   123   122    1
    56   123   135   am
    57   176   173    1
    58   176   178    1
    59    84    83    1
    60   175   174    2
    61   122   125    1
    62    83    85    1
    63   140   139    1
    64   202   201   ar
    65   202   200   ar
    66   164   163    2
    67    60    62    1
    68    60    61    1
    69   109   111    1
    70   109   110    1
    71   201   199   ar
    72   125   126    1
    73   173   174    1
    74   136   135    1
    75   136   139    1
    76   136   137    1
    77   174   180   am
    78   137   138    2
    79   127   126   ar
    80   127   129   ar
    81   200   198   ar
    82   163   162    1
    83   126   128   ar
    84   199   197   ar
    85   103   101    1
    86    41    42    1
    87   180   181    1
    88   165   162    1
    89   165   166    1
    90   129   130   ar
    91    99    98    1
    92    99   100    2
    93   162   161    1
    94   198   197   ar
    95    44    43    2
    96   141   142    1
    97   197   196    1
    98   181   182    1
    99   128   130   ar
   100   128   131   ar
   101   168   166   ar
   102   168   170   ar
   103    98   101    1
   104    98    97    1
   105   101   102    1
   106   142   143    1
   107    42    45    1
   108    42    43    1
   109   166   167   ar
   110   102   104    1
   111   130   132   ar
   112   131   133   ar
   113   170   171   ar
   114   156   155    2
   115   182   183    2
   116   182   184   am
   117   196   193    1
   118   143   144    2
   119   184   185    1
   120   167   169   ar
   121   155   154    1
   122   132   134   ar
   123   133   134   ar
   124   171   169   ar
   125   193   192    1
   126   193   194    1
   127   192   186   am
   128    46    47    1
   129   185   186    1
   130   185   188    1
   131   186   187    2
   132    33    32   ar
   133    33    31   ar
   134   157   154    1
   135   157   158    1
   136   154   153    1
   137   194   195    2
   138    49    48    2
   139    50    47    1
   140    50    51    1
   141    32    30   ar
   142    31    29   ar
   143   188   189    1
   144    47    48    1
   145    54    53    1
   146   153   147   am
   147    52    53    1
   148    52    51    1
   149   160   158   am
   150   158   159    2
   151   148   147    2
   152   147   146    1
   153    30    28   ar
   154    29    28   ar
   155     8     6    1
   156   189   190   ar
   157   189   191   ar
   158   145   146    1
   159    38    39    1
   160    38    40    1
   161    38    35    1
   162    28    27    1
   163   146   149    1
   164    35    36    1
   165    35    34    1
   166     6     5    1
   167    36    37    2
   168    26    25    2
   169     7     5    1
   170   149   150    1
   171     5     2    1
   172    27    24    1
   173    25    24    1
   174    23    24    1
   175   150   151    2
   176   150   152   am
   177    20    21    1
   178    20    19    1
   179     2     1    1
   180     2     3    1
   181    21    22    2
   182    19    15   am
   183    12    11    2
   184     3     9   am
   185     3     4    2
   186     9    10    1
   187    15    14    1
   188    15    16    2
   189    11    10    1
   190    11    13   am
   191    14    13    1
   192    14    17    1
   193    17    18    1
