@<TRIPOS>MOLECULE
tmp/4xv3A00.pdb
 175 166 0 0 0
SMALL
GASTEIGER

@<TRIPOS>ATOM
      1  N          7.6660    2.3110  -26.3460 N.3    16  ILE16      -0.1231
      2  CA         8.1930    1.0590  -25.8160 C.3    16  ILE16       0.1692
      3  C          7.9440   -0.0960  -26.7810 C.2    16  ILE16       0.2593
      4  O          8.8640   -0.8380  -27.1290 O.2    16  ILE16      -0.2718
      5  CB         7.5780    0.7250  -24.4430 C.3    16  ILE16       0.0266
      6  CG1        7.9200    1.8170  -23.4280 C.3    16  ILE16       0.0019
      7  CG2        8.0610   -0.6320  -23.9540 C.3    16  ILE16       0.0020
      8  CD1        9.4070    2.0350  -23.2470 C.3    16  ILE16       0.0001
      9  N          6.6960   -0.2380  -27.2130 N.am   17  GLY17      -0.1942
     10  CA         6.3170   -1.2960  -28.1310 C.3    17  GLY17       0.2014
     11  C          4.9880   -1.0100  -28.8010 C.2    17  GLY17       0.2639
     12  O          4.3000   -0.0510  -28.4490 O.2    17  GLY17      -0.2714
     13  N          4.6250   -1.8420  -29.7720 N.am   18  SER18      -0.1949
     14  CA         3.3700   -1.6720  -30.4960 C.3    18  SER18       0.1924
     15  C          2.2990   -2.6290  -29.9820 C.2    18  SER18       0.2314
     16  O          2.5190   -3.8370  -29.8950 O.2    18  SER18      -0.2863
     17  CB         3.5830   -1.8780  -31.9960 C.3    18  SER18       0.2116
     18  OG         2.3770   -1.6760  -32.7130 O.3    18  SER18      -0.2180
     19  N          2.3500    1.3200  -27.0340 N.3    21  VAL21      -0.1245
     20  CA         2.6350    1.5530  -25.6210 C.3    21  VAL21       0.1561
     21  C          3.7900    2.5300  -25.4040 C.2    21  VAL21       0.2260
     22  O          4.8760    2.3570  -25.9570 O.2    21  VAL21      -0.2867
     23  CB         2.9370    0.2320  -24.8780 C.3    21  VAL21       0.0252
     24  CG1        3.3490    0.5120  -23.4390 C.3    21  VAL21       0.0019
     25  CG2        1.7280   -0.6910  -24.9230 C.3    21  VAL21       0.0019
     26  N          2.1860    4.2200  -17.7270 N.3    31  ALA31      -0.1245
     27  CA         2.2400    3.5850  -19.0340 C.3    31  ALA31       0.1562
     28  C          1.0030    3.9750  -19.8280 C.2    31  ALA31       0.2260
     29  O         -0.1160    3.9100  -19.3210 O.2    31  ALA31      -0.2867
     30  CB         2.3280    2.0790  -18.8910 C.3    31  ALA31       0.0290
     31  N         -1.1600    3.3230  -23.3120 N.3    33  LYS33      -0.1245
     32  CA        -1.4340    2.5630  -24.5240 C.3    33  LYS33       0.1561
     33  C         -2.2990    3.3740  -25.4820 C.2    33  LYS33       0.2260
     34  O         -3.5150    3.4570  -25.3200 O.2    33  LYS33      -0.2867
     35  CB        -2.1020    1.2210  -24.2080 C.3    33  LYS33       0.0271
     36  CG        -2.3940    0.3880  -25.4530 C.3    33  LYS33       0.0035
     37  CD        -3.1980   -0.8630  -25.1440 C.3    33  LYS33       0.0206
     38  CE        -2.3350   -1.9470  -24.5180 C.3    33  LYS33       0.1093
     39  NZ        -3.1130   -3.1970  -24.2740 N.3    33  LYS33      -0.1314
     40  N        -11.8880   -3.1170  -16.9590 N.3    53  LEU53      -0.1245
     41  CA       -10.6140   -2.9130  -16.2860 C.3    53  LEU53       0.1561
     42  C        -10.8720   -2.1830  -14.9730 C.2    53  LEU53       0.2260
     43  O        -10.0670   -2.2350  -14.0420 O.2    53  LEU53      -0.2867
     44  CB        -9.6800   -2.0820  -17.1630 C.3    53  LEU53       0.0270
     45  CG        -9.5840   -2.4990  -18.6300 C.3    53  LEU53       0.0019
     46  CD1       -9.0190   -1.3720  -19.4830 C.3    53  LEU53       0.0001
     47  CD2       -8.7500   -3.7580  -18.7810 C.3    53  LEU53       0.0001
     48  N        -10.7810   -4.2160  -11.5210 N.3    56  THR56      -0.1218
     49  CA        -9.5840   -4.9790  -11.1890 C.3    56  THR56       0.1862
     50  C         -8.7550   -4.2830  -10.1110 C.2    56  THR56       0.2287
     51  O         -7.9880   -3.3640  -10.4000 O.2    56  THR56      -0.2866
     52  CB        -8.6960   -5.2180  -12.4260 C.3    56  THR56       0.1770
     53  OG1       -8.4330   -3.9690  -13.0800 O.3    56  THR56      -0.2211
     54  CG2       -9.3790   -6.1660  -13.3990 C.3    56  THR56       0.0375
     55  N         -2.1040   -6.0200  -13.4780 N.3    62  LEU62      -0.1245
     56  CA        -1.5630   -4.7000  -13.7980 C.3    62  LEU62       0.1561
     57  C         -2.5260   -3.6140  -13.3280 C.2    62  LEU62       0.2260
     58  O         -3.7180   -3.6610  -13.6290 O.2    62  LEU62      -0.2867
     59  CB        -1.3080   -4.5660  -15.3040 C.3    62  LEU62       0.0270
     60  CG        -0.6530   -3.2620  -15.7740 C.3    62  LEU62       0.0019
     61  CD1        0.7380   -3.1280  -15.1790 C.3    62  LEU62       0.0001
     62  CD2       -0.5980   -3.1680  -17.2980 C.3    62  LEU62       0.0001
     63  N         -4.6690   -0.7130  -13.3360 N.3    64  PHE64      -0.1241
     64  CA        -5.3370    0.2520  -14.2000 C.3    64  PHE64       0.1605
     65  C         -5.4970    1.5690  -13.4470 C.2    64  PHE64       0.2264
     66  O         -6.0550    1.5970  -12.3520 O.2    64  PHE64      -0.2867
     67  CB        -6.7010   -0.2840  -14.6380 C.3    64  PHE64       0.0534
     68  CG        -7.6680    0.7850  -15.0660 C.ar   64  PHE64      -0.0203
     69  CD1       -7.5540    1.3890  -16.3080 C.ar   64  PHE64      -0.0042
     70  CD2       -8.7030    1.1720  -14.2300 C.ar   64  PHE64      -0.0042
     71  CE1       -8.4490    2.3670  -16.7040 C.ar   64  PHE64      -0.0003
     72  CE2       -9.6010    2.1490  -14.6170 C.ar   64  PHE64      -0.0003
     73  CZ        -9.4740    2.7460  -15.8560 C.ar   64  PHE64      -0.0000
     74  N         -5.1300    4.0500  -22.7570 N.3    75  ILE75      -0.1245
     75  CA        -5.2710    3.3680  -21.4810 C.3    75  ILE75       0.1561
     76  C         -4.0690    3.7110  -20.6090 C.2    75  ILE75       0.2260
     77  O         -2.9240    3.6140  -21.0530 O.2    75  ILE75      -0.2867
     78  CB        -5.3370    1.8370  -21.6660 C.3    75  ILE75       0.0252
     79  CG1       -6.4910    1.4510  -22.5950 C.3    75  ILE75       0.0019
     80  CG2       -5.4830    1.1480  -20.3280 C.3    75  ILE75       0.0019
     81  CD1       -7.8620    1.7370  -22.0240 C.3    75  ILE75       0.0001
     82  N         -1.9090    2.9340  -17.1670 N.3    77  THR77      -0.1203
     83  CA        -1.6250    2.0020  -16.0800 C.3    77  THR77       0.1994
     84  C         -0.3470    2.3810  -15.3460 C.2    77  THR77       0.2618
     85  O          0.3370    3.3390  -15.7160 O.2    77  THR77      -0.2717
     86  CB        -1.4730    0.5440  -16.5820 C.3    77  THR77       0.1784
     87  OG1       -0.3350    0.4440  -17.4490 O.3    77  THR77      -0.2211
     88  CG2       -2.7230    0.0880  -17.3180 C.3    77  THR77       0.0376
     89  N         -0.0280    1.6130  -14.3070 N.am   78  GLN78      -0.1965
     90  CA         1.2260    1.7770  -13.5870 C.3    78  GLN78       0.1733
     91  C          2.3930    1.4410  -14.5060 C.2    78  GLN78       0.2616
     92  O          2.2290    0.7320  -15.5000 O.2    78  GLN78      -0.2715
     93  CB         1.2630    0.8570  -12.3650 C.3    78  GLN78       0.0408
     94  CG         1.3070   -0.6220  -12.7180 C.3    78  GLN78       0.0908
     95  CD         1.4320   -1.5200  -11.5040 C.2    78  GLN78       0.2608
     96  OE1        0.5790   -2.3700  -11.2600 O.2    78  GLN78      -0.2717
     97  NE2        2.5040   -1.3430  -10.7410 N.am   78  GLN78      -0.0878
     98  N          3.5710    1.9520  -14.1740 N.am   79  TRP79      -0.1960
     99  CA         4.7730    1.6050  -14.9140 C.3    79  TRP79       0.1771
    100  C          5.4910    0.4540  -14.2230 C.2    79  TRP79       0.2619
    101  O          5.6530    0.4560  -13.0040 O.2    79  TRP79      -0.2715
    102  CB         5.7040    2.8100  -15.0400 C.3    79  TRP79       0.0590
    103  CG         6.9440    2.5070  -15.8130 C.ar   79  TRP79       0.0006
    104  CD1        8.2090    2.3820  -15.3190 C.ar   79  TRP79       0.0946
    105  CD2        7.0380    2.2730  -17.2210 C.ar   79  TRP79       0.0152
    106  NE1        9.0880    2.0930  -16.3360 N.ar   79  TRP79      -0.2442
    107  CE2        8.3930    2.0200  -17.5140 C.ar   79  TRP79       0.0810
    108  CE3        6.1070    2.2560  -18.2650 C.ar   79  TRP79       0.0012
    109  CZ2        8.8400    1.7540  -18.8060 C.ar   79  TRP79       0.0191
    110  CZ3        6.5520    1.9930  -19.5470 C.ar   79  TRP79       0.0001
    111  CH2        7.9070    1.7460  -19.8060 C.ar   79  TRP79       0.0015
    112  N          5.9160   -0.5310  -15.0040 N.am   80  CYS80      -0.1968
    113  CA         6.5980   -1.6920  -14.4490 C.3    80  CYS80       0.1712
    114  C          8.0950   -1.6590  -14.7290 C.2    80  CYS80       0.2296
    115  O          8.5210   -1.6000  -15.8830 O.2    80  CYS80      -0.2864
    116  CB         5.9890   -2.9850  -14.9960 C.3    80  CYS80       0.0983
    117  SG         4.2610   -3.2410  -14.5350 S.3    80  CYS80      -0.0798
    118  N         11.5680   -3.4080  -15.1120 N.3    82  GLY82      -0.1225
    119  CA        12.0150   -4.7340  -15.4990 C.3    82  GLY82       0.1811
    120  C         11.3100   -5.2250  -16.7460 C.2    82  GLY82       0.2280
    121  O         10.4530   -4.5300  -17.2930 O.2    82  GLY82      -0.2866
    122  N          4.6150  -12.9910  -22.1890 N.3   128  ASN128     -0.1225
    123  CA         4.9210  -11.5900  -22.4650 C.3   128  ASN128      0.1785
    124  C          3.7600  -10.6550  -22.1320 C.2   128  ASN128      0.2597
    125  O          3.8250   -9.4540  -22.3930 O.2   128  ASN128     -0.2718
    126  CB         5.3940  -11.3940  -23.9090 C.3   128  ASN128      0.1169
    127  CG         4.5630  -12.1690  -24.9060 C.2   128  ASN128      0.2627
    128  OD1        4.1510  -13.2990  -24.6430 O.2   128  ASN128     -0.2716
    129  ND2        4.3140  -11.5670  -26.0630 N.am  128  ASN128     -0.0877
    130  N          2.6980  -11.2170  -21.5640 N.am  129  ASN129     -0.1974
    131  CA         1.6380  -10.4190  -20.9580 C.3   129  ASN129      0.1688
    132  C          1.7720  -10.4760  -19.4420 C.2   129  ASN129      0.2292
    133  O          0.9350   -9.9560  -18.7030 O.2   129  ASN129     -0.2864
    134  CB         0.2540  -10.9030  -21.3980 C.3   129  ASN129      0.1181
    135  CG        -0.0890  -10.4800  -22.8140 C.2   129  ASN129      0.2629
    136  OD1        0.5240   -9.5660  -23.3670 O.2   129  ASN129     -0.2716
    137  ND2       -1.0790  -11.1390  -23.4050 N.am  129  ASN129     -0.0877
    138  N          4.3530   -9.3580  -16.6050 N.3   131  PHE131     -0.1241
    139  CA         5.5060   -8.5050  -16.3540 C.3   131  PHE131      0.1605
    140  C          6.0180   -8.6760  -14.9270 C.2   131  PHE131      0.2264
    141  O          5.2530   -8.5800  -13.9690 O.2   131  PHE131     -0.2867
    142  CB         5.1490   -7.0390  -16.6200 C.3   131  PHE131      0.0534
    143  CG         4.2580   -6.8390  -17.8170 C.ar  131  PHE131     -0.0203
    144  CD1        4.7840   -6.8380  -19.1010 C.ar  131  PHE131     -0.0042
    145  CD2        2.8930   -6.6540  -17.6580 C.ar  131  PHE131     -0.0042
    146  CE1        3.9630   -6.6580  -20.2040 C.ar  131  PHE131     -0.0003
    147  CE2        2.0680   -6.4730  -18.7560 C.ar  131  PHE131     -0.0003
    148  CZ         2.6040   -6.4750  -20.0310 C.ar  131  PHE131     -0.0000
    149  N         -1.2380   -8.3610  -17.5520 N.3   141  GLY141     -0.1210
    150  CA        -1.9010   -7.3050  -18.2930 C.3   141  GLY141      0.1956
    151  C         -2.3350   -7.7470  -19.6760 C.2   141  GLY141      0.2612
    152  O         -2.2620   -8.9310  -20.0090 O.2   141  GLY141     -0.2717
    153  N         -2.7950   -6.7860  -20.4720 N.am  142  ASP142     -0.1959
    154  CA        -3.1820   -7.0150  -21.8640 C.3   142  ASP142      0.1840
    155  C         -4.3330   -8.0160  -22.0200 C.2   142  ASP142      0.2622
    156  O         -4.2600   -8.9380  -22.8330 O.2   142  ASP142     -0.2715
    157  CB        -1.9680   -7.4380  -22.7010 C.3   142  ASP142      0.1450
    158  CG        -2.1880   -7.2500  -24.1900 C.2   142  ASP142      0.3671
    159  OD1       -3.0950   -6.4770  -24.5660 O.co2 142  ASP142     -0.2456
    160  OD2       -1.4500   -7.8720  -24.9840 O.co2 142  ASP142     -0.2456
    161  N         -5.3970   -7.8280  -21.2420 N.am  143  PHE143     -0.1960
    162  CA        -6.5820   -8.6780  -21.3530 C.3   143  PHE143      0.1771
    163  C         -7.8060   -7.9040  -21.8400 C.2   143  PHE143      0.2620
    164  O         -8.8220   -8.4980  -22.2040 O.2   143  PHE143     -0.2715
    165  CB        -6.8830   -9.3920  -20.0260 C.3   143  PHE143      0.0574
    166  CG        -6.8330   -8.4940  -18.8200 C.ar  143  PHE143     -0.0200
    167  CD1       -5.6590   -8.3520  -18.0960 C.ar  143  PHE143     -0.0042
    168  CD2       -7.9610   -7.8020  -18.4030 C.ar  143  PHE143     -0.0042
    169  CE1       -5.6070   -7.5310  -16.9860 C.ar  143  PHE143     -0.0003
    170  CE2       -7.9140   -6.9780  -17.2940 C.ar  143  PHE143     -0.0003
    171  CZ        -6.7350   -6.8440  -16.5850 C.ar  143  PHE143     -0.0000
    172  N         -7.6980   -6.5780  -21.8530 N.am  144  GLY144     -0.1954
    173  CA        -8.7890   -5.7260  -22.2910 C.3   144  GLY144      0.1869
    174  C         -9.1230   -5.9070  -23.7600 C.2   144  GLY144      0.2309
    175  O         -8.5780   -5.2150  -24.6180 O.2   144  GLY144     -0.2863
@<TRIPOS>BOND
     1    18    17    1
     2    17    14    1
     3    14    15    1
     4    14    13    1
     5    15    16    2
     6    13    11   am
     7    11    12    2
     8    11    10    1
     9    10     9    1
    10     9     3   am
    11     4     3    2
    12    19    20    1
    13     3     2    1
    14     1     2    1
    15   129   127   am
    16    22    21    2
    17     2     5    1
    18    20    21    1
    19    20    23    1
    20    33    34    2
    21    33    32    1
    22    36    37    1
    23    36    35    1
    24    37    38    1
    25   160   158   ar
    26    25    23    1
    27   127   128    2
    28   127   126    1
    29    23    24    1
    30   175   174    2
    31   159   158   ar
    32    32    35    1
    33    32    31    1
    34    38    39    1
    35     5     7    1
    36     5     6    1
    37   158   157    1
    38   126   123    1
    39   174   173    1
    40     6     8    1
    41   137   135   am
    42   136   135    2
    43   156   155    2
    44   135   134    1
    45    74    75    1
    46   157   154    1
    47    79    81    1
    48    79    78    1
    49   123   122    1
    50   123   124    1
    51   125   124    2
    52   173   172    1
    53   164   163    2
    54   124   130   am
    55   155   154    1
    56   155   161   am
    57   154   153    1
    58   172   163   am
    59   163   162    1
    60    78    75    1
    61    78    80    1
    62   130   131    1
    63    75    76    1
    64   134   131    1
    65   162   161    1
    66   162   165    1
    67    77    76    2
    68   131   132    1
    69   153   151   am
    70   146   148   ar
    71   146   144   ar
    72   148   147   ar
    73   165   166    1
    74   152   151    2
    75    28    29    2
    76    28    27    1
    77   111   110   ar
    78   111   109   ar
    79   151   150    1
    80   110   108   ar
    81    46    45    1
    82   132   133    2
    83   144   143   ar
    84    27    30    1
    85    27    26    1
    86   166   168   ar
    87   166   167   ar
    88   109   107   ar
    89    47    45    1
    90   147   145   ar
    91    45    44    1
    92   168   170   ar
    93   150   149    1
    94   108   105   ar
    95   167   169   ar
    96   143   145   ar
    97   143   142    1
    98   107   105   ar
    99   107   106   ar
   100    87    86    1
   101    88    86    1
   102    62    60    1
   103   170   171   ar
   104   121   120    2
   105   105   103   ar
   106    82    83    1
   107    44    41    1
   108   169   171   ar
   109    40    41    1
   110   120   119    1
   111    71    69   ar
   112    71    73   ar
   113   142   139    1
   114   138   139    1
   115    86    83    1
   116   139   140    1
   117   106   104   ar
   118    69    68   ar
   119    41    42    1
   120    83    84    1
   121   115   114    2
   122    73    72   ar
   123   103   104   ar
   124   103   102    1
   125    60    59    1
   126    60    61    1
   127    85    84    2
   128    92    91    2
   129   119   118    1
   130    84    89   am
   131    59    56    1
   132    68    67    1
   133    68    70   ar
   134   102    99    1
   135   112   113    1
   136   112   100   am
   137   116   117    1
   138   116   113    1
   139    42    43    2
   140   140   141    2
   141    99   100    1
   142    99    98    1
   143   114   113    1
   144    67    64    1
   145    72    70   ar
   146    91    98   am
   147    91    90    1
   148    89    90    1
   149   100   101    2
   150    64    65    1
   151    64    63    1
   152    56    55    1
   153    56    57    1
   154    58    57    2
   155    90    93    1
   156    65    66    2
   157    54    52    1
   158    53    52    1
   159    94    93    1
   160    94    95    1
   161    52    49    1
   162    48    49    1
   163    95    96    2
   164    95    97   am
   165    49    50    1
   166    51    50    2
