@<TRIPOS>MOLECULE
tmp/4xv4A01.pdb
 87 83 0 0 0
SMALL
GASTEIGER

@<TRIPOS>ATOM
      1  N        -36.1500  -68.9510   -1.7580 N.3   172  HIS172     -0.1226
      2  CA       -35.5660  -69.9400   -2.6460 C.3   172  HIS172      0.1752
      3  C        -34.1360  -69.6290   -3.0740 C.2   172  HIS172      0.2596
      4  O        -33.5630  -70.3940   -3.7660 O.2   172  HIS172     -0.2718
      5  CB       -36.4690  -70.2250   -3.8330 C.3   172  HIS172      0.0759
      6  CG       -37.5480  -71.1980   -3.5150 C.ar  172  HIS172      0.0818
      7  ND1      -38.5490  -71.5160   -4.3930 N.ar  172  HIS172     -0.2268
      8  CD2      -37.7810  -71.9200   -2.4000 C.ar  172  HIS172      0.1154
      9  CE1      -39.3410  -72.3980   -3.8360 C.ar  172  HIS172      0.1986
     10  NE2      -38.8850  -72.6750   -2.6450 N.ar  172  HIS172     -0.2212
     11  N        -33.6110  -68.4960   -2.6530 N.am  173  ALA173     -0.1966
     12  CA       -32.1340  -68.2720   -2.7020 C.3   173  ALA173      0.1728
     13  C        -31.3610  -69.1970   -1.7780 C.2   173  ALA173      0.2616
     14  O        -30.1530  -69.3160   -1.9000 O.2   173  ALA173     -0.2715
     15  CB       -31.7570  -66.8170   -2.3310 C.3   173  ALA173      0.0334
     16  N        -32.0440  -69.7740   -0.8050 N.am  174  LEU174     -0.1963
     17  CA       -31.3990  -70.5340    0.2780 C.3   174  LEU174      0.1728
     18  C        -31.3880  -72.0050   -0.0370 C.2   174  LEU174      0.2617
     19  O        -32.3600  -72.5390   -0.5610 O.2   174  LEU174     -0.2715
     20  CB       -32.1310  -70.3600    1.6010 C.3   174  LEU174      0.0311
     21  CG       -32.2130  -68.9160    2.1330 C.3   174  LEU174      0.0022
     22  CD1      -33.2460  -68.9020    3.2750 C.3   174  LEU174      0.0001
     23  CD2      -30.8400  -68.3560    2.5640 C.3   174  LEU174      0.0001
     24  N        -30.3250  -72.6910    0.3710 N.am  175  GLY175     -0.1940
     25  CA       -30.3440  -74.1270    0.3360 C.3   175  GLY175      0.2014
     26  C        -30.3540  -74.6640   -1.0720 C.2   175  GLY175      0.2639
     27  O        -29.7720  -74.0490   -1.9850 O.2   175  GLY175     -0.2714
     28  N        -30.9930  -75.8020   -1.2180 N.am  176  LYS176     -0.1963
     29  CA       -31.0610  -76.5250   -2.5180 C.3   176  LYS176      0.1728
     30  C        -32.1950  -77.4850   -2.5920 C.2   176  LYS176      0.2616
     31  O        -32.8850  -77.7340   -1.6120 O.2   176  LYS176     -0.2715
     32  CB       -29.7150  -77.2280   -2.8020 C.3   176  LYS176      0.0311
     33  CG       -29.4420  -78.4270   -1.9180 C.3   176  LYS176      0.0038
     34  CD       -28.0620  -79.0490   -2.2200 C.3   176  LYS176      0.0206
     35  CE       -28.0000  -79.8710   -3.5160 C.3   176  LYS176      0.1093
     36  NZ       -28.7080  -81.2220   -3.5250 N.3   176  LYS176     -0.1314
     37  N        -32.4110  -78.0270   -3.7960 N.am  177  THR177     -0.1951
     38  CA       -33.3570  -79.1170   -3.9650 C.3   177  THR177      0.1897
     39  C        -32.5720  -80.4270   -3.9160 C.2   177  THR177      0.2313
     40  O        -31.3940  -80.4430   -4.2000 O.2   177  THR177     -0.2863
     41  CB       -34.1690  -78.9990   -5.2830 C.3   177  THR177      0.1794
     42  OG1      -33.3070  -79.1540   -6.3980 O.3   177  THR177     -0.2208
     43  CG2      -34.8500  -77.6110   -5.3860 C.3   177  THR177      0.0378
     44  N        -29.2120  -76.3650   -7.3910 N.3   187  GLY187     -0.1225
     45  CA       -29.4980  -75.0750   -6.8280 C.3   187  GLY187      0.1811
     46  C        -28.3400  -74.4220   -6.1210 C.2   187  GLY187      0.2280
     47  O        -28.4450  -73.3190   -5.6870 O.2   187  GLY187     -0.2866
     48  N        -26.1490  -71.9700   -1.1420 N.3   190  ASN190     -0.1240
     49  CA       -26.1850  -70.7290   -0.4250 C.3   190  ASN190      0.1653
     50  C        -26.8250  -70.7600    0.9570 C.2   190  ASN190      0.2266
     51  O        -27.8720  -71.2740    1.1230 O.2   190  ASN190     -0.2867
     52  CB       -26.8350  -69.6990   -1.2810 C.3   190  ASN190      0.1155
     53  CG       -26.8530  -68.3860   -0.6380 C.2   190  ASN190      0.2627
     54  OD1      -25.8570  -67.9060   -0.1830 O.2   190  ASN190     -0.2716
     55  ND2      -28.0000  -67.8130   -0.5800 N.am  190  ASN190     -0.0877
     56  N        -30.8720  -73.1870  -10.2910 N.3   225  MET225     -0.1230
     57  CA       -32.0640  -73.8030  -10.8470 C.3   225  MET225      0.1702
     58  C        -33.2900  -73.0180  -10.4010 C.2   225  MET225      0.2592
     59  O        -33.2690  -72.3490   -9.3560 O.2   225  MET225     -0.2718
     60  CB       -32.1950  -75.2990  -10.4760 C.3   225  MET225      0.0401
     61  CG       -32.4760  -75.6210   -9.0090 C.3   225  MET225      0.0596
     62  SD       -34.2190  -75.5700   -8.5860 S.3   225  MET225     -0.1393
     63  CE       -34.8180  -77.0680   -9.4050 C.3   225  MET225      0.0692
     64  N        -34.3460  -73.1210  -11.2080 N.am  226  MET226     -0.1965
     65  CA       -35.6660  -72.5930  -10.8620 C.3   226  MET226      0.1736
     66  C        -36.6600  -73.7040  -11.0740 C.2   226  MET226      0.2616
     67  O        -36.6420  -74.3750  -12.1140 O.2   226  MET226     -0.2715
     68  CB       -36.0180  -71.3610  -11.7010 C.3   226  MET226      0.0427
     69  CG       -35.0590  -70.1870  -11.4530 C.3   226  MET226      0.0599
     70  SD       -35.4480  -69.3700   -9.8810 S.3   226  MET226     -0.1393
     71  CE       -33.9360  -68.4180   -9.5780 C.3   226  MET226      0.0692
     72  N        -37.5560  -73.8570  -10.1080 N.am  227  LEU227     -0.1977
     73  CA       -38.7460  -74.6800  -10.2820 C.3   227  LEU227      0.1596
     74  C        -39.6570  -74.0090  -11.3060 C.2   227  LEU227      0.2287
     75  O        -39.6120  -72.8080  -11.4770 O.2   227  LEU227     -0.2864
     76  CB       -39.5030  -74.8170   -8.9660 C.3   227  LEU227      0.0297
     77  CG       -38.7490  -75.4200   -7.7920 C.3   227  LEU227      0.0022
     78  CD1      -39.5260  -75.1350   -6.4890 C.3   227  LEU227      0.0001
     79  CD2      -38.5240  -76.9280   -8.0330 C.3   227  LEU227      0.0001
     80  N        -41.2160  -71.0970   -9.6460 N.3   230  ASP230     -0.1239
     81  CA       -40.2970  -69.9790   -9.4970 C.3   230  ASP230      0.1674
     82  C        -40.2650  -69.1790  -10.7920 C.2   230  ASP230      0.2266
     83  O        -40.3700  -67.9340  -10.8210 O.2   230  ASP230     -0.2867
     84  CB       -38.8880  -70.4340   -9.2140 C.3   230  ASP230      0.1410
     85  CG       -38.6990  -71.0860   -7.8560 C.2   230  ASP230      0.3668
     86  OD1      -39.3400  -70.6620   -6.8420 O.co2 230  ASP230     -0.2456
     87  OD2      -37.7980  -71.9750   -7.8190 O.co2 230  ASP230     -0.2456
@<TRIPOS>BOND
     1    67    66    2
     2    68    69    1
     3    68    65    1
     4    75    74    2
     5    69    70    1
     6    74    73    1
     7    64    65    1
     8    64    58   am
     9    66    65    1
    10    66    72   am
    11    57    60    1
    12    57    58    1
    13    57    56    1
    14    83    82    2
    15    82    81    1
    16    60    61    1
    17    58    59    2
    18    73    72    1
    19    73    76    1
    20    70    71    1
    21    80    81    1
    22    81    84    1
    23    63    62    1
    24    84    85    1
    25    61    62    1
    26    76    77    1
    27    79    77    1
    28    85    87   ar
    29    85    86   ar
    30    77    78    1
    31    44    45    1
    32    45    46    1
    33    42    41    1
    34    46    47    2
    35    43    41    1
    36    41    38    1
    37     7     9   ar
    38     7     6   ar
    39    40    39    2
    40    38    39    1
    41    38    37    1
    42     9    10   ar
    43     5     6    1
    44     5     2    1
    45    37    30   am
    46     4     3    2
    47    36    35    1
    48    35    34    1
    49     6     8   ar
    50     3    11   am
    51     3     2    1
    52    32    29    1
    53    32    33    1
    54    12    11    1
    55    12    15    1
    56    12    13    1
    57     2     1    1
    58    10     8   ar
    59    30    29    1
    60    30    31    2
    61    29    28    1
    62    34    33    1
    63    27    26    2
    64    14    13    2
    65    13    16   am
    66    52    53    1
    67    52    49    1
    68    28    26   am
    69    48    49    1
    70    26    25    1
    71    16    17    1
    72    53    55   am
    73    53    54    2
    74    19    18    2
    75    49    50    1
    76    18    17    1
    77    18    24   am
    78    17    20    1
    79    25    24    1
    80    50    51    2
    81    20    21    1
    82    21    23    1
    83    21    22    1
