@<TRIPOS>MOLECULE
tmp/4xv5A01.pdb
 86 84 0 0 0
SMALL
GASTEIGER

@<TRIPOS>ATOM
      1  N        -36.1410  -69.1380   -1.6630 N.3   172  HIS172     -0.1226
      2  CA       -35.4740  -70.0670   -2.5620 C.3   172  HIS172      0.1752
      3  C        -34.1040  -69.6140   -2.9960 C.2   172  HIS172      0.2596
      4  O        -33.4730  -70.3210   -3.7840 O.2   172  HIS172     -0.2718
      5  CB       -36.3620  -70.3770   -3.7770 C.3   172  HIS172      0.0759
      6  CG       -37.4330  -71.3720   -3.4500 C.ar  172  HIS172      0.0818
      7  ND1      -38.4220  -71.7360   -4.3380 N.ar  172  HIS172     -0.2268
      8  CD2      -37.6810  -72.0670   -2.2930 C.ar  172  HIS172      0.1154
      9  CE1      -39.2040  -72.6480   -3.7730 C.ar  172  HIS172      0.1986
     10  NE2      -38.7660  -72.8640   -2.5300 N.ar  172  HIS172     -0.2212
     11  N        -33.6080  -68.5020   -2.4460 N.am  173  ALA173     -0.1966
     12  CA       -32.1560  -68.2270   -2.4970 C.3   173  ALA173      0.1728
     13  C        -31.3660  -69.1950   -1.6180 C.2   173  ALA173      0.2616
     14  O        -30.1320  -69.2780   -1.7170 O.2   173  ALA173     -0.2715
     15  CB       -31.8660  -66.8130   -2.0060 C.3   173  ALA173      0.0334
     16  N        -32.0710  -69.8600   -0.7000 N.am  174  LEU174     -0.1963
     17  CA       -31.4190  -70.6950    0.3790 C.3   174  LEU174      0.1728
     18  C        -31.4640  -72.1730    0.0780 C.2   174  LEU174      0.2617
     19  O        -32.4870  -72.6780   -0.4060 O.2   174  LEU174     -0.2715
     20  CB       -32.1500  -70.4890    1.7150 C.3   174  LEU174      0.0311
     21  CG       -32.2360  -69.0410    2.2480 C.3   174  LEU174      0.0022
     22  CD1      -33.2340  -69.0510    3.4480 C.3   174  LEU174      0.0001
     23  CD2      -30.8390  -68.4970    2.6810 C.3   174  LEU174      0.0001
     24  N        -30.3520  -72.8750    0.3340 N.am  175  GLY175     -0.1940
     25  CA       -30.3600  -74.3170    0.2690 C.3   175  GLY175      0.2014
     26  C        -30.4880  -74.8290   -1.1400 C.2   175  GLY175      0.2639
     27  O        -30.0050  -74.2080   -2.1070 O.2   175  GLY175     -0.2714
     28  N        -31.1370  -75.9620   -1.2970 N.am  176  LYS176     -0.1963
     29  CA       -31.1740  -76.6490   -2.5810 C.3   176  LYS176      0.1728
     30  C        -32.2800  -77.6690   -2.6350 C.2   176  LYS176      0.2616
     31  O        -32.8560  -77.9610   -1.6510 O.2   176  LYS176     -0.2715
     32  CB       -29.8450  -77.3270   -2.8440 C.3   176  LYS176      0.0311
     33  CG       -29.5210  -78.4200   -1.8720 C.3   176  LYS176      0.0038
     34  CD       -28.3980  -79.2810   -2.3850 C.3   176  LYS176      0.0206
     35  CE       -27.1170  -79.0420   -1.6480 C.3   176  LYS176      0.1093
     36  NZ       -26.1440  -80.1700   -1.7860 N.3   176  LYS176     -0.1314
     37  N        -32.5780  -78.1870   -3.8150 N.am  177  THR177     -0.1951
     38  CA       -33.4930  -79.2830   -3.9640 C.3   177  THR177      0.1897
     39  C        -32.6600  -80.5660   -3.9370 C.2   177  THR177      0.2313
     40  O        -31.4490  -80.5600   -4.2390 O.2   177  THR177     -0.2863
     41  CB       -34.2910  -79.2130   -5.2960 C.3   177  THR177      0.1794
     42  OG1      -33.4140  -79.4380   -6.4290 O.3   177  THR177     -0.2208
     43  CG2      -34.9380  -77.8260   -5.4320 C.3   177  THR177      0.0378
     44  N        -32.1360  -64.6110   -5.3890 N.3   197  PHE197     -0.1241
     45  CA       -33.1370  -65.3720   -6.1560 C.3   197  PHE197      0.1605
     46  C        -33.6690  -64.4900   -7.3110 C.2   197  PHE197      0.2264
     47  O        -33.8260  -64.9740   -8.4550 O.2   197  PHE197     -0.2867
     48  CB       -34.2700  -65.7730   -5.2140 C.3   197  PHE197      0.0534
     49  CG       -35.4360  -66.3990   -5.8720 C.ar  197  PHE197     -0.0203
     50  CD1      -35.4200  -67.7500   -6.2010 C.ar  197  PHE197     -0.0042
     51  CD2      -36.6220  -65.6540   -6.0280 C.ar  197  PHE197     -0.0042
     52  CE1      -36.5620  -68.3430   -6.7590 C.ar  197  PHE197     -0.0003
     53  CE2      -37.7760  -66.2570   -6.5650 C.ar  197  PHE197     -0.0003
     54  CZ       -37.7350  -67.5990   -6.9230 C.ar  197  PHE197     -0.0000
     55  N        -30.5070  -73.6110  -10.7090 N.3   225  MET225     -0.1230
     56  CA       -31.7610  -74.1560  -11.1790 C.3   225  MET225      0.1702
     57  C        -32.9360  -73.3660  -10.6250 C.2   225  MET225      0.2592
     58  O        -32.8080  -72.7030   -9.6450 O.2   225  MET225     -0.2718
     59  CB       -31.9150  -75.6250  -10.8280 C.3   225  MET225      0.0401
     60  CG       -31.8850  -75.9610   -9.3660 C.3   225  MET225      0.0596
     61  SD       -33.4640  -75.7330   -8.5610 S.3   225  MET225     -0.1393
     62  CE       -34.4060  -77.0720   -9.1750 C.3   225  MET225      0.0692
     63  N        -34.0610  -73.4560  -11.3120 N.am  226  MET226     -0.1965
     64  CA       -35.3290  -72.9290  -10.8510 C.3   226  MET226      0.1736
     65  C        -36.4000  -73.9980  -11.0650 C.2   226  MET226      0.2616
     66  O        -36.4130  -74.7100  -12.0940 O.2   226  MET226     -0.2715
     67  CB       -35.7110  -71.6490  -11.6580 C.3   226  MET226      0.0427
     68  CG       -34.8120  -70.4170  -11.4160 C.3   226  MET226      0.0599
     69  SD       -35.1450  -69.7810   -9.7260 S.3   226  MET226     -0.1393
     70  CE       -33.8560  -68.5340   -9.6170 C.3   226  MET226      0.0692
     71  N        -37.3180  -74.1240  -10.1130 N.am  227  LEU227     -0.1977
     72  CA       -38.5360  -74.9170  -10.2980 C.3   227  LEU227      0.1596
     73  C        -39.4760  -74.2420  -11.3190 C.2   227  LEU227      0.2287
     74  O        -39.3900  -73.0470  -11.5080 O.2   227  LEU227     -0.2864
     75  CB       -39.3190  -74.9860   -8.9680 C.3   227  LEU227      0.0297
     76  CG       -38.5260  -75.6870   -7.8430 C.3   227  LEU227      0.0022
     77  CD1      -39.2810  -75.3590   -6.5310 C.3   227  LEU227      0.0001
     78  CD2      -38.3030  -77.2040   -8.0480 C.3   227  LEU227      0.0001
     79  N        -41.0230  -71.3840   -9.6210 N.3   230  ASP230     -0.1239
     80  CA       -40.1090  -70.2360   -9.4820 C.3   230  ASP230      0.1674
     81  C        -40.0950  -69.4120  -10.7960 C.2   230  ASP230      0.2266
     82  O        -40.2220  -68.1880  -10.8230 O.2   230  ASP230     -0.2867
     83  CB       -38.6460  -70.6670   -9.2570 C.3   230  ASP230      0.1410
     84  CG       -38.4160  -71.3580   -7.9160 C.2   230  ASP230      0.3668
     85  OD1      -39.0840  -70.9760   -6.9070 O.co2 230  ASP230     -0.2456
     86  OD2      -37.5340  -72.2460   -7.9070 O.co2 230  ASP230     -0.2456
@<TRIPOS>BOND
     1    66    65    2
     2    67    68    1
     3    67    64    1
     4    74    73    2
     5    68    69    1
     6    73    72    1
     7    63    64    1
     8    63    57   am
     9    56    59    1
    10    56    55    1
    11    56    57    1
    12    65    64    1
    13    65    71   am
    14    59    60    1
    15    82    81    2
    16    81    80    1
    17    57    58    2
    18    72    71    1
    19    72    75    1
    20    69    70    1
    21    79    80    1
    22    80    83    1
    23    60    61    1
    24    83    84    1
    25    62    61    1
    26    75    76    1
    27    47    46    2
    28    78    76    1
    29    84    86   ar
    30    84    85   ar
    31    76    77    1
    32    46    45    1
    33    54    52   ar
    34    54    53   ar
    35    52    50   ar
    36    53    51   ar
    37    42    41    1
    38    50    49   ar
    39    45    44    1
    40    45    48    1
    41    51    49   ar
    42    49    48    1
    43    43    41    1
    44    41    38    1
    45     7     9   ar
    46     7     6   ar
    47    40    39    2
    48    38    39    1
    49    38    37    1
    50    37    30   am
    51     4     3    2
    52     5     6    1
    53     5     2    1
    54     9    10   ar
    55     6     8   ar
    56     3     2    1
    57     3    11   am
    58    32    29    1
    59    32    33    1
    60    30    29    1
    61    30    31    2
    62    29    28    1
    63     2     1    1
    64    10     8   ar
    65    12    11    1
    66    12    15    1
    67    12    13    1
    68    34    33    1
    69    34    35    1
    70    27    26    2
    71    36    35    1
    72    14    13    2
    73    13    16   am
    74    28    26   am
    75    26    25    1
    76    16    17    1
    77    19    18    2
    78    18    24   am
    79    18    17    1
    80    25    24    1
    81    17    20    1
    82    20    21    1
    83    21    23    1
    84    21    22    1
