@<TRIPOS>MOLECULE
tmp/4xv8A01.pdb
 109 105 0 0 0
SMALL
GASTEIGER

@<TRIPOS>ATOM
      1  N        -36.0790  -69.0910   -1.6860 N.3   172  HIS172     -0.1241
      2  CA       -35.3980  -70.0100   -2.5720 C.3   172  HIS172      0.1621
      3  C        -34.0010  -69.5510   -2.9610 C.2   172  HIS172      0.2264
      4  O        -33.3830  -70.1810   -3.7360 O.2   172  HIS172     -0.2867
      5  CB       -36.2290  -70.3840   -3.7860 C.3   172  HIS172      0.0745
      6  CG       -37.2980  -71.3710   -3.4790 C.ar  172  HIS172      0.0817
      7  ND1      -38.2190  -71.7830   -4.4000 N.ar  172  HIS172     -0.2268
      8  CD2      -37.5770  -72.0400   -2.3460 C.ar  172  HIS172      0.1154
      9  CE1      -39.0270  -72.6560   -3.8440 C.ar  172  HIS172      0.1986
     10  NE2      -38.6550  -72.8320   -2.5970 N.ar  172  HIS172     -0.2212
     11  N        -32.0290  -69.8130   -0.6030 N.3   174  LEU174     -0.1231
     12  CA       -31.4350  -70.6430    0.4630 C.3   174  LEU174      0.1693
     13  C        -31.5130  -72.1230    0.1320 C.2   174  LEU174      0.2593
     14  O        -32.5530  -72.6400   -0.2120 O.2   174  LEU174     -0.2718
     15  CB       -32.1460  -70.4290    1.7830 C.3   174  LEU174      0.0284
     16  CG       -32.2140  -69.0130    2.3390 C.3   174  LEU174      0.0019
     17  CD1      -33.2080  -69.0220    3.4950 C.3   174  LEU174      0.0001
     18  CD2      -30.8290  -68.4770    2.7020 C.3   174  LEU174      0.0001
     19  N        -30.3990  -72.8350    0.2660 N.am  175  GLY175     -0.1942
     20  CA       -30.4280  -74.2540    0.1170 C.3   175  GLY175      0.2014
     21  C        -30.6390  -74.7180   -1.3010 C.2   175  GLY175      0.2639
     22  O        -30.2720  -74.0470   -2.2450 O.2   175  GLY175     -0.2714
     23  N        -31.2540  -75.8770   -1.4410 N.am  176  LYS176     -0.1963
     24  CA       -31.3490  -76.5190   -2.7250 C.3   176  LYS176      0.1728
     25  C        -32.3890  -77.5950   -2.7690 C.2   176  LYS176      0.2616
     26  O        -32.9290  -77.9440   -1.7960 O.2   176  LYS176     -0.2715
     27  CB       -30.0010  -77.1250   -3.0740 C.3   176  LYS176      0.0311
     28  CG       -29.5830  -78.2810   -2.2100 C.3   176  LYS176      0.0038
     29  CD       -28.1520  -78.6260   -2.5540 C.3   176  LYS176      0.0206
     30  CE       -27.6840  -79.8850   -1.9110 C.3   176  LYS176      0.1093
     31  NZ       -26.3030  -80.2800   -2.3080 N.3   176  LYS176     -0.1314
     32  N        -32.6580  -78.1080   -3.9520 N.am  177  THR177     -0.1951
     33  CA       -33.4760  -79.2710   -4.0870 C.3   177  THR177      0.1897
     34  C        -32.5720  -80.5330   -4.0340 C.2   177  THR177      0.2313
     35  O        -31.3770  -80.4680   -4.2860 O.2   177  THR177     -0.2863
     36  CB       -34.2850  -79.2780   -5.3890 C.3   177  THR177      0.1794
     37  OG1      -33.4060  -79.4330   -6.4970 O.3   177  THR177     -0.2208
     38  CG2      -35.0300  -77.9870   -5.5820 C.3   177  THR177      0.0378
     39  N        -29.0300  -77.4280   -7.8470 N.3   187  GLY187     -0.1210
     40  CA       -28.0650  -76.6130   -8.5160 C.3   187  GLY187      0.1956
     41  C        -27.2280  -75.8830   -7.4630 C.2   187  GLY187      0.2612
     42  O        -27.1860  -76.3250   -6.3130 O.2   187  GLY187     -0.2717
     43  N        -26.5180  -74.8330   -7.8810 N.am  188  GLY188     -0.1956
     44  CA       -25.7340  -74.0190   -6.9850 C.3   188  GLY188      0.1869
     45  C        -26.5490  -73.5900   -5.7990 C.2   188  GLY188      0.2309
     46  O        -27.7170  -73.2120   -5.9540 O.2   188  GLY188     -0.2863
     47  N        -31.9840  -64.6150   -5.4550 N.3   197  PHE197     -0.1241
     48  CA       -32.9640  -65.4020   -6.2210 C.3   197  PHE197      0.1605
     49  C        -33.5000  -64.5630   -7.3760 C.2   197  PHE197      0.2264
     50  O        -33.6460  -65.0490   -8.4900 O.2   197  PHE197     -0.2867
     51  CB       -34.0580  -65.8760   -5.2690 C.3   197  PHE197      0.0534
     52  CG       -35.2500  -66.4980   -5.9230 C.ar  197  PHE197     -0.0203
     53  CD1      -35.1990  -67.8060   -6.2990 C.ar  197  PHE197     -0.0042
     54  CD2      -36.4520  -65.8100   -6.0800 C.ar  197  PHE197     -0.0042
     55  CE1      -36.2890  -68.4080   -6.7990 C.ar  197  PHE197     -0.0003
     56  CE2      -37.5980  -66.4630   -6.5820 C.ar  197  PHE197     -0.0003
     57  CZ       -37.4910  -67.7710   -6.9520 C.ar  197  PHE197     -0.0000
     58  N        -30.7940  -63.8240  -10.0430 N.3   200  ASN200     -0.1240
     59  CA       -30.5990  -65.0470  -10.8140 C.3   200  ASN200      0.1653
     60  C        -31.7070  -65.2620  -11.8470 C.2   200  ASN200      0.2266
     61  O        -31.4350  -65.6360  -13.0030 O.2   200  ASN200     -0.2867
     62  CB       -30.5620  -66.1910   -9.8200 C.3   200  ASN200      0.1155
     63  CG       -29.6910  -67.3250  -10.2610 C.2   200  ASN200      0.2627
     64  OD1      -28.6080  -67.1360  -10.8460 O.2   200  ASN200     -0.2716
     65  ND2      -30.1470  -68.5220   -9.9720 N.am  200  ASN200     -0.0877
     66  N        -27.0020  -72.9960  -12.0680 N.3   224  TYR224     -0.1227
     67  CA       -28.1560  -72.6940  -11.2440 C.3   224  TYR224      0.1736
     68  C        -29.3830  -73.4060  -11.7790 C.2   224  TYR224      0.2595
     69  O        -29.3900  -73.8360  -12.8940 O.2   224  TYR224     -0.2718
     70  CB       -28.4060  -71.1990  -11.2320 C.3   224  TYR224      0.0548
     71  CG       -27.2890  -70.3480  -10.6900 C.ar  224  TYR224     -0.0200
     72  CD1      -26.8240  -70.5250   -9.4280 C.ar  224  TYR224     -0.0009
     73  CD2      -26.7370  -69.3550  -11.4360 C.ar  224  TYR224     -0.0009
     74  CE1      -25.8130  -69.7440   -8.9230 C.ar  224  TYR224      0.0417
     75  CE2      -25.7320  -68.5680  -10.9470 C.ar  224  TYR224      0.0417
     76  CZ       -25.2750  -68.7720   -9.6920 C.ar  224  TYR224      0.1957
     77  OH       -24.2730  -67.9970   -9.2080 O.3   224  TYR224     -0.2866
     78  N        -30.4150  -73.4990  -10.9550 N.am  225  MET225     -0.1965
     79  CA       -31.6720  -74.1080  -11.3750 C.3   225  MET225      0.1736
     80  C        -32.8320  -73.3140  -10.8100 C.2   225  MET225      0.2616
     81  O        -32.6870  -72.5890   -9.8350 O.2   225  MET225     -0.2715
     82  CB       -31.8200  -75.6030  -11.0170 C.3   225  MET225      0.0427
     83  CG       -31.8240  -75.9210   -9.5260 C.3   225  MET225      0.0599
     84  SD       -33.4380  -75.6750   -8.7340 S.3   225  MET225     -0.1393
     85  CE       -34.2800  -77.1120   -9.2650 C.3   225  MET225      0.0692
     86  N        -33.9490  -73.4420  -11.5000 N.am  226  MET226     -0.1963
     87  CA       -35.2530  -72.9250  -11.0570 C.3   226  MET226      0.1736
     88  C        -36.3140  -74.0010  -11.2160 C.2   226  MET226      0.2616
     89  O        -36.3710  -74.6930  -12.2600 O.2   226  MET226     -0.2715
     90  CB       -35.6670  -71.6590  -11.8250 C.3   226  MET226      0.0427
     91  CG       -34.7500  -70.4570  -11.6060 C.3   226  MET226      0.0599
     92  SD       -35.0370  -69.8030   -9.9510 S.3   226  MET226     -0.1393
     93  CE       -33.6250  -68.7530   -9.7870 C.3   226  MET226      0.0692
     94  N        -37.1930  -74.1190  -10.2460 N.am  227  LEU227     -0.1977
     95  CA       -38.3900  -74.9370  -10.3860 C.3   227  LEU227      0.1596
     96  C        -39.3360  -74.2580  -11.3870 C.2   227  LEU227      0.2287
     97  O        -39.2920  -73.0560  -11.5840 O.2   227  LEU227     -0.2864
     98  CB       -39.1200  -75.0260   -9.0620 C.3   227  LEU227      0.0297
     99  CG       -38.3720  -75.6840   -7.9250 C.3   227  LEU227      0.0022
    100  CD1      -39.0500  -75.3940   -6.5980 C.3   227  LEU227      0.0001
    101  CD2      -38.2320  -77.1800   -8.1750 C.3   227  LEU227      0.0001
    102  N        -40.8800  -71.4250   -9.6500 N.3   230  ASP230     -0.1239
    103  CA       -39.9650  -70.2840   -9.5330 C.3   230  ASP230      0.1674
    104  C        -39.9820  -69.4420  -10.8150 C.2   230  ASP230      0.2266
    105  O        -40.0660  -68.2030  -10.7830 O.2   230  ASP230     -0.2867
    106  CB       -38.5200  -70.7280   -9.3190 C.3   230  ASP230      0.1410
    107  CG       -38.2520  -71.4190   -7.9740 C.2   230  ASP230      0.3668
    108  OD1      -38.9140  -71.1010   -6.9460 O.co2 230  ASP230     -0.2456
    109  OD2      -37.2920  -72.2670   -7.9370 O.co2 230  ASP230     -0.2456
@<TRIPOS>BOND
     1    61    60    2
     2    69    68    2
     3    89    88    2
     4    66    67    1
     5    60    59    1
     6    90    91    1
     7    90    87    1
     8    68    67    1
     9    68    78   am
    10    91    92    1
    11    97    96    2
    12    86    87    1
    13    86    80   am
    14    73    75   ar
    15    73    71   ar
    16    96    95    1
    17    79    82    1
    18    79    78    1
    19    79    80    1
    20    67    70    1
    21    70    71    1
    22    88    87    1
    23    88    94   am
    24    82    83    1
    25    75    76   ar
    26    64    63    2
    27   104   105    2
    28   104   103    1
    29    59    58    1
    30    59    62    1
    31    80    81    2
    32    71    72   ar
    33    95    94    1
    34    95    98    1
    35    63    65   am
    36    63    62    1
    37    92    93    1
    38    76    77    1
    39    76    74   ar
    40   102   103    1
    41   103   106    1
    42    83    84    1
    43    72    74   ar
    44   106   107    1
    45    85    84    1
    46    98    99    1
    47    40    39    1
    48    40    41    1
    49    50    49    2
    50   101    99    1
    51   107   109   ar
    52   107   108   ar
    53    99   100    1
    54    43    41   am
    55    43    44    1
    56    41    42    2
    57    49    48    1
    58    44    45    1
    59    57    55   ar
    60    57    56   ar
    61    55    53   ar
    62    56    54   ar
    63    37    36    1
    64    53    52   ar
    65    48    47    1
    66    48    51    1
    67    54    52   ar
    68    46    45    2
    69    52    51    1
    70    38    36    1
    71    36    33    1
    72     7     9   ar
    73     7     6   ar
    74    35    34    2
    75    33    34    1
    76    33    32    1
    77    32    25   am
    78     9    10   ar
    79     5     6    1
    80     5     2    1
    81     4     3    2
    82     6     8   ar
    83    27    24    1
    84    27    28    1
    85     3     2    1
    86    25    24    1
    87    25    26    2
    88    24    23    1
    89    10     8   ar
    90     2     1    1
    91    29    28    1
    92    29    30    1
    93    31    30    1
    94    22    21    2
    95    23    21   am
    96    21    20    1
    97    11    12    1
    98    14    13    2
    99    20    19    1
   100    13    19   am
   101    13    12    1
   102    12    15    1
   103    15    16    1
   104    16    18    1
   105    16    17    1
