@<TRIPOS>MOLECULE
tmp/4xv9A00.pdb
 218 207 0 0 0
SMALL
GASTEIGER

@<TRIPOS>ATOM
      1  N         78.1050   16.3260  -18.6540 N.3    16  ILE16      -0.1245
      2  CA        78.7140   15.7140  -17.4750 C.3    16  ILE16       0.1561
      3  C         77.7440   14.7640  -16.7750 C.2    16  ILE16       0.2260
      4  O         78.0850   13.6090  -16.5090 O.2    16  ILE16      -0.2867
      5  CB        79.2020   16.8060  -16.4950 C.3    16  ILE16       0.0252
      6  CG1       80.1870   17.7590  -17.1890 C.3    16  ILE16       0.0019
      7  CG2       79.8410   16.1770  -15.2570 C.3    16  ILE16       0.0019
      8  CD1       81.3400   17.0680  -17.9130 C.3    16  ILE16       0.0001
      9  N         74.2430   19.3010  -16.0030 N.3    24  VAL24      -0.1245
     10  CA        75.5110   20.0190  -15.9960 C.3    24  VAL24       0.1561
     11  C         76.3070   19.7090  -17.2600 C.2    24  VAL24       0.2260
     12  O         76.3440   18.5670  -17.7110 O.2    24  VAL24      -0.2867
     13  CB        76.3500   19.6510  -14.7550 C.3    24  VAL24       0.0252
     14  CG1       77.6520   20.4510  -14.7200 C.3    24  VAL24       0.0019
     15  CG2       75.5420   19.8820  -13.4830 C.3    24  VAL24       0.0019
     16  N         81.4550   25.6090  -15.8090 N.3    34  ALA34      -0.1231
     17  CA        80.3710   24.6370  -15.7300 C.3    34  ALA34       0.1694
     18  C         79.0590   25.3770  -15.9710 C.2    34  ALA34       0.2592
     19  O         78.9040   26.5260  -15.5530 O.2    34  ALA34      -0.2718
     20  CB        80.3570   23.9670  -14.3710 C.3    34  ALA34       0.0304
     21  N         78.1190   24.7170  -16.6390 N.am   35  VAL35      -0.1966
     22  CA        76.8310   25.3120  -16.9690 C.3    35  VAL35       0.1727
     23  C         75.7280   24.3160  -16.6370 C.2    35  VAL35       0.2616
     24  O         75.6060   23.2890  -17.2930 O.2    35  VAL35      -0.2715
     25  CB        76.7300   25.6670  -18.4710 C.3    35  VAL35       0.0290
     26  CG1       75.3860   26.3360  -18.7750 C.3    35  VAL35       0.0023
     27  CG2       77.8830   26.5590  -18.8990 C.3    35  VAL35       0.0023
     28  N         74.9380   24.6120  -15.6110 N.am   36  LYS36      -0.1977
     29  CA        73.7680   23.8020  -15.2990 C.3    36  LYS36       0.1596
     30  C         72.5410   24.3590  -16.0110 C.2    36  LYS36       0.2287
     31  O         72.0600   25.4350  -15.6690 O.2    36  LYS36      -0.2864
     32  CB        73.5200   23.7620  -13.7950 C.3    36  LYS36       0.0298
     33  CG        72.3230   22.8980  -13.3960 C.3    36  LYS36       0.0038
     34  CD        72.5790   22.1270  -12.1200 C.3    36  LYS36       0.0206
     35  CE        72.5360   23.0290  -10.9080 C.3    36  LYS36       0.1093
     36  NZ        72.8250   22.2920   -9.6460 N.3    36  LYS36      -0.1314
     37  N         67.5810   32.6640   -6.0690 N.3    54  GLU54      -0.1245
     38  CA        68.7560   31.8170   -5.9070 C.3    54  GLU54       0.1567
     39  C         70.0040   32.4860   -6.4790 C.2    54  GLU54       0.2260
     40  O         71.0780   32.3710   -5.9030 O.2    54  GLU54      -0.2867
     41  CB        68.5410   30.4430   -6.5530 C.3    54  GLU54       0.0388
     42  CG        69.6530   29.4320   -6.2740 C.3    54  GLU54       0.1160
     43  CD        69.9200   29.2090   -4.7900 C.2    54  GLU54       0.3649
     44  OE1       71.1070   29.0860   -4.4060 O.co2  54  GLU54      -0.2457
     45  OE2       68.9490   29.1470   -4.0030 O.co2  54  GLU54      -0.2457
     46  N         71.1350   34.9750   -3.9200 N.3    57  VAL57      -0.1231
     47  CA        71.8900   34.3520   -2.8310 C.3    57  VAL57       0.1692
     48  C         73.3150   34.0170   -3.2750 C.2    57  VAL57       0.2591
     49  O         74.2690   34.2470   -2.5320 O.2    57  VAL57      -0.2718
     50  CB        71.1940   33.0630   -2.3170 C.3    57  VAL57       0.0266
     51  CG1       72.0990   32.2880   -1.3600 C.3    57  VAL57       0.0020
     52  CG2       69.8760   33.4030   -1.6330 C.3    57  VAL57       0.0020
     53  N         73.4540   33.4650   -4.4790 N.am   58  LEU58      -0.1980
     54  CA        74.7680   33.0860   -5.0030 C.3    58  LEU58       0.1596
     55  C         75.6530   34.3140   -5.2060 C.2    58  LEU58       0.2287
     56  O         76.8720   34.2360   -5.0530 O.2    58  LEU58      -0.2864
     57  CB        74.6320   32.3120   -6.3200 C.3    58  LEU58       0.0297
     58  CG        73.9920   30.9210   -6.2350 C.3    58  LEU58       0.0022
     59  CD1       73.7690   30.3520   -7.6360 C.3    58  LEU58       0.0001
     60  CD2       74.8310   29.9680   -5.3980 C.3    58  LEU58       0.0001
     61  N         78.0050   35.2730   -2.3230 N.3    61  THR61      -0.1218
     62  CA        79.0890   34.3580   -1.9470 C.3    61  THR61       0.1862
     63  C         80.3950   34.6430   -2.6920 C.2    61  THR61       0.2287
     64  O         80.4650   34.5280   -3.9140 O.2    61  THR61      -0.2866
     65  CB        78.6780   32.8720   -2.1420 C.3    61  THR61       0.1770
     66  OG1       78.3950   32.5970   -3.5190 O.3    61  THR61      -0.2211
     67  CG2       77.3720   32.5520   -1.4110 C.3    61  THR61       0.0375
     68  N         83.5780   28.0650   -1.3840 N.3    66  ILE66      -0.1231
     69  CA        82.2550   28.0490   -1.9940 C.3    66  ILE66       0.1692
     70  C         82.4360   28.0970   -3.5100 C.2    66  ILE66       0.2591
     71  O         83.1500   28.9590   -4.0320 O.2    66  ILE66      -0.2718
     72  CB        81.4210   29.2600   -1.5060 C.3    66  ILE66       0.0266
     73  CG1       81.3450   29.2880    0.0260 C.3    66  ILE66       0.0019
     74  CG2       80.0160   29.2460   -2.1230 C.3    66  ILE66       0.0020
     75  CD1       80.7680   28.0340    0.6670 C.3    66  ILE66       0.0001
     76  N         81.8130   27.1480   -4.2080 N.am   67  LEU67      -0.1980
     77  CA        81.8180   27.1150   -5.6670 C.3    67  LEU67       0.1596
     78  C         81.5190   28.5040   -6.2230 C.2    67  LEU67       0.2287
     79  O         80.5170   29.1220   -5.8670 O.2    67  LEU67      -0.2864
     80  CB        80.7840   26.1150   -6.1840 C.3    67  LEU67       0.0297
     81  CG        80.6150   26.0380   -7.7050 C.3    67  LEU67       0.0022
     82  CD1       81.8310   25.3860   -8.3480 C.3    67  LEU67       0.0001
     83  CD2       79.3420   25.2960   -8.0690 C.3    67  LEU67       0.0001
     84  N         80.1860   31.2260   -8.2540 N.3    69  PHE69      -0.1241
     85  CA        79.1830   31.7180   -9.1910 C.3    69  PHE69       0.1605
     86  C         79.8390   32.6910  -10.1730 C.2    69  PHE69       0.2264
     87  O         80.6420   33.5240   -9.7730 O.2    69  PHE69      -0.2867
     88  CB        78.0550   32.4140   -8.4190 C.3    69  PHE69       0.0534
     89  CG        77.0620   33.1270   -9.2920 C.ar   69  PHE69      -0.0203
     90  CD1       76.1090   32.4150  -10.0040 C.ar   69  PHE69      -0.0042
     91  CD2       77.0770   34.5120   -9.3930 C.ar   69  PHE69      -0.0042
     92  CE1       75.1890   33.0730  -10.8070 C.ar   69  PHE69      -0.0003
     93  CE2       76.1570   35.1740  -10.1940 C.ar   69  PHE69      -0.0003
     94  CZ        75.2140   34.4540  -10.9000 C.ar   69  PHE69      -0.0000
     95  N         72.6560   28.3160  -14.6270 N.3    80  ILE80      -0.1245
     96  CA        73.6360   28.8870  -13.7140 C.3    80  ILE80       0.1561
     97  C         75.0240   28.5070  -14.2110 C.2    80  ILE80       0.2260
     98  O         75.2830   27.3430  -14.5020 O.2    80  ILE80      -0.2867
     99  CB        73.4170   28.3700  -12.2780 C.3    80  ILE80       0.0252
    100  CG1       72.0350   28.7860  -11.7660 C.3    80  ILE80       0.0019
    101  CG2       74.5030   28.9050  -11.3410 C.3    80  ILE80       0.0019
    102  CD1       71.5170   27.9120  -10.6510 C.3    80  ILE80       0.0001
    103  N         79.1690   28.6050  -13.4370 N.3    82  THR82      -0.1203
    104  CA        80.1520   28.6730  -12.3590 C.3    82  THR82       0.1994
    105  C         81.5410   28.3030  -12.8690 C.2    82  THR82       0.2618
    106  O         81.7030   27.9040  -14.0190 O.2    82  THR82      -0.2717
    107  CB        79.7730   27.6960  -11.2260 C.3    82  THR82       0.1784
    108  OG1       79.9690   26.3480  -11.6690 O.3    82  THR82      -0.2211
    109  CG2       78.2880   27.7660  -10.8860 C.3    82  THR82       0.0376
    110  N         82.5380   28.4080  -11.9970 N.am   83  GLN83      -0.1965
    111  CA        83.8790   27.9340  -12.3160 C.3    83  GLN83       0.1733
    112  C         83.8290   26.4280  -12.5650 C.2    83  GLN83       0.2616
    113  O         82.9730   25.7310  -12.0120 O.2    83  GLN83      -0.2715
    114  CB        84.8740   28.2610  -11.1890 C.3    83  GLN83       0.0408
    115  CG        84.8180   27.3210   -9.9860 C.3    83  GLN83       0.0908
    116  CD        85.6810   27.7910   -8.8280 C.2    83  GLN83       0.2608
    117  OE1       85.2050   27.8940   -7.6910 O.2    83  GLN83      -0.2717
    118  NE2       86.9530   28.0730   -9.1090 N.am   83  GLN83      -0.0878
    119  N         84.7260   25.9460  -13.4200 N.am   84  TRP84      -0.1960
    120  CA        84.9110   24.5170  -13.6190 C.3    84  TRP84       0.1771
    121  C         85.8820   23.9790  -12.5690 C.2    84  TRP84       0.2619
    122  O         86.9530   24.5500  -12.3570 O.2    84  TRP84      -0.2715
    123  CB        85.4530   24.2250  -15.0230 C.3    84  TRP84       0.0590
    124  CG        85.6680   22.7650  -15.2510 C.ar   84  TRP84       0.0006
    125  CD1       86.8610   22.1040  -15.2700 C.ar   84  TRP84       0.0946
    126  CD2       84.6580   21.7720  -15.4550 C.ar   84  TRP84       0.0152
    127  NE1       86.6560   20.7620  -15.4860 N.ar   84  TRP84      -0.2442
    128  CE2       85.3110   20.5310  -15.6020 C.ar   84  TRP84       0.0810
    129  CE3       83.2580   21.8050  -15.5360 C.ar   84  TRP84       0.0012
    130  CZ2       84.6190   19.3400  -15.8290 C.ar   84  TRP84       0.0191
    131  CZ3       82.5720   20.6200  -15.7570 C.ar   84  TRP84       0.0001
    132  CH2       83.2540   19.4060  -15.9020 C.ar   84  TRP84       0.0015
    133  N         85.4970   22.8860  -11.9160 N.am   85  CYS85      -0.1968
    134  CA        86.3490   22.2160  -10.9390 C.3    85  CYS85       0.1712
    135  C         86.9710   20.9680  -11.5640 C.2    85  CYS85       0.2296
    136  O         86.2890   20.2080  -12.2470 O.2    85  CYS85      -0.2864
    137  CB        85.5420   21.8130   -9.7030 C.3    85  CYS85       0.0983
    138  SG        84.6250   23.1500   -8.9070 S.3    85  CYS85      -0.0798
    139  N         88.6080   17.2650  -11.1340 N.3    87  GLY87      -0.1225
    140  CA        88.6000   16.1360  -10.2220 C.3    87  GLY87       0.1811
    141  C         87.2170   15.5620   -9.9860 C.2    87  GLY87       0.2280
    142  O         86.3870   15.5400  -10.8930 O.2    87  GLY87      -0.2866
    143  N         79.0670   30.9010    4.9750 N.3   120  LEU120     -0.1245
    144  CA        77.6590   30.9210    4.5680 C.3   120  LEU120      0.1561
    145  C         76.7570   31.3740    5.7160 C.2   120  LEU120      0.2260
    146  O         75.9280   32.2680    5.5490 O.2   120  LEU120     -0.2867
    147  CB        77.2100   29.5420    4.0620 C.3   120  LEU120      0.0270
    148  CG        77.7590   29.0690    2.7080 C.3   120  LEU120      0.0019
    149  CD1       77.2170   27.6880    2.3720 C.3   120  LEU120      0.0001
    150  CD2       77.4330   30.0500    1.5890 C.3   120  LEU120      0.0001
    151  N         73.0510   32.3730    5.2200 N.3   125  ILE125     -0.1245
    152  CA        72.7150   31.4340    4.1560 C.3   125  ILE125      0.1561
    153  C         72.7360   30.0170    4.7230 C.2   125  ILE125      0.2260
    154  O         73.7370   29.5840    5.2920 O.2   125  ILE125     -0.2867
    155  CB        73.7010   31.5660    2.9710 C.3   125  ILE125      0.0252
    156  CG1       73.5680   32.9450    2.3180 C.3   125  ILE125      0.0019
    157  CG2       73.4490   30.4660    1.9360 C.3   125  ILE125      0.0019
    158  CD1       74.7250   33.3140    1.4130 C.3   125  ILE125      0.0001
    159  N         72.5330   26.1320    3.6240 N.3   127  HIS127     -0.1241
    160  CA        72.7430   25.2870    2.4560 C.3   127  HIS127      0.1621
    161  C         71.5350   24.3870    2.1970 C.2   127  HIS127      0.2264
    162  O         71.0200   24.3500    1.0820 O.2   127  HIS127     -0.2867
    163  CB        74.0080   24.4470    2.6320 C.3   127  HIS127      0.0745
    164  CG        74.4700   23.7860    1.3740 C.ar  127  HIS127      0.0817
    165  ND1       73.8310   22.6940    0.8310 N.ar  127  HIS127     -0.2268
    166  CD2       75.5080   24.0640    0.5500 C.ar  127  HIS127      0.1154
    167  CE1       74.4530   22.3270   -0.2740 C.ar  127  HIS127      0.1986
    168  NE2       75.4760   23.1390   -0.4660 N.ar  127  HIS127     -0.2212
    169  N         83.0750   19.2550   -3.6680 N.3   136  PHE136     -0.1241
    170  CA        84.0290   18.8730   -4.7080 C.3   136  PHE136      0.1605
    171  C         85.4480   19.1480   -4.2250 C.2   136  PHE136      0.2264
    172  O         85.6960   20.1560   -3.5750 O.2   136  PHE136     -0.2867
    173  CB        83.7560   19.6440   -6.0050 C.3   136  PHE136      0.0534
    174  CG        83.4910   18.7590   -7.1920 C.ar  136  PHE136     -0.0203
    175  CD1       82.2490   18.1600   -7.3660 C.ar  136  PHE136     -0.0042
    176  CD2       84.4820   18.5230   -8.1340 C.ar  136  PHE136     -0.0042
    177  CE1       82.0020   17.3420   -8.4610 C.ar  136  PHE136     -0.0003
    178  CE2       84.2410   17.7080   -9.2310 C.ar  136  PHE136     -0.0003
    179  CZ        83.0000   17.1170   -9.3940 C.ar  136  PHE136     -0.0000
    180  N         82.1330   23.9310   -1.9340 N.3   145  ILE145     -0.1231
    181  CA        80.7830   23.5630   -1.5330 C.3   145  ILE145      0.1692
    182  C         79.8160   24.1230   -2.5600 C.2   145  ILE145      0.2593
    183  O         79.8960   25.2930   -2.9230 O.2   145  ILE145     -0.2718
    184  CB        80.4380   24.1200   -0.1340 C.3   145  ILE145      0.0266
    185  CG1       81.4040   23.5620    0.9180 C.3   145  ILE145      0.0019
    186  CG2       78.9860   23.7780    0.2240 C.3   145  ILE145      0.0020
    187  CD1       81.2570   24.1790    2.2980 C.3   145  ILE145      0.0001
    188  N         78.8970   23.2900   -3.0250 N.am  146  GLY146     -0.1942
    189  CA        77.9070   23.7390   -3.9780 C.3   146  GLY146      0.2014
    190  C         76.6880   22.8460   -4.0350 C.2   146  GLY146      0.2639
    191  O         76.2670   22.2560   -3.0420 O.2   146  GLY146     -0.2714
    192  N         76.1440   22.7520   -5.2390 N.am  147  ASP147     -0.1957
    193  CA        74.9160   22.0410   -5.5210 C.3   147  ASP147      0.1840
    194  C         75.1910   21.2160   -6.7770 C.2   147  ASP147      0.2622
    195  O         74.6820   21.5010   -7.8630 O.2   147  ASP147     -0.2715
    196  CB        73.7910   23.0560   -5.7280 C.3   147  ASP147      0.1450
    197  CG        72.4550   22.4140   -5.9640 C.2   147  ASP147      0.3671
    198  OD1       72.1800   21.3570   -5.3580 O.co2 147  ASP147     -0.2456
    199  OD2       71.6050   22.9080   -6.7370 O.co2 147  ASP147     -0.2456
    200  N         76.0430   20.2100   -6.6110 N.am  148  PHE148     -0.1974
    201  CA        76.4790   19.3570   -7.7090 C.3   148  PHE148      0.1639
    202  C         75.4300   18.2680   -7.9520 C.2   148  PHE148      0.2290
    203  O         74.8050   18.2370   -9.0090 O.2   148  PHE148     -0.2864
    204  CB        77.8650   18.7680   -7.4080 C.3   148  PHE148      0.0560
    205  CG        78.9340   19.8130   -7.1990 C.ar  148  PHE148     -0.0200
    206  CD1       79.1840   20.3310   -5.9330 C.ar  148  PHE148     -0.0042
    207  CD2       79.6850   20.2820   -8.2660 C.ar  148  PHE148     -0.0042
    208  CE1       80.1650   21.3000   -5.7360 C.ar  148  PHE148     -0.0003
    209  CE2       80.6690   21.2500   -8.0780 C.ar  148  PHE148     -0.0003
    210  CZ        80.9060   21.7600   -6.8100 C.ar  148  PHE148     -0.0000
    211  N         75.3460   14.9710   -8.4910 N.3   150  LEU150     -0.1245
    212  CA        75.4960   14.1120   -9.6620 C.3   150  LEU150      0.1561
    213  C         75.3150   12.6340   -9.3120 C.2   150  LEU150      0.2260
    214  O         75.5320   12.2210   -8.1690 O.2   150  LEU150     -0.2867
    215  CB        76.8550   14.3520  -10.3280 C.3   150  LEU150      0.0270
    216  CG        77.1750   15.8100  -10.6630 C.3   150  LEU150      0.0019
    217  CD1       78.6420   15.9580  -11.0480 C.3   150  LEU150      0.0001
    218  CD2       76.2740   16.3290  -11.7710 C.3   150  LEU150      0.0001
@<TRIPOS>BOND
     1    27    25    1
     2    26    25    1
     3     1     2    1
     4    25    22    1
     5     8     6    1
     6    12    11    2
     7     2     3    1
     8     2     5    1
     9    24    23    2
    10    11    10    1
    11     6     5    1
    12    22    21    1
    13    22    23    1
    14     3     4    2
    15    21    18   am
    16    23    28   am
    17     5     7    1
    18    30    31    2
    19    30    29    1
    20     9    10    1
    21    10    13    1
    22    18    17    1
    23    18    19    2
    24   132   130   ar
    25   132   131   ar
    26   130   128   ar
    27    16    17    1
    28   131   129   ar
    29    17    20    1
    30    28    29    1
    31   128   127   ar
    32   128   126   ar
    33   129   126   ar
    34   127   125   ar
    35   126   124   ar
    36    29    32    1
    37   125   124   ar
    38   124   123    1
    39   123   120    1
    40    13    14    1
    41    13    15    1
    42    95    96    1
    43    98    97    2
    44    97    96    1
    45   106   105    2
    46    32    33    1
    47    96    99    1
    48   120   119    1
    49   120   121    1
    50   103   104    1
    51   119   112   am
    52    33    34    1
    53   105   104    1
    54   105   110   am
    55   121   122    2
    56   121   133   am
    57   112   111    1
    58   112   113    2
    59   104   107    1
    60   111   110    1
    61   111   114    1
    62    99   100    1
    63    99   101    1
    64   136   135    2
    65    34    35    1
    66   133   134    1
    67   218   216    1
    68   100   102    1
    69   108   107    1
    70   135   134    1
    71   107   109    1
    72   114   115    1
    73   139   140    1
    74   217   216    1
    75   134   137    1
    76    35    36    1
    77    94    92   ar
    78    94    93   ar
    79   142   141    2
    80    92    90   ar
    81   216   215    1
    82   215   212    1
    83   140   141    1
    84    93    91   ar
    85    86    87    2
    86    86    85    1
    87    90    89   ar
    88   115   116    1
    89   137   138    1
    90   212   213    1
    91   212   211    1
    92   179   178   ar
    93   179   177   ar
    94    91    89   ar
    95   213   214    2
    96    89    88    1
    97   178   176   ar
    98    85    88    1
    99    85    84    1
   100   118   116   am
   101   203   202    2
   102   116   117    2
   103   177   175   ar
   104    82    81    1
   105   207   209   ar
   106   207   205   ar
   107   176   174   ar
   108   209   210   ar
   109    83    81    1
   110   202   201    1
   111   195   194    2
   112   201   204    1
   113   201   200    1
   114    81    80    1
   115    59    58    1
   116   204   205    1
   117   175   174   ar
   118   205   206   ar
   119   174   173    1
   120   210   208   ar
   121   194   200   am
   122   194   193    1
   123   199   197   ar
   124    41    42    1
   125    41    38    1
   126    39    38    1
   127    39    40    2
   128    57    58    1
   129    57    54    1
   130    42    43    1
   131    58    60    1
   132    78    79    2
   133    78    77    1
   134    80    77    1
   135    37    38    1
   136   173   170    1
   137   197   196    1
   138   197   198   ar
   139   206   208   ar
   140   196   193    1
   141    77    76    1
   142   193   192    1
   143   192   190   am
   144    55    56    2
   145    55    54    1
   146    54    53    1
   147    43    44   ar
   148    43    45   ar
   149   170   171    1
   150   170   169    1
   151    53    48   am
   152   171   172    2
   153    76    70   am
   154   190   189    1
   155   190   191    2
   156    71    70    2
   157   189   188    1
   158    46    47    1
   159    64    63    2
   160    66    65    1
   161    70    69    1
   162    48    47    1
   163    48    49    2
   164   188   182   am
   165   183   182    2
   166    47    50    1
   167    63    62    1
   168   182   181    1
   169    61    62    1
   170    50    52    1
   171    50    51    1
   172    65    62    1
   173    65    67    1
   174    74    72    1
   175    69    72    1
   176    69    68    1
   177   180   181    1
   178   181   184    1
   179    72    73    1
   180   168   167   ar
   181   168   166   ar
   182   167   165   ar
   183   184   186    1
   184   184   185    1
   185    73    75    1
   186   166   164   ar
   187   165   164   ar
   188   185   187    1
   189   162   161    2
   190   164   163    1
   191   158   156    1
   192   150   148    1
   193   157   155    1
   194   161   160    1
   195   156   155    1
   196   149   148    1
   197   160   163    1
   198   160   159    1
   199   148   147    1
   200   155   152    1
   201   147   144    1
   202   152   153    1
   203   152   151    1
   204   144   143    1
   205   144   145    1
   206   153   154    2
   207   146   145    2
