@<TRIPOS>MOLECULE
tmp/4xvcF00.pdb
 133 126 0 0 0
SMALL
GASTEIGER

@<TRIPOS>ATOM
      1  N         73.6160  -14.7660  -63.3520 N.3    17  ARG17      -0.1245
      2  CA        73.4690  -13.3220  -63.5180 C.3    17  ARG17       0.1563
      3  C         73.5670  -12.5720  -62.1820 C.2    17  ARG17       0.2260
      4  O         74.3030  -11.5960  -62.0610 O.2    17  ARG17      -0.2867
      5  CB        72.1640  -12.9820  -64.2280 C.3    17  ARG17       0.0307
      6  CG        71.8290  -11.4910  -64.1570 C.3    17  ARG17       0.0489
      7  CD        70.7140  -11.1450  -65.0890 C.3    17  ARG17       0.2205
      8  NE        70.2500   -9.7750  -64.8810 N.pl3  17  ARG17      -0.0865
      9  CZ        69.0990   -9.4740  -64.3030 C.cat  17  ARG17       0.5346
     10  NH1       68.2950  -10.4460  -63.8820 N.pl3  17  ARG17       0.1354
     11  NH2       68.7400   -8.2030  -64.1610 N.pl3  17  ARG17       0.1354
     12  N         71.5100   -8.3500  -68.3080 N.3    32  TYR32      -0.1241
     13  CA        70.1300   -8.8360  -68.4310 C.3    32  TYR32       0.1605
     14  C         69.9320   -9.4170  -69.8240 C.2    32  TYR32       0.2264
     15  O         69.3610  -10.4940  -70.0010 O.2    32  TYR32      -0.2867
     16  CB        69.1720   -7.6540  -68.2360 C.3    32  TYR32       0.0534
     17  CG        67.7290   -7.9940  -67.9490 C.ar   32  TYR32      -0.0201
     18  CD1       67.3360   -9.2860  -67.5910 C.ar   32  TYR32      -0.0009
     19  CD2       66.7580   -7.0020  -67.9990 C.ar   32  TYR32      -0.0009
     20  CE1       65.9960   -9.5740  -67.3030 C.ar   32  TYR32       0.0417
     21  CE2       65.4280   -7.2780  -67.7240 C.ar   32  TYR32       0.0417
     22  CZ        65.0520   -8.5540  -67.3830 C.ar   32  TYR32       0.1957
     23  OH        63.7240   -8.7850  -67.1280 O.3    32  TYR32      -0.2866
     24  N         59.6570   -5.4740  -67.9290 N.3    76  GLY76      -0.1210
     25  CA        60.1910   -5.2500  -66.5980 C.3    76  GLY76       0.1956
     26  C         61.6660   -4.8910  -66.6360 C.2    76  GLY76       0.2612
     27  O         62.2440   -4.7400  -67.7130 O.2    76  GLY76      -0.2717
     28  N         62.2860   -4.7610  -65.4670 N.am   77  GLY77      -0.1942
     29  CA        63.6150   -4.1830  -65.3810 C.3    77  GLY77       0.2014
     30  C         63.7100   -3.0430  -64.3710 C.2    77  GLY77       0.2639
     31  O         64.6310   -2.2360  -64.4200 O.2    77  GLY77      -0.2714
     32  N         62.7440   -2.9620  -63.4630 N.am   78  GLY78      -0.1954
     33  CA        62.7500   -1.9240  -62.4440 C.3    78  GLY78       0.1869
     34  C         62.6670   -0.4880  -62.9600 C.2    78  GLY78       0.2309
     35  O         63.0760    0.4400  -62.2640 O.2    78  GLY78      -0.2863
     36  N         66.2940   -1.0720  -66.4600 N.3    81  ILE81      -0.1245
     37  CA        66.8780   -1.9290  -67.4920 C.3    81  ILE81       0.1561
     38  C         65.7730   -2.6300  -68.2790 C.2    81  ILE81       0.2260
     39  O         64.5840   -2.3830  -68.0410 O.2    81  ILE81      -0.2867
     40  CB        67.8720   -2.9490  -66.8970 C.3    81  ILE81       0.0252
     41  CG1       67.1470   -3.9730  -66.0250 C.3    81  ILE81       0.0019
     42  CG2       68.9350   -2.2220  -66.0660 C.3    81  ILE81       0.0019
     43  CD1       68.0850   -5.1060  -65.4690 C.3    81  ILE81       0.0001
     44  N         55.4680   -7.1540  -67.0270 N.3   144  ASP144     -0.1225
     45  CA        56.0720   -7.9250  -65.9480 C.3   144  ASP144      0.1805
     46  C         56.8850   -7.0190  -65.0360 C.2   144  ASP144      0.2598
     47  O         57.4900   -6.0420  -65.5060 O.2   144  ASP144     -0.2718
     48  CB        56.9710   -9.0360  -66.5210 C.3   144  ASP144      0.1424
     49  CG        58.0650   -8.4950  -67.4430 C.2   144  ASP144      0.3668
     50  OD1       57.7700   -8.1620  -68.6110 O.co2 144  ASP144     -0.2456
     51  OD2       59.2360   -8.4100  -67.0080 O.co2 144  ASP144     -0.2456
     52  N         56.9070   -7.3500  -63.7450 N.am  145  SER145     -0.1938
     53  CA        57.6530   -6.5930  -62.7400 C.3   145  SER145      0.2055
     54  C         57.2660   -5.1120  -62.7850 C.2   145  SER145      0.2642
     55  O         56.0890   -4.7800  -62.6930 O.2   145  SER145     -0.2714
     56  CB        59.1610   -6.7910  -62.9160 C.3   145  SER145      0.2130
     57  OG        59.8780   -6.4530  -61.7410 O.3   145  SER145     -0.2179
     58  N         58.2450   -4.2290  -62.9360 N.am  146  ALA146     -0.1977
     59  CA        57.9380   -2.8030  -63.1330 C.3   146  ALA146      0.1597
     60  C         56.8140   -2.6090  -64.1540 C.2   146  ALA146      0.2287
     61  O         55.9080   -1.7840  -63.9530 O.2   146  ALA146     -0.2864
     62  CB        59.1760   -2.0470  -63.5510 C.3   146  ALA146      0.0319
     63  N         55.3240   -5.1950  -59.7580 N.3   175  TRP175     -0.1241
     64  CA        55.9070   -4.4100  -58.6880 C.3   175  TRP175      0.1605
     65  C         55.0250   -3.1590  -58.5080 C.2   175  TRP175      0.2264
     66  O         54.9920   -2.2900  -59.3870 O.2   175  TRP175     -0.2867
     67  CB        57.3210   -4.0370  -59.0790 C.3   175  TRP175      0.0550
     68  CG        58.0480   -3.1870  -58.0770 C.ar  175  TRP175      0.0003
     69  CD1       57.8850   -3.1860  -56.7250 C.ar  175  TRP175      0.0946
     70  CD2       59.0550   -2.2200  -58.3650 C.ar  175  TRP175      0.0152
     71  NE1       58.7450   -2.2710  -56.1460 N.ar  175  TRP175     -0.2442
     72  CE2       59.4780   -1.6730  -57.1360 C.ar  175  TRP175      0.0810
     73  CE3       59.6490   -1.7620  -59.5460 C.ar  175  TRP175      0.0012
     74  CZ2       60.4530   -0.6940  -57.0570 C.ar  175  TRP175      0.0191
     75  CZ3       60.6160   -0.7900  -59.4640 C.ar  175  TRP175      0.0001
     76  CH2       61.0110   -0.2660  -58.2310 C.ar  175  TRP175      0.0015
     77  N         66.4790  -14.0020  -57.4910 N.3   194  SER194     -0.1202
     78  CA        66.7380  -12.8440  -58.3640 C.3   194  SER194      0.2020
     79  C         66.3040  -11.4700  -57.8480 C.2   194  SER194      0.2618
     80  O         66.8250  -10.4510  -58.2930 O.2   194  SER194     -0.2717
     81  CB        66.1650  -13.0730  -59.7610 C.3   194  SER194      0.2103
     82  OG        64.8520  -13.5860  -59.6980 O.3   194  SER194     -0.2182
     83  N         65.3440  -11.4330  -56.9320 N.am  195  VAL195     -0.1979
     84  CA        64.8760  -10.1520  -56.4230 C.3   195  VAL195      0.1595
     85  C         65.0410  -10.0780  -54.9090 C.2   195  VAL195      0.2287
     86  O         64.7140  -11.0290  -54.1960 O.2   195  VAL195     -0.2864
     87  CB        63.4050   -9.9070  -56.7820 C.3   195  VAL195      0.0276
     88  CG1       62.9970   -8.4700  -56.4100 C.3   195  VAL195      0.0022
     89  CG2       63.1760  -10.1430  -58.2620 C.3   195  VAL195      0.0022
     90  N         67.9240   -4.4340  -53.4940 N.3   199  ARG199     -0.1231
     91  CA        67.9160   -4.1490  -54.9270 C.3   199  ARG199      0.1694
     92  C         66.7180   -3.3000  -55.3140 C.2   199  ARG199      0.2591
     93  O         66.8400   -2.3600  -56.0950 O.2   199  ARG199     -0.2718
     94  CB        67.8560   -5.4530  -55.7190 C.3   199  ARG199      0.0321
     95  CG        69.1140   -5.7610  -56.4960 C.3   199  ARG199      0.0489
     96  CD        69.5950   -7.1820  -56.2340 C.3   199  ARG199      0.2205
     97  NE        71.0160   -7.3390  -56.5360 N.pl3 199  ARG199     -0.0865
     98  CZ        71.4960   -7.9600  -57.6080 C.cat 199  ARG199      0.5346
     99  NH1       70.6730   -8.5030  -58.4930 N.pl3 199  ARG199      0.1354
    100  NH2       72.8070   -8.0430  -57.7910 N.pl3 199  ARG199      0.1354
    101  N         65.5530   -3.6600  -54.7950 N.am  200  VAL200     -0.1980
    102  CA        64.3100   -2.9830  -55.1750 C.3   200  VAL200      0.1595
    103  C         64.3320   -1.5420  -54.6980 C.2   200  VAL200      0.2287
    104  O         63.9410   -0.6190  -55.4110 O.2   200  VAL200     -0.2864
    105  CB        63.0710   -3.7140  -54.6130 C.3   200  VAL200      0.0276
    106  CG1       61.8220   -2.8610  -54.7740 C.3   200  VAL200      0.0022
    107  CG2       62.8790   -5.0590  -55.3080 C.3   200  VAL200      0.0022
    108  N         66.8150    0.5610  -56.8480 N.3   203  ILE203     -0.1245
    109  CA        66.2150    0.8410  -58.1400 C.3   203  ILE203      0.1561
    110  C         65.0680    1.8570  -58.0240 C.2   203  ILE203      0.2260
    111  O         64.9460    2.7620  -58.8470 O.2   203  ILE203     -0.2867
    112  CB        65.7290   -0.4570  -58.7820 C.3   203  ILE203      0.0252
    113  CG1       66.9300   -1.3570  -59.0780 C.3   203  ILE203      0.0019
    114  CG2       64.9830   -0.1740  -60.0530 C.3   203  ILE203      0.0019
    115  CD1       68.0470   -0.6460  -59.8080 C.3   203  ILE203      0.0001
    116  N         58.3250  -10.6230  -54.3180 N.3   241  LEU241     -0.1245
    117  CA        57.2540   -9.7750  -54.8400 C.3   241  LEU241      0.1561
    118  C         55.8720  -10.4050  -54.6960 C.2   241  LEU241      0.2260
    119  O         54.8760   -9.8400  -55.1510 O.2   241  LEU241     -0.2867
    120  CB        57.5130   -9.4250  -56.3130 C.3   241  LEU241      0.0270
    121  CG        58.4760   -8.2750  -56.5660 C.3   241  LEU241      0.0019
    122  CD1       58.8120   -8.2460  -58.0400 C.3   241  LEU241      0.0001
    123  CD2       57.8760   -6.9140  -56.1060 C.3   241  LEU241      0.0001
    124  N         60.9300  -15.2850  -60.2500 N.3   269  HIS269     -0.1241
    125  CA        60.4720  -14.0430  -60.8720 C.3   269  HIS269      0.1621
    126  C         60.3750  -14.1340  -62.3980 C.2   269  HIS269      0.2264
    127  O         61.3550  -14.4620  -63.0580 O.2   269  HIS269     -0.2867
    128  CB        61.4460  -12.9230  -60.4960 C.3   269  HIS269      0.0745
    129  CG        61.0180  -11.5680  -60.9720 C.ar  269  HIS269      0.0817
    130  ND1       59.8900  -10.9360  -60.4930 N.ar  269  HIS269     -0.2268
    131  CD2       61.5640  -10.7290  -61.8870 C.ar  269  HIS269      0.1154
    132  CE1       59.7600   -9.7630  -61.0940 C.ar  269  HIS269      0.1986
    133  NE2       60.7600   -9.6120  -61.9450 N.ar  269  HIS269     -0.2212
@<TRIPOS>BOND
     1    15    14    2
     2    14    13    1
     3    50    49   ar
     4    13    12    1
     5    13    16    1
     6    38    39    2
     7    38    37    1
     8    16    17    1
     9    19    17   ar
    10    19    21   ar
    11    17    18   ar
    12    24    25    1
    13    21    22   ar
    14    27    26    2
    15    18    20   ar
    16    37    40    1
    17    37    36    1
    18    49    51   ar
    19    49    48    1
    20    22    20   ar
    21    22    23    1
    22    44    45    1
    23    40    42    1
    24    40    41    1
    25    26    25    1
    26    26    28   am
    27    48    45    1
    28    41    43    1
    29    45    46    1
    30    47    46    2
    31    28    29    1
    32    29    30    1
    33     7     8    1
    34     7     6    1
    35    46    52   am
    36     8     9    2
    37    31    30    2
    38    30    32   am
    39     9    11    1
    40     9    10    1
    41     5     6    1
    42     5     2    1
    43    60    61    2
    44    60    59    1
    45    52    53    1
    46    62    59    1
    47     2     1    1
    48     2     3    1
    49    32    33    1
    50    59    58    1
    51   127   126    2
    52    34    33    1
    53    34    35    2
    54    58    54   am
    55    56    53    1
    56    56    57    1
    57    54    53    1
    58    54    55    2
    59   126   125    1
    60     3     4    2
    61   133   131   ar
    62   133   132   ar
    63   131   129   ar
    64   132   130   ar
    65   129   128    1
    66   129   130   ar
    67   125   128    1
    68   125   124    1
    69   114   112    1
    70   115   113    1
    71    81    82    1
    72    81    78    1
    73    63    64    1
    74    73    75   ar
    75    73    70   ar
    76    75    76   ar
    77    66    65    2
    78    67    64    1
    79    67    68    1
    80   113   112    1
    81   111   110    2
    82   112   109    1
    83    64    65    1
    84    99    98    1
    85    70    68   ar
    86    70    72   ar
    87    78    79    1
    88    78    77    1
    89    80    79    2
    90    89    87    1
    91    76    74   ar
    92   109   110    1
    93   109   108    1
    94    68    69   ar
    95   122   121    1
    96    79    83   am
    97   100    98    1
    98    98    97    2
    99    72    74   ar
   100    72    71   ar
   101    83    84    1
   102    87    84    1
   103    87    88    1
   104    69    71   ar
   105   121   120    1
   106   121   123    1
   107    97    96    1
   108    95    96    1
   109    95    94    1
   110    84    85    1
   111   120   117    1
   112    93    92    2
   113    94    91    1
   114   104   103    2
   115    92    91    1
   116    92   101   am
   117   107   105    1
   118   102   101    1
   119   102   103    1
   120   102   105    1
   121   119   118    2
   122    91    90    1
   123    85    86    2
   124   117   118    1
   125   117   116    1
   126   106   105    1
