@<TRIPOS>MOLECULE
tmp/4xvdA01.pdb
 199 199 0 0 0
SMALL
GASTEIGER

@<TRIPOS>ATOM
      1  N        164.9660   35.7420   30.7770 N.3    19  TYR19      -0.1241
      2  CA       165.4150   34.8410   29.7420 C.3    19  TYR19       0.1605
      3  C        164.7260   35.1930   28.4680 C.2    19  TYR19       0.2264
      4  O        163.5280   35.4620   28.4880 O.2    19  TYR19      -0.2867
      5  CB       165.1180   33.3710   30.0320 C.3    19  TYR19       0.0534
      6  CG       165.6460   32.5390   28.9000 C.ar   19  TYR19      -0.0201
      7  CD1      167.0280   32.3800   28.7360 C.ar   19  TYR19      -0.0009
      8  CD2      164.8040   32.0010   27.9340 C.ar   19  TYR19      -0.0009
      9  CE1      167.5620   31.6580   27.6830 C.ar   19  TYR19       0.0417
     10  CE2      165.3320   31.2750   26.8700 C.ar   19  TYR19       0.0417
     11  CZ       166.7110   31.1180   26.7600 C.ar   19  TYR19       0.1957
     12  OH       167.2740   30.4360   25.7360 O.3    19  TYR19      -0.2866
     13  N        173.4840   30.9420   32.4680 N.3    49  LEU49      -0.1231
     14  CA       172.9110   30.2930   31.2990 C.3    49  LEU49       0.1693
     15  C        172.2220   31.3100   30.3760 C.2    49  LEU49       0.2592
     16  O        172.3560   31.2460   29.1520 O.2    49  LEU49      -0.2718
     17  CB       171.9620   29.1330   31.6900 C.3    49  LEU49       0.0284
     18  CG       171.3280   28.3050   30.5360 C.3    49  LEU49       0.0019
     19  CD1      172.2490   27.2230   29.9640 C.3    49  LEU49       0.0001
     20  CD2      170.0420   27.6620   31.0120 C.3    49  LEU49       0.0001
     21  N        171.5030   32.2570   30.9590 N.am   50  TYR50      -0.1976
     22  CA       170.6840   33.1450   30.1410 C.3    50  TYR50       0.1639
     23  C        171.5350   33.9730   29.1700 C.2    50  TYR50       0.2290
     24  O        171.0100   34.5080   28.1840 O.2    50  TYR50      -0.2864
     25  CB       169.7700   34.0360   31.0060 C.3    50  TYR50       0.0560
     26  CG       168.8270   33.2430   31.8620 C.ar   50  TYR50      -0.0198
     27  CD1      168.5360   31.9280   31.5550 C.ar   50  TYR50      -0.0009
     28  CD2      168.2230   33.7910   32.9760 C.ar   50  TYR50      -0.0009
     29  CE1      167.6850   31.1840   32.3330 C.ar   50  TYR50       0.0417
     30  CE2      167.3530   33.0400   33.7630 C.ar   50  TYR50       0.0417
     31  CZ       167.0970   31.7390   33.4240 C.ar   50  TYR50       0.1957
     32  OH       166.2630   30.9260   34.1490 O.3    50  TYR50      -0.2866
     33  N        175.5190   27.6400   36.9670 N.3    81  TRP81      -0.1241
     34  CA       175.2190   26.6190   35.9720 C.3    81  TRP81       0.1605
     35  C        175.8260   25.2680   36.3520 C.2    81  TRP81       0.2264
     36  O        176.7670   25.1970   37.1730 O.2    81  TRP81      -0.2867
     37  CB       175.6740   27.0560   34.5800 C.3    81  TRP81       0.0550
     38  CG       175.2840   26.0970   33.5580 C.ar   81  TRP81       0.0003
     39  CD1      176.1090   25.4580   32.6830 C.ar   81  TRP81       0.0946
     40  CD2      173.9650   25.6030   33.3150 C.ar   81  TRP81       0.0152
     41  NE1      175.3820   24.6100   31.8880 N.ar   81  TRP81      -0.2442
     42  CE2      174.0630   24.6640   32.2640 C.ar   81  TRP81       0.0810
     43  CE3      172.7060   25.8630   33.8800 C.ar   81  TRP81       0.0012
     44  CZ2      172.9420   23.9670   31.7640 C.ar   81  TRP81       0.0191
     45  CZ3      171.5890   25.1700   33.3860 C.ar   81  TRP81       0.0001
     46  CH2      171.7180   24.2360   32.3330 C.ar   81  TRP81       0.0015
     47  N        171.2620   26.6820   39.8840 N.3   112  HIS112     -0.1226
     48  CA       170.2750   26.6410   38.8240 C.3   112  HIS112      0.1752
     49  C        169.5060   25.3270   38.7970 C.2   112  HIS112      0.2596
     50  O        168.2810   25.3460   38.6950 O.2   112  HIS112     -0.2718
     51  CB       170.9300   26.9080   37.4660 C.3   112  HIS112      0.0759
     52  CG       170.0140   27.5120   36.4440 C.ar  112  HIS112      0.0818
     53  ND1      170.4270   28.4960   35.5710 N.ar  112  HIS112     -0.2268
     54  CD2      168.7150   27.2660   36.1460 C.ar  112  HIS112      0.1154
     55  CE1      169.4190   28.8410   34.7900 C.ar  112  HIS112      0.1986
     56  NE2      168.3700   28.1070   35.1170 N.ar  112  HIS112     -0.2212
     57  N        170.2150   24.1990   38.8760 N.am  113  SER113     -0.1952
     58  CA       169.5740   22.8630   38.8710 C.3   113  SER113      0.1924
     59  C        170.4420   21.8230   39.5830 C.2   113  SER113      0.2314
     60  O        171.6490   22.0010   39.6400 O.2   113  SER113     -0.2863
     61  CB       169.2730   22.4090   37.4270 C.3   113  SER113      0.2116
     62  OG       169.1760   20.9960   37.3250 O.3   113  SER113     -0.2180
     63  N        170.9630   18.9960   38.4040 N.3   115  MET115     -0.1245
     64  CA       171.3870   18.0700   37.3570 C.3   115  MET115      0.1570
     65  C        172.7920   18.4180   36.8950 C.2   115  MET115      0.2261
     66  O        173.0110   19.1640   35.9360 O.2   115  MET115     -0.2867
     67  CB       170.3600   18.0120   36.2290 C.3   115  MET115      0.0387
     68  CG       169.1100   17.2820   36.6690 C.3   115  MET115      0.0595
     69  SD       167.8110   17.3000   35.4300 S.3   115  MET115     -0.1393
     70  CE       167.3820   19.0280   35.2940 C.3   115  MET115      0.0692
     71  N        165.0330   24.2040   41.2110 N.3   160  ASN160     -0.1240
     72  CA       164.7170   22.8550   40.6910 C.3   160  ASN160      0.1653
     73  C        164.9200   21.6730   41.6260 C.2   160  ASN160      0.2266
     74  O        165.0010   20.5340   41.1680 O.2   160  ASN160     -0.2867
     75  CB       165.4190   22.6090   39.3620 C.3   160  ASN160      0.1155
     76  CG       164.7880   23.3930   38.2620 C.2   160  ASN160      0.2627
     77  OD1      163.6060   23.2370   38.0240 O.2   160  ASN160     -0.2716
     78  ND2      165.5430   24.2900   37.6250 N.am  160  ASN160     -0.0877
     79  N        158.5580   29.9100   38.7270 N.3   209  TYR209     -0.1241
     80  CA       158.8680   30.2480   37.3470 C.3   209  TYR209      0.1605
     81  C        157.9250   29.6230   36.3520 C.2   209  TYR209      0.2264
     82  O        157.2630   28.6170   36.6330 O.2   209  TYR209     -0.2867
     83  CB       160.3100   29.9200   36.9810 C.3   209  TYR209      0.0534
     84  CG       160.7180   28.4590   36.8020 C.ar  209  TYR209     -0.0201
     85  CD1      160.2590   27.6910   35.7310 C.ar  209  TYR209     -0.0009
     86  CD2      161.6560   27.8680   37.6860 C.ar  209  TYR209     -0.0009
     87  CE1      160.6860   26.3810   35.5710 C.ar  209  TYR209      0.0417
     88  CE2      162.0880   26.5560   37.5200 C.ar  209  TYR209      0.0417
     89  CZ       161.6000   25.8310   36.4720 C.ar  209  TYR209      0.1957
     90  OH       162.0650   24.5690   36.3410 O.3   209  TYR209     -0.2866
     91  N        157.6150   29.9530   28.0270 N.3   215  GLN215     -0.1245
     92  CA       157.7890   30.4710   26.6780 C.3   215  GLN215      0.1566
     93  C        157.5110   29.3970   25.6260 C.2   215  GLN215      0.2260
     94  O        157.7060   29.6270   24.4350 O.2   215  GLN215     -0.2867
     95  CB       159.1880   31.0480   26.4970 C.3   215  GLN215      0.0367
     96  CG       159.5130   32.1300   27.5080 C.3   215  GLN215      0.0905
     97  CD       160.6770   32.9990   27.0860 C.2   215  GLN215      0.2608
     98  OE1      160.9530   33.1490   25.8900 O.2   215  GLN215     -0.2717
     99  NE2      161.3640   33.5790   28.0590 N.am  215  GLN215     -0.0878
    100  N        159.1460   26.8840   24.7470 N.3   217  ASP217     -0.1239
    101  CA       160.3430   26.6470   23.9510 C.3   217  ASP217      0.1674
    102  C        160.4380   25.2250   23.3520 C.2   217  ASP217      0.2266
    103  O        160.2700   24.2240   24.0620 O.2   217  ASP217     -0.2867
    104  CB       161.5830   26.9680   24.7800 C.3   217  ASP217      0.1410
    105  CG       162.8280   27.0340   23.9480 C.2   217  ASP217      0.3668
    106  OD1      163.0620   26.1000   23.1440 O.co2 217  ASP217     -0.2456
    107  OD2      163.5750   28.0230   24.0860 O.co2 217  ASP217     -0.2456
    108  N        162.7640   23.3090   22.4390 N.3   219  ARG219     -0.1231
    109  CA       163.7380   22.4140   23.0150 C.3   219  ARG219      0.1694
    110  C        163.0780   21.6560   24.1250 C.2   219  ARG219      0.2592
    111  O        163.2040   20.4450   24.2020 O.2   219  ARG219     -0.2718
    112  CB       164.9300   23.1870   23.5760 C.3   219  ARG219      0.0321
    113  CG       165.7560   23.8980   22.5220 C.3   219  ARG219      0.0489
    114  CD       166.4320   25.1140   23.1250 C.3   219  ARG219      0.2205
    115  NE       166.8580   26.0500   22.0930 N.pl3 219  ARG219     -0.0865
    116  CZ       166.0760   26.9990   21.5560 C.cat 219  ARG219      0.5346
    117  NH1      166.5560   27.8090   20.6090 N.pl3 219  ARG219      0.1354
    118  NH2      164.8090   27.1320   21.9500 N.pl3 219  ARG219      0.1354
    119  N        162.3420   22.3610   24.9770 N.am  220  TRP220     -0.1976
    120  CA       161.8370   21.7260   26.1840 C.3   220  TRP220      0.1640
    121  C        160.3610   21.2880   26.1640 C.2   220  TRP220      0.2290
    122  O        160.0450   20.1820   26.6370 O.2   220  TRP220     -0.2864
    123  CB       162.1710   22.5670   27.4200 C.3   220  TRP220      0.0576
    124  CG       163.6630   22.8370   27.6090 C.ar  220  TRP220      0.0006
    125  CD1      164.3340   23.9730   27.2700 C.ar  220  TRP220      0.0946
    126  CD2      164.6420   21.9560   28.1920 C.ar  220  TRP220      0.0152
    127  NE1      165.6640   23.8600   27.6040 N.ar  220  TRP220     -0.2442
    128  CE2      165.8820   22.6250   28.1520 C.ar  220  TRP220      0.0810
    129  CE3      164.5930   20.6630   28.7240 C.ar  220  TRP220      0.0012
    130  CZ2      167.0670   22.0490   28.6230 C.ar  220  TRP220      0.0191
    131  CZ3      165.7770   20.0900   29.2070 C.ar  220  TRP220      0.0001
    132  CH2      166.9950   20.7910   29.1570 C.ar  220  TRP220      0.0015
    133  N        158.4510   21.7840   30.9290 N.3   299  PHE299     -0.1227
    134  CA       159.8010   21.3110   30.5770 C.3   299  PHE299      0.1736
    135  C        159.9210   19.7870   30.6160 C.2   299  PHE299      0.2595
    136  O        159.4880   19.1530   31.5700 O.2   299  PHE299     -0.2718
    137  CB       160.8530   21.9440   31.4890 C.3   299  PHE299      0.0547
    138  CG       160.9870   23.4500   31.3400 C.ar  299  PHE299     -0.0202
    139  CD1      160.0180   24.2910   31.7190 C.ar  299  PHE299     -0.0042
    140  CD2      162.1060   24.0160   30.8660 C.ar  299  PHE299     -0.0042
    141  CE1      160.1520   25.6660   31.5850 C.ar  299  PHE299     -0.0003
    142  CE2      162.2420   25.3880   30.7300 C.ar  299  PHE299     -0.0003
    143  CZ       161.2620   26.2280   31.0840 C.ar  299  PHE299     -0.0000
    144  N        160.5010   19.2290   29.5480 N.am  300  ASN300     -0.1960
    145  CA       160.6870   17.7880   29.3590 C.3   300  ASN300      0.1819
    146  C        162.0100   17.4510   28.6780 C.2   300  ASN300      0.2622
    147  O        162.5250   18.2150   27.8560 O.2   300  ASN300     -0.2715
    148  CB       159.5900   17.2020   28.4730 C.3   300  ASN300      0.1195
    149  CG       158.2570   17.1630   29.1460 C.2   300  ASN300      0.2630
    150  OD1      157.3990   17.9960   28.8660 O.2   300  ASN300     -0.2716
    151  ND2      158.0720   16.2120   30.0450 N.am  300  ASN300     -0.0877
    152  N        162.5350   16.2890   29.0130 N.am  301  SER301     -0.1950
    153  CA       163.7120   15.7630   28.4010 C.3   301  SER301      0.1924
    154  C        163.6870   14.3110   28.6760 C.2   301  SER301      0.2314
    155  O        163.5190   13.9070   29.7970 O.2   301  SER301     -0.2863
    156  CB       164.9470   16.3500   29.0240 C.3   301  SER301      0.2116
    157  OG       166.0450   16.1900   28.1560 O.3   301  SER301     -0.2180
    158  N        167.3200   14.0100   30.1500 N.3   304  PHE304     -0.1241
    159  CA       167.4870   14.4000   31.5260 C.3   304  PHE304      0.1605
    160  C        166.6240   13.6280   32.4870 C.2   304  PHE304      0.2264
    161  O        166.9280   13.5600   33.6470 O.2   304  PHE304     -0.2867
    162  CB       167.2370   15.8800   31.6840 C.3   304  PHE304      0.0534
    163  CG       168.3940   16.7160   31.2790 C.ar  304  PHE304     -0.0203
    164  CD1      169.4660   16.8560   32.1060 C.ar  304  PHE304     -0.0042
    165  CD2      168.4100   17.3410   30.0580 C.ar  304  PHE304     -0.0042
    166  CE1      170.5370   17.6120   31.7390 C.ar  304  PHE304     -0.0003
    167  CE2      169.4810   18.1060   29.6840 C.ar  304  PHE304     -0.0003
    168  CZ       170.5520   18.2440   30.5310 C.ar  304  PHE304     -0.0000
    169  N        167.3280   13.8710   38.4690 N.3   310  TYR310     -0.1228
    170  CA       166.0760   14.3200   37.8760 C.3   310  TYR310      0.1721
    171  C        165.0930   14.5580   38.9930 C.2   310  TYR310      0.2437
    172  O        164.8850   13.6770   39.8080 O.2   310  TYR310     -0.2733
    173  CB       165.5370   13.2570   36.9240 C.3   310  TYR310      0.0547
    174  CG       164.3160   13.6540   36.1280 C.ar  310  TYR310     -0.0200
    175  CD1      164.3440   14.7380   35.2240 C.ar  310  TYR310     -0.0009
    176  CD2      163.1440   12.9400   36.2530 C.ar  310  TYR310     -0.0009
    177  CE1      163.2220   15.0870   34.4880 C.ar  310  TYR310      0.0417
    178  CE2      162.0230   13.2780   35.5280 C.ar  310  TYR310      0.0417
    179  CZ       162.0550   14.3380   34.6520 C.ar  310  TYR310      0.1957
    180  OH       160.8840   14.6030   33.9660 O.3   310  TYR310     -0.2866
    181  N        164.5170   15.7640   39.0630 N.am  311  PRO311     -0.2718
    182  CA       163.6590   16.0750   40.2330 C.3   311  PRO311      0.1535
    183  C        162.2520   15.4890   40.2350 C.2   311  PRO311      0.2598
    184  O        161.7420   15.1990   41.3090 O.2   311  PRO311     -0.2715
    185  CB       163.5720   17.6090   40.2350 C.3   311  PRO311      0.0310
    186  CG       164.0710   18.0630   38.8940 C.3   311  PRO311      0.0237
    187  CD       164.8840   16.9600   38.2730 C.3   311  PRO311      0.0939
    188  N        161.6150   15.3410   39.0780 N.am  312  TYR312     -0.1974
    189  CA       160.2250   14.8790   39.0290 C.3   312  TYR312      0.1639
    190  C        160.1860   13.3660   38.8810 C.2   312  TYR312      0.2290
    191  O        161.0180   12.7820   38.2030 O.2   312  TYR312     -0.2864
    192  CB       159.4380   15.5130   37.8690 C.3   312  TYR312      0.0560
    193  CG       159.6340   17.0080   37.6370 C.ar  312  TYR312     -0.0198
    194  CD1      159.4750   17.9460   38.6710 C.ar  312  TYR312     -0.0009
    195  CD2      159.9560   17.4910   36.3820 C.ar  312  TYR312     -0.0009
    196  CE1      159.6490   19.3000   38.4490 C.ar  312  TYR312      0.0417
    197  CE2      160.1280   18.8450   36.1670 C.ar  312  TYR312      0.0417
    198  CZ       159.9720   19.7380   37.2040 C.ar  312  TYR312      0.1957
    199  OH       160.1430   21.0920   36.9850 O.3   312  TYR312     -0.2866
@<TRIPOS>BOND
     1   117   116    1
     2   116   118    1
     3   116   115    2
     4   115   114    1
     5   108   109    1
     6   113   114    1
     7   113   112    1
     8   109   112    1
     9   109   110    1
    10   106   105   ar
    11   102   101    1
    12   102   103    2
    13   105   107   ar
    14   105   104    1
    15   101   100    1
    16   101   104    1
    17   110   111    2
    18   110   119   am
    19    94    93    2
    20   119   120    1
    21    93    92    1
    22    12    11    1
    23    98    97    2
    24   121   120    1
    25   121   122    2
    26   120   123    1
    27    95    92    1
    28    95    96    1
    29    92    91    1
    30    11    10   ar
    31    11     9   ar
    32    10     8   ar
    33    97    96    1
    34    97    99   am
    35   125   127   ar
    36   125   124   ar
    37   123   124    1
    38   127   128   ar
    39   124   126   ar
    40     9     7   ar
    41   147   146    2
    42     8     6   ar
    43   128   126   ar
    44   128   130   ar
    45   157   156    1
    46    24    23    2
    47   126   129   ar
    48   153   154    1
    49   153   152    1
    50   153   156    1
    51     3     4    2
    52     3     2    1
    53   148   149    1
    54   148   145    1
    55   130   132   ar
    56   154   155    2
    57   146   152   am
    58   146   145    1
    59   129   131   ar
    60     7     6   ar
    61   150   149    2
    62     6     5    1
    63   149   151   am
    64    16    15    2
    65   132   131   ar
    66    23    22    1
    67   145   144    1
    68   144   135   am
    69   167   165   ar
    70   167   168   ar
    71     2     5    1
    72     2     1    1
    73    19    18    1
    74   165   163   ar
    75    22    21    1
    76    22    25    1
    77   158   159    1
    78    15    21   am
    79    15    14    1
    80   168   166   ar
    81    18    20    1
    82    18    17    1
    83   134   135    1
    84   134   133    1
    85   134   137    1
    86   135   136    2
    87   142   140   ar
    88   142   143   ar
    89   140   138   ar
    90    25    26    1
    91   143   141   ar
    92   163   162    1
    93   163   164   ar
    94    14    17    1
    95    14    13    1
    96   138   137    1
    97   138   139   ar
    98   159   162    1
    99   159   160    1
   100    27    26   ar
   101    27    29   ar
   102   141   139   ar
   103   166   164   ar
   104    44    42   ar
   105    44    46   ar
   106    26    28   ar
   107    41    42   ar
   108    41    39   ar
   109    42    40   ar
   110    29    31   ar
   111    46    45   ar
   112   160   161    2
   113    39    38   ar
   114    28    30   ar
   115    40    38   ar
   116    40    43   ar
   117    45    43   ar
   118    31    30   ar
   119    31    32    1
   120    38    37    1
   121   180   179    1
   122   177   179   ar
   123   177   175   ar
   124    37    34    1
   125   179   178   ar
   126    55    56   ar
   127    55    53   ar
   128    56    54   ar
   129   175   174   ar
   130    70    69    1
   131    69    68    1
   132   178   176   ar
   133    53    52   ar
   134    87    85   ar
   135    87    89   ar
   136    85    84   ar
   137    66    65    2
   138    34    35    1
   139    34    33    1
   140   174   176   ar
   141   174   173    1
   142    54    52   ar
   143   197   195   ar
   144   197   198   ar
   145    67    68    1
   146    67    64    1
   147    90    89    1
   148    81    82    2
   149    81    80    1
   150    35    36    2
   151   195   193   ar
   152    52    51    1
   153    89    88   ar
   154    84    83    1
   155    84    86   ar
   156    65    64    1
   157   173   170    1
   158    83    80    1
   159   199   198    1
   160   198   196   ar
   161    62    61    1
   162    80    79    1
   163    64    63    1
   164    61    58    1
   165    51    48    1
   166    88    86   ar
   167    78    76   am
   168   193   192    1
   169   193   194   ar
   170   192   189    1
   171   170   169    1
   172   170   171    1
   173    77    76    2
   174   191   190    2
   175    76    75    1
   176   187   186    1
   177   187   181    1
   178   196   194   ar
   179    50    49    2
   180    49    48    1
   181    49    57   am
   182    48    47    1
   183    58    57    1
   184    58    59    1
   185   190   189    1
   186   186   185    1
   187   171   181   am
   188   171   172    2
   189   189   188    1
   190   181   182    1
   191   188   183   am
   192    75    72    1
   193    59    60    2
   194   182   185    1
   195   182   183    1
   196   183   184    2
   197    72    71    1
   198    72    73    1
   199    74    73    2
