@<TRIPOS>MOLECULE
tmp/4xveA01.pdb
 225 223 0 0 0
SMALL
GASTEIGER

@<TRIPOS>ATOM
      1  N          2.0100   34.5760   38.4830 N.3    19  TYR19      -0.1241
      2  CA         0.6550   34.7770   38.0160 C.3    19  TYR19       0.1605
      3  C         -0.2450   35.3330   39.1470 C.2    19  TYR19       0.2264
      4  O         -0.2380   34.8500   40.3230 O.2    19  TYR19      -0.2867
      5  CB         0.0270   33.4320   37.5180 C.3    19  TYR19       0.0534
      6  CG        -1.4270   33.6710   37.0710 C.ar   19  TYR19      -0.0201
      7  CD1       -1.7060   34.2310   35.8260 C.ar   19  TYR19      -0.0009
      8  CD2       -2.4860   33.3870   37.9310 C.ar   19  TYR19      -0.0009
      9  CE1       -3.0280   34.4650   35.4600 C.ar   19  TYR19       0.0417
     10  CE2       -3.8090   33.6490   37.5710 C.ar   19  TYR19       0.0417
     11  CZ        -4.0540   34.1540   36.3410 C.ar   19  TYR19       0.1957
     12  OH        -5.3870   34.3900   35.9600 O.3    19  TYR19      -0.2866
     13  N         -6.9020   38.3850   36.9320 N.3    22  PRO22      -0.2116
     14  CA        -7.2510   39.7460   36.3620 C.3    22  PRO22       0.1372
     15  C         -7.7350   40.8000   37.3250 C.2    22  PRO22       0.2244
     16  O         -7.5760   41.9950   37.0260 O.2    22  PRO22      -0.2868
     17  CB        -8.3210   39.4540   35.2890 C.3    22  PRO22       0.0268
     18  CG        -8.1660   37.9850   34.9800 C.3    22  PRO22       0.0207
     19  CD        -7.5910   37.2800   36.2010 C.3    22  PRO22       0.0892
     20  N          0.6780   34.0250   28.8230 N.3    49  LEU49      -0.1245
     21  CA        -0.6820   33.9620   29.3900 C.3    49  LEU49       0.1561
     22  C         -0.9400   34.9650   30.4860 C.2    49  LEU49       0.2260
     23  O         -2.0800   35.4150   30.7050 O.2    49  LEU49      -0.2867
     24  CB        -1.0320   32.5260   29.8800 C.3    49  LEU49       0.0270
     25  CG        -2.4550   32.2520   30.4170 C.3    49  LEU49       0.0019
     26  CD1       -3.4870   32.3670   29.2750 C.3    49  LEU49       0.0001
     27  CD2       -2.4750   30.8210   31.0340 C.3    49  LEU49       0.0001
     28  N          2.4670   30.1630   24.4960 N.3    81  TRP81      -0.1227
     29  CA         1.0120   29.8610   24.6900 C.3    81  TRP81       0.1737
     30  C          0.5100   28.9040   23.6210 C.2    81  TRP81       0.2596
     31  O          1.0750   28.7430   22.5230 O.2    81  TRP81      -0.2718
     32  CB         0.2520   31.2110   24.7300 C.3    81  TRP81       0.0564
     33  CG        -1.1800   30.9610   25.0760 C.ar   81  TRP81       0.0003
     34  CD1       -2.3040   31.2590   24.2420 C.ar   81  TRP81       0.0946
     35  CD2       -1.7030   30.2010   26.1710 C.ar   81  TRP81       0.0152
     36  NE1       -3.4210   30.7810   24.8570 N.ar   81  TRP81      -0.2442
     37  CE2       -3.0970   30.1600   26.0270 C.ar   81  TRP81       0.0810
     38  CE3       -1.1030   29.5500   27.2770 C.ar   81  TRP81       0.0012
     39  CZ2       -3.9360   29.4430   26.9360 C.ar   81  TRP81       0.0191
     40  CZ3       -1.9000   28.8730   28.1860 C.ar   81  TRP81       0.0001
     41  CH2       -3.3160   28.8270   28.0180 C.ar   81  TRP81       0.0015
     42  N         -0.6350   28.2870   23.9000 N.am   82  SER82      -0.1952
     43  CA        -1.1340   27.1370   23.1370 C.3    82  SER82       0.1924
     44  C         -1.7150   27.4360   21.7590 C.2    82  SER82       0.2314
     45  O         -1.8600   26.5200   20.9010 O.2    82  SER82      -0.2863
     46  CB        -2.1840   26.4210   23.9760 C.3    82  SER82       0.2116
     47  OG        -1.6080   26.0920   25.2500 O.3    82  SER82      -0.2180
     48  N          3.8710   25.7840   27.0850 N.3   112  HIS112     -0.1226
     49  CA         3.0730   25.9200   28.3300 C.3   112  HIS112      0.1752
     50  C          2.1680   24.7120   28.6040 C.2   112  HIS112      0.2596
     51  O          1.9460   24.3370   29.7430 O.2   112  HIS112     -0.2718
     52  CB         2.1770   27.1650   28.1900 C.3   112  HIS112      0.0759
     53  CG         1.6660   27.7180   29.4730 C.ar  112  HIS112      0.0818
     54  ND1        1.5680   29.0850   29.6370 N.ar  112  HIS112     -0.2268
     55  CD2        1.1950   27.1560   30.6470 C.ar  112  HIS112      0.1154
     56  CE1        1.0960   29.3650   30.8450 C.ar  112  HIS112      0.1986
     57  NE2        0.8710   28.2180   31.4960 N.ar  112  HIS112     -0.2212
     58  N          1.6240   24.1440   27.4840 N.am  113  SER113     -0.1952
     59  CA         0.6840   23.0040   27.6440 C.3   113  SER113      0.1924
     60  C          0.7730   22.2130   26.3680 C.2   113  SER113      0.2314
     61  O          0.9150   22.7880   25.2780 O.2   113  SER113     -0.2863
     62  CB        -0.7100   23.6430   27.8590 C.3   113  SER113      0.2116
     63  OG        -1.7260   22.6340   27.8050 O.3   113  SER113     -0.2180
     64  N         -1.9340   21.0920   25.0900 N.3   115  MET115     -0.1245
     65  CA        -3.3130   21.2540   24.6210 C.3   115  MET115      0.1570
     66  C         -3.3760   22.3820   23.6000 C.2   115  MET115      0.2261
     67  O         -3.8410   23.5120   23.8940 O.2   115  MET115     -0.2867
     68  CB        -4.2550   21.4430   25.7950 C.3   115  MET115      0.0387
     69  CG        -4.3520   20.1820   26.6930 C.3   115  MET115      0.0595
     70  SD        -5.7030   20.4250   27.9340 S.3   115  MET115     -0.1393
     71  CE        -5.0340   21.7780   28.9310 C.3   115  MET115      0.0692
     72  N         -4.3380   25.0100   20.7480 N.3   117  LEU117     -0.1245
     73  CA        -5.5680   25.7640   20.5270 C.3   117  LEU117      0.1561
     74  C         -5.5150   26.4150   19.1590 C.2   117  LEU117      0.2260
     75  O         -4.4500   26.6640   18.6410 O.2   117  LEU117     -0.2867
     76  CB        -5.7730   26.8080   21.6560 C.3   117  LEU117      0.0270
     77  CG        -5.8490   26.2800   23.0920 C.3   117  LEU117      0.0019
     78  CD1       -6.1010   27.4810   23.9880 C.3   117  LEU117      0.0001
     79  CD2       -7.0630   25.3890   23.2890 C.3   117  LEU117      0.0001
     80  N         -6.7820   34.2730   23.4730 N.3   123  LEU123     -0.1231
     81  CA        -6.0450   33.3280   24.3750 C.3   123  LEU123      0.1693
     82  C         -6.7100   32.0000   24.4920 C.2   123  LEU123      0.2592
     83  O         -6.0590   30.9890   24.3990 O.2   123  LEU123     -0.2718
     84  CB        -5.9720   33.9060   25.7760 C.3   123  LEU123      0.0284
     85  CG        -4.9120   34.9870   25.9530 C.3   123  LEU123      0.0019
     86  CD1       -5.0260   35.4890   27.3860 C.3   123  LEU123      0.0001
     87  CD2       -3.5090   34.4670   25.6540 C.3   123  LEU123      0.0001
     88  N         -8.0520   31.9920   24.6770 N.am  124  SER124     -0.1952
     89  CA        -8.8070   30.7740   24.8160 C.3   124  SER124      0.1924
     90  C         -9.9450   30.9090   23.7620 C.2   124  SER124      0.2314
     91  O        -11.0990   31.2780   24.1120 O.2   124  SER124     -0.2863
     92  CB        -9.3510   30.6950   26.2760 C.3   124  SER124      0.2116
     93  OG        -9.7400   29.3560   26.6210 O.3   124  SER124     -0.2180
     94  N        -14.2740   26.2290   23.7810 N.3   132  VAL132     -0.1245
     95  CA       -12.9270   26.6130   23.2950 C.3   132  VAL132      0.1561
     96  C        -12.5740   25.7120   22.1010 C.2   132  VAL132      0.2260
     97  O        -12.9150   24.5150   22.1060 O.2   132  VAL132     -0.2867
     98  CB       -11.8260   26.5910   24.4090 C.3   132  VAL132      0.0252
     99  CG1      -12.3480   27.1930   25.6990 C.3   132  VAL132      0.0019
    100  CG2      -11.3000   25.2000   24.6560 C.3   132  VAL132      0.0019
    101  N        -10.1280   23.6880   19.7010 N.3   134  PHE134     -0.1241
    102  CA        -8.9010   22.9750   19.7790 C.3   134  PHE134      0.1605
    103  C         -8.1530   22.9500   18.4450 C.2   134  PHE134      0.2264
    104  O         -8.7650   23.2080   17.4290 O.2   134  PHE134     -0.2867
    105  CB        -9.1240   21.6140   20.3640 C.3   134  PHE134      0.0534
    106  CG        -9.9310   21.6360   21.6860 C.ar  134  PHE134     -0.0203
    107  CD1       -9.8370   22.7330   22.5740 C.ar  134  PHE134     -0.0042
    108  CD2      -10.7560   20.5410   22.0660 C.ar  134  PHE134     -0.0042
    109  CE1      -10.5060   22.7260   23.8230 C.ar  134  PHE134     -0.0003
    110  CE2      -11.4440   20.5610   23.2850 C.ar  134  PHE134     -0.0003
    111  CZ       -11.3130   21.6180   24.1650 C.ar  134  PHE134     -0.0000
    112  N          3.1650   20.7250   31.7620 N.3   162  ASN162     -0.1240
    113  CA         1.8640   19.9850   31.6820 C.3   162  ASN162      0.1653
    114  C          1.9490   18.7440   30.7880 C.2   162  ASN162      0.2266
    115  O          0.8690   18.3060   30.2790 O.2   162  ASN162     -0.2867
    116  CB         0.7110   20.9390   31.2260 C.3   162  ASN162      0.1155
    117  CG         0.3970   21.9800   32.2900 C.2   162  ASN162      0.2627
    118  OD1        0.0340   21.5610   33.4080 O.2   162  ASN162     -0.2716
    119  ND2        0.6350   23.2670   32.0380 N.am  162  ASN162     -0.0877
    120  N          4.3730   23.2560   40.0640 N.3   211  TYR211     -0.1241
    121  CA         3.5180   24.4060   40.2500 C.3   211  TYR211      0.1605
    122  C          2.2990   24.0330   41.0730 C.2   211  TYR211      0.2264
    123  O          2.0040   22.8280   41.2380 O.2   211  TYR211     -0.2867
    124  CB         3.0840   24.9920   38.9010 C.3   211  TYR211      0.0534
    125  CG         2.0390   24.2660   38.0690 C.ar  211  TYR211     -0.0201
    126  CD1        0.6780   24.2130   38.4750 C.ar  211  TYR211     -0.0009
    127  CD2        2.3690   23.7320   36.7740 C.ar  211  TYR211     -0.0009
    128  CE1       -0.2600   23.6000   37.6560 C.ar  211  TYR211      0.0417
    129  CE2        1.3590   23.1490   35.9760 C.ar  211  TYR211      0.0417
    130  CZ         0.0830   23.0960   36.4390 C.ar  211  TYR211      0.1957
    131  OH        -0.9080   22.5950   35.5860 O.3   211  TYR211     -0.2866
    132  N        -12.6880   29.6660   37.9220 N.3   221  ARG221     -0.1231
    133  CA       -12.9350   29.2160   36.5850 C.3   221  ARG221      0.1694
    134  C        -12.6020   27.7250   36.4690 C.2   221  ARG221      0.2592
    135  O        -13.1700   27.0380   35.5990 O.2   221  ARG221     -0.2718
    136  CB       -12.0910   30.0410   35.5980 C.3   221  ARG221      0.0321
    137  CG       -12.5200   31.5050   35.4970 C.3   221  ARG221      0.0489
    138  CD       -11.5460   32.3990   34.6980 C.3   221  ARG221      0.2205
    139  NE       -10.3620   32.7200   35.4920 N.pl3 221  ARG221     -0.0865
    140  CZ        -9.2550   33.3130   35.0330 C.cat 221  ARG221      0.5346
    141  NH1       -8.2200   33.5300   35.8620 N.pl3 221  ARG221      0.1354
    142  NH2       -9.1580   33.6730   33.7570 N.pl3 221  ARG221      0.1354
    143  N        -11.7230   27.2040   37.3470 N.am  222  TRP222     -0.1976
    144  CA       -11.2290   25.8540   37.0620 C.3   222  TRP222      0.1640
    145  C        -11.1430   24.9660   38.2600 C.2   222  TRP222      0.2290
    146  O        -10.6930   23.7950   38.0540 O.2   222  TRP222     -0.2864
    147  CB        -9.8250   25.8650   36.4540 C.3   222  TRP222      0.0576
    148  CG        -9.6850   26.9420   35.4690 C.ar  222  TRP222      0.0006
    149  CD1      -10.3880   27.0970   34.2600 C.ar  222  TRP222      0.0946
    150  CD2       -8.8090   28.0480   35.5870 C.ar  222  TRP222      0.0152
    151  NE1       -9.9730   28.2780   33.6420 N.ar  222  TRP222     -0.2442
    152  CE2       -9.0050   28.8680   34.4280 C.ar  222  TRP222      0.0810
    153  CE3       -7.8540   28.4340   36.5610 C.ar  222  TRP222      0.0012
    154  CZ2       -8.2800   30.0660   34.2220 C.ar  222  TRP222      0.0191
    155  CZ3       -7.1110   29.6390   36.3450 C.ar  222  TRP222      0.0001
    156  CH2       -7.3400   30.4350   35.1860 C.ar  222  TRP222      0.0015
    157  N         -6.5560   22.0400   38.9460 N.3   301  PHE301     -0.1241
    158  CA        -7.0940   22.4300   37.6110 C.3   301  PHE301      0.1605
    159  C         -7.8680   21.2310   37.1130 C.2   301  PHE301      0.2264
    160  O         -7.3280   20.1940   36.7430 O.2   301  PHE301     -0.2867
    161  CB        -5.9020   22.7000   36.6980 C.3   301  PHE301      0.0534
    162  CG        -5.1800   24.0170   37.0230 C.ar  301  PHE301     -0.0203
    163  CD1       -4.2350   24.1070   38.0760 C.ar  301  PHE301     -0.0042
    164  CD2       -5.4160   25.1650   36.2040 C.ar  301  PHE301     -0.0042
    165  CE1       -3.6430   25.3130   38.4270 C.ar  301  PHE301     -0.0003
    166  CE2       -4.7330   26.3700   36.5070 C.ar  301  PHE301     -0.0003
    167  CZ        -3.8670   26.4520   37.6010 C.ar  301  PHE301     -0.0000
    168  N        -13.5340   22.0110   30.4840 N.3   305  SER305     -0.1202
    169  CA       -12.8610   22.7450   29.3600 C.3   305  SER305      0.2020
    170  C        -11.4800   22.0950   29.0470 C.2   305  SER305      0.2618
    171  O        -11.0750   21.9600   27.8830 O.2   305  SER305     -0.2717
    172  CB       -12.6220   24.1910   29.7230 C.3   305  SER305      0.2103
    173  OG       -13.8860   24.7680   29.9030 O.3   305  SER305     -0.2182
    174  N        -10.7710   21.6430   30.0300 N.am  306  PHE306     -0.1975
    175  CA        -9.4720   21.0130   29.7870 C.3   306  PHE306      0.1639
    176  C         -9.7130   19.5270   29.4080 C.2   306  PHE306      0.2290
    177  O         -9.1000   18.9880   28.5080 O.2   306  PHE306     -0.2864
    178  CB        -8.6120   20.9930   31.0970 C.3   306  PHE306      0.0560
    179  CG        -8.3390   22.3630   31.6520 C.ar  306  PHE306     -0.0200
    180  CD1       -8.0570   23.4230   30.8110 C.ar  306  PHE306     -0.0042
    181  CD2       -8.3920   22.5710   33.0620 C.ar  306  PHE306     -0.0042
    182  CE1       -7.8320   24.7110   31.2910 C.ar  306  PHE306     -0.0003
    183  CE2       -8.1240   23.8580   33.5260 C.ar  306  PHE306     -0.0003
    184  CZ        -7.7830   24.8940   32.6640 C.ar  306  PHE306     -0.0000
    185  N        -10.2230   18.1230   25.9990 N.3   309  HIS309     -0.1241
    186  CA        -9.2410   18.3140   24.8990 C.3   309  HIS309      0.1621
    187  C         -8.4780   17.0030   24.5490 C.2   309  HIS309      0.2264
    188  O         -8.1360   16.1970   25.4010 O.2   309  HIS309     -0.2867
    189  CB        -8.1550   19.3360   25.3810 C.3   309  HIS309      0.0745
    190  CG        -7.2550   19.8560   24.2630 C.ar  309  HIS309      0.0817
    191  ND1       -6.2830   19.0840   23.6550 N.ar  309  HIS309     -0.2268
    192  CD2       -7.2130   21.0510   23.6690 C.ar  309  HIS309      0.1154
    193  CE1       -5.6780   19.8040   22.7160 C.ar  309  HIS309      0.1986
    194  NE2       -6.2310   21.0030   22.7110 N.ar  309  HIS309     -0.2212
    195  N         -5.3610   16.4060   26.5090 N.3   312  TYR312     -0.1228
    196  CA        -5.3800   16.5420   27.9470 C.3   312  TYR312      0.1721
    197  C         -4.4490   15.5110   28.5770 C.2   312  TYR312      0.2437
    198  O         -4.5070   14.3310   28.3180 O.2   312  TYR312     -0.2733
    199  CB        -6.8360   16.3060   28.3480 C.3   312  TYR312      0.0547
    200  CG        -7.0990   16.3530   29.8260 C.ar  312  TYR312     -0.0200
    201  CD1       -6.9030   17.5510   30.5090 C.ar  312  TYR312     -0.0009
    202  CD2       -7.6650   15.2700   30.4810 C.ar  312  TYR312     -0.0009
    203  CE1       -7.2430   17.6520   31.8610 C.ar  312  TYR312      0.0417
    204  CE2       -8.0160   15.3560   31.8400 C.ar  312  TYR312      0.0417
    205  CZ        -7.8110   16.5400   32.5040 C.ar  312  TYR312      0.1957
    206  OH        -8.2270   16.5780   33.8500 O.3   312  TYR312     -0.2866
    207  N         -3.5540   15.9580   29.4780 N.am  313  PRO313     -0.2718
    208  CA        -2.5300   15.0190   29.9090 C.3   313  PRO313      0.1535
    209  C         -2.9600   14.0290   31.0030 C.2   313  PRO313      0.2598
    210  O         -2.2120   13.1050   31.2340 O.2   313  PRO313     -0.2715
    211  CB        -1.4370   15.9700   30.4780 C.3   313  PRO313      0.0310
    212  CG        -2.2000   17.1620   30.9340 C.3   313  PRO313      0.0237
    213  CD        -3.2210   17.3840   29.8280 C.3   313  PRO313      0.0939
    214  N         -4.1010   14.2650   31.6630 N.am  314  TYR314     -0.1974
    215  CA        -4.4730   13.4410   32.8510 C.3   314  TYR314      0.1639
    216  C         -5.4450   12.2890   32.3980 C.2   314  TYR314      0.2290
    217  O         -6.2330   12.4680   31.5190 O.2   314  TYR314     -0.2864
    218  CB        -5.0830   14.2100   33.9810 C.3   314  TYR314      0.0560
    219  CG        -4.2340   15.3690   34.4880 C.ar  314  TYR314     -0.0198
    220  CD1       -2.8570   15.2310   34.5780 C.ar  314  TYR314     -0.0009
    221  CD2       -4.8430   16.5660   34.8410 C.ar  314  TYR314     -0.0009
    222  CE1       -2.0810   16.3050   35.0480 C.ar  314  TYR314      0.0417
    223  CE2       -4.1310   17.6560   35.3800 C.ar  314  TYR314      0.0417
    224  CZ        -2.7170   17.4520   35.4860 C.ar  314  TYR314      0.1957
    225  OH        -1.9610   18.5290   35.9510 O.3   314  TYR314     -0.2866
@<TRIPOS>BOND
     1   104   103    2
     2   103   102    1
     3    75    74    2
     4    74    73    1
     5   101   102    1
     6   102   105    1
     7   105   106    1
     8    73    72    1
     9    73    76    1
    10    45    44    2
    11    76    77    1
    12   106   108   ar
    13   106   107   ar
    14    44    43    1
    15   108   110   ar
    16    96    97    2
    17    96    95    1
    18    31    30    2
    19   107   109   ar
    20   194   193   ar
    21   194   192   ar
    22   193   191   ar
    23    77    79    1
    24    77    78    1
    25    43    42    1
    26    43    46    1
    27   110   111   ar
    28    95    94    1
    29    95    98    1
    30    80    81    1
    31    66    67    2
    32    66    65    1
    33    30    42   am
    34    30    29    1
    35   191   190   ar
    36   192   190   ar
    37    90    91    2
    38    90    89    1
    39   109   111   ar
    40    46    47    1
    41    34    36   ar
    42    34    33   ar
    43   190   189    1
    44    81    82    1
    45    81    84    1
    46    83    82    2
    47    98   100    1
    48    98    99    1
    49    82    88   am
    50    28    29    1
    51   187   186    1
    52   187   188    2
    53    65    64    1
    54    65    68    1
    55    88    89    1
    56    29    32    1
    57    32    33    1
    58    89    92    1
    59    36    37   ar
    60   186   189    1
    61   186   185    1
    62    33    35   ar
    63    61    60    2
    64    87    85    1
    65    84    85    1
    66    68    69    1
    67    85    86    1
    68    37    35   ar
    69    37    39   ar
    70    35    38   ar
    71    92    93    1
    72    60    59    1
    73   195   196    1
    74    69    70    1
    75    39    41   ar
    76    48    49    1
    77    38    40   ar
    78    58    59    1
    79    58    50   am
    80    59    62    1
    81    63    62    1
    82   171   170    2
    83    70    71    1
    84   196   199    1
    85   196   197    1
    86    41    40   ar
    87    52    49    1
    88    52    53    1
    89   198   197    2
    90    49    50    1
    91   199   200    1
    92   177   176    2
    93   197   207   am
    94    50    51    2
    95    20    21    1
    96   170   169    1
    97   170   174   am
    98    26    25    1
    99   169   172    1
   100   169   168    1
   101    21    24    1
   102    21    22    1
   103   176   175    1
   104    53    54   ar
   105    53    55   ar
   106   207   213    1
   107   207   208    1
   108    54    56   ar
   109   172   173    1
   110   175   174    1
   111   175   178    1
   112   200   202   ar
   113   200   201   ar
   114   213   212    1
   115    24    25    1
   116   208   211    1
   117   208   209    1
   118   115   114    2
   119    25    27    1
   120   211   212    1
   121   202   204   ar
   122    22    23    2
   123   201   203   ar
   124    55    57   ar
   125   114   113    1
   126   180   182   ar
   127   180   179   ar
   128    56    57   ar
   129   209   210    2
   130   209   214   am
   131   178   179    1
   132   116   113    1
   133   116   117    1
   134   182   184   ar
   135   217   216    2
   136   179   181   ar
   137   214   215    1
   138   113   112    1
   139   204   205   ar
   140   203   205   ar
   141   119   117   am
   142   117   118    2
   143   216   215    1
   144   205   206    1
   145   184   183   ar
   146   215   218    1
   147   181   183   ar
   148   151   149   ar
   149   151   152   ar
   150   142   140    1
   151   218   219    1
   152   154   152   ar
   153   154   156   ar
   154   149   148   ar
   155   152   150   ar
   156   219   220   ar
   157   219   221   ar
   158   220   222   ar
   159   138   139    1
   160   138   137    1
   161   221   223   ar
   162    18    17    1
   163    18    19    1
   164   140   139    2
   165   140   141    1
   166   222   224   ar
   167   156   155   ar
   168    17    14    1
   169   223   224   ar
   170     9     7   ar
   171     9    11   ar
   172   148   150   ar
   173   148   147    1
   174   224   225    1
   175   137   136    1
   176   131   130    1
   177   150   153   ar
   178   136   133    1
   179   135   134    2
   180     7     6   ar
   181    12    11    1
   182   129   130   ar
   183   129   127   ar
   184    19    13    1
   185   164   166   ar
   186   164   162   ar
   187    11    10   ar
   188   155   153   ar
   189    14    13    1
   190    14    15    1
   191   130   128   ar
   192   147   144    1
   193   134   133    1
   194   134   143   am
   195   166   167   ar
   196   133   132    1
   197   161   162    1
   198   161   158    1
   199   160   159    2
   200   127   125   ar
   201   162   163   ar
   202    16    15    2
   203   144   143    1
   204   144   145    1
   205     6     5    1
   206     6     8   ar
   207   159   158    1
   208     5     2    1
   209    10     8   ar
   210   167   165   ar
   211   158   157    1
   212   128   126   ar
   213     2     1    1
   214     2     3    1
   215   146   145    2
   216   125   126   ar
   217   125   124    1
   218   163   165   ar
   219   124   121    1
   220     3     4    2
   221   120   121    1
   222   121   122    1
   223   122   123    2
