@<TRIPOS>MOLECULE
tmp/4xvhA00.pdb
 140 137 0 0 0
SMALL
GASTEIGER

@<TRIPOS>ATOM
      1  N        -16.3240   -4.2180   -0.1460 N.3    39  SER39      -0.1202
      2  CA       -17.1260   -3.0350    0.1360 C.3    39  SER39       0.2020
      3  C        -17.6480   -3.0760    1.5640 C.2    39  SER39       0.2619
      4  O        -17.8870   -4.1610    2.1100 O.2    39  SER39      -0.2717
      5  CB       -18.2820   -2.8930   -0.8550 C.3    39  SER39       0.2103
      6  OG       -19.0340   -4.0730   -0.9500 O.3    39  SER39      -0.2182
      7  N        -17.7870   -1.8850    2.1490 N.am   40  GLY40      -0.1956
      8  CA       -18.2850   -1.7170    3.5000 C.3    40  GLY40       0.1869
      9  C        -17.4160   -2.4300    4.5080 C.2    40  GLY40       0.2309
     10  O        -16.1880   -2.4700    4.3620 O.2    40  GLY40      -0.2863
     11  N        -24.7430   -9.0130    4.6070 N.3    85  PRO85      -0.2102
     12  CA       -24.6880   -8.0860    3.4730 C.3    85  PRO85       0.1504
     13  C        -24.9390   -6.6300    3.8420 C.2    85  PRO85       0.2576
     14  O        -24.3900   -5.7430    3.1840 O.2    85  PRO85      -0.2718
     15  CB       -25.8000   -8.5890    2.5360 C.3    85  PRO85       0.0282
     16  CG       -26.3020   -9.8530    3.1030 C.3    85  PRO85       0.0208
     17  CD       -25.5510  -10.2110    4.3260 C.3    85  PRO85       0.0893
     18  N        -25.7240   -6.3930    4.8860 N.am   86  ALA86      -0.1966
     19  CA       -26.0950   -5.0270    5.2290 C.3    86  ALA86       0.1728
     20  C        -24.8650   -4.1860    5.5550 C.2    86  ALA86       0.2616
     21  O        -24.8980   -2.9790    5.3780 O.2    86  ALA86      -0.2715
     22  CB       -27.0660   -4.9950    6.4200 C.3    86  ALA86       0.0334
     23  N        -23.7950   -4.8250    6.0360 N.am   87  TYR87      -0.1960
     24  CA       -22.5890   -4.0920    6.4290 C.3    87  TYR87       0.1771
     25  C        -21.5670   -4.0240    5.2930 C.2    87  TYR87       0.2620
     26  O        -20.7590   -3.1020    5.2370 O.2    87  TYR87      -0.2715
     27  CB       -21.9450   -4.7200    7.6720 C.3    87  TYR87       0.0574
     28  CG       -22.6790   -4.3980    8.9610 C.ar   87  TYR87      -0.0198
     29  CD1      -22.4410   -3.2080    9.6490 C.ar   87  TYR87      -0.0009
     30  CD2      -23.6450   -5.2710    9.4710 C.ar   87  TYR87      -0.0009
     31  CE1      -23.1310   -2.9080   10.8170 C.ar   87  TYR87       0.0417
     32  CE2      -24.3370   -4.9740   10.6520 C.ar   87  TYR87       0.0417
     33  CZ       -24.0740   -3.7940   11.3160 C.ar   87  TYR87       0.1957
     34  OH       -24.7800   -3.5190   12.4790 O.3    87  TYR87      -0.2866
     35  N        -21.5950   -5.0180    4.4040 N.am   88  GLY88      -0.1954
     36  CA       -20.7410   -5.0070    3.2140 C.3    88  GLY88       0.1869
     37  C        -20.6110   -6.3960    2.6270 C.2    88  GLY88       0.2309
     38  O        -21.3010   -7.3140    3.0560 O.2    88  GLY88      -0.2863
     39  N        -33.4160  -13.7750   10.4580 N.3   117  ASP117     -0.1225
     40  CA       -33.0950  -12.3670   10.6030 C.3   117  ASP117      0.1805
     41  C        -31.7650  -12.1980   11.3510 C.2   117  ASP117      0.2598
     42  O        -30.8640  -13.0180   11.2190 O.2   117  ASP117     -0.2718
     43  CB       -34.2230  -11.6540   11.3470 C.3   117  ASP117      0.1424
     44  CG       -34.5910  -12.3380   12.6750 C.2   117  ASP117      0.3668
     45  OD1      -33.7210  -12.9560   13.3230 O.co2 117  ASP117     -0.2456
     46  OD2      -35.7690  -12.2570   13.0750 O.co2 117  ASP117     -0.2456
     47  N        -31.6700  -11.1560   12.1720 N.am  118  SER118     -0.1952
     48  CA       -30.4180  -10.8500   12.8530 C.3   118  SER118      0.1924
     49  C        -29.9710  -12.0240   13.7620 C.2   118  SER118      0.2314
     50  O        -28.7790  -12.2410   13.9940 O.2   118  SER118     -0.2863
     51  CB       -30.5970   -9.5650   13.6760 C.3   118  SER118      0.2116
     52  OG       -31.5240   -9.8100   14.7150 O.3   118  SER118     -0.2180
     53  N        -25.9980  -11.3980   14.6460 N.3   123  TYR123     -0.1241
     54  CA       -25.9170   -9.9980   15.0940 C.3   123  TYR123      0.1605
     55  C        -25.4350   -9.8970   16.5360 C.2   123  TYR123      0.2264
     56  O        -26.0390  -10.5080   17.4250 O.2   123  TYR123     -0.2867
     57  CB       -27.3170   -9.3740   14.9570 C.3   123  TYR123      0.0534
     58  CG       -27.4440   -7.8930   15.2350 C.ar  123  TYR123     -0.0201
     59  CD1      -27.4040   -7.4060   16.5450 C.ar  123  TYR123     -0.0009
     60  CD2      -27.6400   -6.9880   14.1910 C.ar  123  TYR123     -0.0009
     61  CE1      -27.5310   -6.0640   16.8120 C.ar  123  TYR123      0.0417
     62  CE2      -27.7820   -5.6250   14.4400 C.ar  123  TYR123      0.0417
     63  CZ       -27.7210   -5.1680   15.7550 C.ar  123  TYR123      0.1957
     64  OH       -27.8430   -3.8260   16.0360 O.3   123  TYR123     -0.2866
     65  N        -30.8280  -11.7360    7.1060 N.3   161  TRP161     -0.1227
     66  CA       -30.5450  -10.3130    6.9460 C.3   161  TRP161      0.1737
     67  C        -31.1510   -9.6230    8.1820 C.2   161  TRP161      0.2596
     68  O        -32.3150   -9.8440    8.4880 O.2   161  TRP161     -0.2718
     69  CB       -31.1690   -9.7910    5.6340 C.3   161  TRP161      0.0564
     70  CG       -30.8640   -8.3750    5.2600 C.ar  161  TRP161      0.0003
     71  CD1      -30.9360   -7.2620    6.0610 C.ar  161  TRP161      0.0946
     72  CD2      -30.4520   -7.9090    3.9600 C.ar  161  TRP161      0.0152
     73  NE1      -30.5700   -6.1330    5.3320 N.ar  161  TRP161     -0.2442
     74  CE2      -30.2740   -6.5100    4.0450 C.ar  161  TRP161      0.0810
     75  CE3      -30.2030   -8.5470    2.7360 C.ar  161  TRP161      0.0012
     76  CZ2      -29.8690   -5.7370    2.9440 C.ar  161  TRP161      0.0191
     77  CZ3      -29.8100   -7.7750    1.6420 C.ar  161  TRP161      0.0001
     78  CH2      -29.6460   -6.3910    1.7550 C.ar  161  TRP161      0.0015
     79  N        -30.3570   -8.8310    8.8950 N.am  162  SER162     -0.1938
     80  CA       -30.8520   -8.2220   10.1310 C.3   162  SER162      0.2055
     81  C        -32.0250   -7.2820    9.8570 C.2   162  SER162      0.2643
     82  O        -31.9980   -6.5140    8.8900 O.2   162  SER162     -0.2714
     83  CB       -29.7330   -7.4730   10.8520 C.3   162  SER162      0.2130
     84  OG       -28.8240   -8.4400   11.3650 O.3   162  SER162     -0.2179
     85  N        -33.0420   -7.3680   10.7090 N.am  163  GLY163     -0.1954
     86  CA       -34.1710   -6.4570   10.6710 C.3   163  GLY163      0.1869
     87  C        -35.2950   -6.9630    9.7940 C.2   163  GLY163      0.2309
     88  O        -36.3680   -6.3640    9.7710 O.2   163  GLY163     -0.2863
     89  N        -38.5650   -4.7180   10.4570 N.3   170  PHE170     -0.1241
     90  CA       -38.4060   -4.0470   11.7450 C.3   170  PHE170      0.1605
     91  C        -39.2530   -2.7710   11.7800 C.2   170  PHE170      0.2264
     92  O        -39.3960   -2.0860   10.7670 O.2   170  PHE170     -0.2867
     93  CB       -36.9190   -3.7410   12.0080 C.3   170  PHE170      0.0534
     94  CG       -36.6570   -2.9000   13.2440 C.ar  170  PHE170     -0.0203
     95  CD1      -36.5530   -3.4900   14.4960 C.ar  170  PHE170     -0.0042
     96  CD2      -36.4980   -1.5220   13.1450 C.ar  170  PHE170     -0.0042
     97  CE1      -36.3190   -2.7280   15.6360 C.ar  170  PHE170     -0.0003
     98  CE2      -36.2630   -0.7390   14.2930 C.ar  170  PHE170     -0.0003
     99  CZ       -36.1730   -1.3470   15.5410 C.ar  170  PHE170     -0.0000
    100  N        -39.4980  -12.1620   14.9340 N.3   214  THR214     -0.1203
    101  CA       -39.0590  -11.1800   15.9230 C.3   214  THR214      0.1994
    102  C        -39.3640   -9.7650   15.4040 C.2   214  THR214      0.2617
    103  O        -39.9380   -8.9470   16.1200 O.2   214  THR214     -0.2717
    104  CB       -37.5740  -11.3160   16.2360 C.3   214  THR214      0.1784
    105  OG1      -37.3300  -12.6270   16.7410 O.3   214  THR214     -0.2211
    106  CG2      -37.1280  -10.2530   17.2740 C.3   214  THR214      0.0376
    107  N        -39.0090   -9.4810   14.1580 N.am  215  ASN215     -0.1974
    108  CA       -39.3080   -8.1620   13.5940 C.3   215  ASN215      0.1688
    109  C        -40.7950   -7.9290   13.2960 C.2   215  ASN215      0.2292
    110  O        -41.3090   -6.8090   13.4810 O.2   215  ASN215     -0.2864
    111  CB       -38.4600   -7.9610   12.3300 C.3   215  ASN215      0.1181
    112  CG       -36.9660   -7.9380   12.6570 C.2   215  ASN215      0.2629
    113  OD1      -36.5300   -7.1310   13.4610 O.2   215  ASN215     -0.2716
    114  ND2      -36.2100   -8.8630   12.0960 N.am  215  ASN215     -0.0877
    115  N        -36.0040  -13.7130   21.5500 N.3   258  MET258     -0.1245
    116  CA       -36.1040  -12.2970   21.9010 C.3   258  MET258      0.1570
    117  C        -37.5280  -11.8340   22.1870 C.2   258  MET258      0.2261
    118  O        -37.7040  -10.7320   22.7030 O.2   258  MET258     -0.2867
    119  CB       -35.5020  -11.4230   20.7890 C.3   258  MET258      0.0387
    120  CG       -34.0030  -11.6330   20.6290 C.3   258  MET258      0.0595
    121  SD       -33.1710  -10.7200   19.2890 S.3   258  MET258     -0.1393
    122  CE       -33.2840   -9.0250   19.9340 C.3   258  MET258      0.0692
    123  N        -27.5360   -4.9500   21.6430 N.3   304  ASP304     -0.1239
    124  CA       -28.9530   -4.6820   21.3450 C.3   304  ASP304      0.1674
    125  C        -29.8310   -5.8730   21.7210 C.2   304  ASP304      0.2266
    126  O        -30.7540   -6.2480   20.9830 O.2   304  ASP304     -0.2867
    127  CB       -29.1090   -4.3060   19.8610 C.3   304  ASP304      0.1410
    128  CG       -28.3860   -2.9970   19.5230 C.2   304  ASP304      0.3668
    129  OD1      -28.5390   -2.0340   20.3110 O.co2 304  ASP304     -0.2456
    130  OD2      -27.6550   -2.9390   18.4990 O.co2 304  ASP304     -0.2456
    131  N        -29.3370   -9.0300   21.6480 N.3   306  HIS306     -0.1241
    132  CA       -29.3370  -10.2430   20.8250 C.3   306  HIS306      0.1621
    133  C        -28.7210  -11.3960   21.5900 C.2   306  HIS306      0.2264
    134  O        -28.0120  -11.1820   22.5750 O.2   306  HIS306     -0.2867
    135  CB       -28.6150  -10.0260   19.4880 C.3   306  HIS306      0.0745
    136  CG       -29.4590   -9.2930   18.4990 C.ar  306  HIS306      0.0817
    137  ND1      -29.8420   -7.9860   18.6990 N.ar  306  HIS306     -0.2268
    138  CD2      -30.0870   -9.7090   17.3680 C.ar  306  HIS306      0.1154
    139  CE1      -30.6150   -7.6040   17.6940 C.ar  306  HIS306      0.1986
    140  NE2      -30.7880   -8.6370   16.8840 N.ar  306  HIS306     -0.2212
@<TRIPOS>BOND
     1     6     5    1
     2     5     2    1
     3     1     2    1
     4     2     3    1
     5     3     4    2
     6     3     7   am
     7    77    78   ar
     8    77    75   ar
     9    78    76   ar
    10     7     8    1
    11    15    16    1
    12    15    12    1
    13    37    38    2
    14    37    36    1
    15    75    72   ar
    16    76    74   ar
    17    16    17    1
    18    14    13    2
    19    36    35    1
    20    12    13    1
    21    12    11    1
    22     8     9    1
    23    13    18   am
    24    72    74   ar
    25    72    70   ar
    26    74    73   ar
    27    17    11    1
    28    10     9    2
    29    35    25   am
    30    18    19    1
    31    19    20    1
    32    19    22    1
    33    26    25    2
    34    70    69    1
    35    70    71   ar
    36    25    24    1
    37    73    71   ar
    38    21    20    2
    39    20    23   am
    40    69    66    1
    41    23    24    1
    42    24    27    1
    43    66    65    1
    44    66    67    1
    45    27    28    1
    46    67    68    2
    47    67    79   am
    48    82    81    2
    49    79    80    1
    50    28    30   ar
    51    28    29   ar
    52    30    32   ar
    53    29    31   ar
    54    88    87    2
    55    87    86    1
    56    81    80    1
    57    81    85   am
    58    80    83    1
    59    89    90    1
    60    39    40    1
    61    40    43    1
    62    40    41    1
    63    32    33   ar
    64    86    85    1
    65    92    91    2
    66    31    33   ar
    67    83    84    1
    68    42    41    2
    69    33    34    1
    70    43    44    1
    71    41    47   am
    72    90    91    1
    73    90    93    1
    74    93    94    1
    75   114   112   am
    76    47    48    1
    77   111   112    1
    78   111   108    1
    79   112   113    2
    80    44    46   ar
    81    44    45   ar
    82    48    51    1
    83    48    49    1
    84    96    94   ar
    85    96    98   ar
    86    94    95   ar
    87   109   110    2
    88   109   108    1
    89   108   107    1
    90    51    52    1
    91    49    50    2
    92   107   102   am
    93    60    62   ar
    94    60    58   ar
    95    98    99   ar
    96    62    63   ar
    97    95    97   ar
    98    53    54    1
    99   100   101    1
   100    57    54    1
   101    57    58    1
   102    54    55    1
   103    58    59   ar
   104   102   101    1
   105   102   103    2
   106    99    97   ar
   107    63    64    1
   108    63    61   ar
   109   101   104    1
   110   104   105    1
   111   104   106    1
   112    55    56    2
   113    59    61   ar
   114   140   138   ar
   115   140   139   ar
   116   138   136   ar
   117   139   137   ar
   118   136   137   ar
   119   136   135    1
   120   130   128   ar
   121   121   122    1
   122   121   120    1
   123   135   132    1
   124   128   127    1
   125   128   129   ar
   126   127   124    1
   127   120   119    1
   128   119   116    1
   129   132   133    1
   130   132   131    1
   131   126   125    2
   132   124   123    1
   133   124   125    1
   134   115   116    1
   135   133   134    2
   136   116   117    1
   137   117   118    2
