@<TRIPOS>MOLECULE
tmp/4xvlA00.pdb
 105 103 0 0 0
SMALL
GASTEIGER

@<TRIPOS>ATOM
      1  N         -9.9770  -12.6430  -21.5590 N.3   105  THR105     -0.1203
      2  CA       -10.0000  -14.0230  -22.0320 C.3   105  THR105      0.1994
      3  C        -11.1150  -14.2480  -23.0560 C.2   105  THR105      0.2618
      4  O        -10.9100  -14.9070  -24.0790 O.2   105  THR105     -0.2717
      5  CB       -10.1820  -14.9920  -20.8500 C.3   105  THR105      0.1784
      6  OG1       -8.9320  -15.1590  -20.1690 O.3   105  THR105     -0.2211
      7  CG2      -10.6840  -16.3360  -21.3260 C.3   105  THR105      0.0376
      8  N        -12.2900  -13.6920  -22.7770 N.am  106  MET106     -0.1965
      9  CA       -13.4390  -13.8210  -23.6710 C.3   106  MET106      0.1736
     10  C        -13.2370  -13.1820  -25.0500 C.2   106  MET106      0.2616
     11  O        -13.6270  -13.7590  -26.0660 O.2   106  MET106     -0.2715
     12  CB       -14.6900  -13.2390  -23.0060 C.3   106  MET106      0.0427
     13  CG       -15.2580  -14.1080  -21.9000 C.3   106  MET106      0.0599
     14  SD       -16.0410  -15.5890  -22.5630 S.3   106  MET106     -0.1393
     15  CE       -15.9750  -16.6700  -21.1410 C.3   106  MET106      0.0692
     16  N        -12.6400  -11.9920  -25.0840 N.am  107  LYS107     -0.1963
     17  CA       -12.5140  -11.2350  -26.3330 C.3   107  LYS107      0.1728
     18  C        -11.1740  -11.3630  -27.0640 C.2   107  LYS107      0.2616
     19  O        -10.9980  -10.7660  -28.1270 O.2   107  LYS107     -0.2715
     20  CB       -12.8220   -9.7510  -26.0950 C.3   107  LYS107      0.0311
     21  CG       -11.7980   -9.0340  -25.2230 C.3   107  LYS107      0.0038
     22  CD       -12.0410   -7.5270  -25.1800 C.3   107  LYS107      0.0206
     23  CE       -11.0270   -6.8330  -24.2730 C.3   107  LYS107      0.1093
     24  NZ       -11.2820   -5.3710  -24.1150 N.3   107  LYS107     -0.1314
     25  N        -10.2330  -12.1260  -26.5130 N.am  108  CYS108     -0.1954
     26  CA        -8.8850  -12.1820  -27.0870 C.3   108  CYS108      0.1843
     27  C         -8.8810  -12.7990  -28.4810 C.2   108  CYS108      0.2625
     28  O         -9.7770  -13.5610  -28.8310 O.2   108  CYS108     -0.2714
     29  CB        -7.9240  -12.9400  -26.1720 C.3   108  CYS108      0.0997
     30  SG        -8.2380  -14.7040  -26.0790 S.3   108  CYS108     -0.0797
     31  N         -7.8670  -12.4630  -29.2710 N.am  109  LYS109     -0.1963
     32  CA        -7.8190  -12.8700  -30.6710 C.3   109  LYS109      0.1728
     33  C         -7.1110  -14.2050  -30.8800 C.2   109  LYS109      0.2616
     34  O         -7.1040  -14.7420  -31.9860 O.2   109  LYS109     -0.2715
     35  CB        -7.1490  -11.7770  -31.5090 C.3   109  LYS109      0.0311
     36  CG        -7.7820  -10.4020  -31.3360 C.3   109  LYS109      0.0038
     37  CD        -6.9210   -9.3060  -31.9500 C.3   109  LYS109      0.0206
     38  CE        -7.4880   -7.9250  -31.6450 C.3   109  LYS109      0.1093
     39  NZ        -6.5890   -6.8350  -32.1180 N.3   109  LYS109     -0.1314
     40  N         -6.5150  -14.7360  -29.8170 N.am  110  CYS110     -0.1954
     41  CA        -5.7840  -15.9960  -29.8980 C.3   110  CYS110      0.1828
     42  C         -6.7060  -17.1900  -29.6590 C.2   110  CYS110      0.2467
     43  O         -7.7830  -17.0390  -29.0820 O.2   110  CYS110     -0.2730
     44  CB        -4.6300  -16.0070  -28.8920 C.3   110  CYS110      0.0996
     45  SG        -5.1290  -15.7930  -27.1730 S.3   110  CYS110     -0.0797
     46  N         -6.2970  -18.3800  -30.1270 N.am  111  PRO111     -0.2715
     47  CA        -7.0440  -19.6080  -29.8460 C.3   111  PRO111      0.1536
     48  C         -7.2150  -19.8510  -28.3470 C.2   111  PRO111      0.2598
     49  O         -6.2460  -19.7600  -27.5860 O.2   111  PRO111     -0.2715
     50  CB        -6.1490  -20.6950  -30.4410 C.3   111  PRO111      0.0310
     51  CG        -5.4530  -20.0190  -31.5510 C.3   111  PRO111      0.0237
     52  CD        -5.2030  -18.6150  -31.0850 C.3   111  PRO111      0.0939
     53  N         -8.4410  -20.1550  -27.9350 N.am  112  VAL112     -0.1978
     54  CA        -8.7140  -20.5080  -26.5500 C.3   112  VAL112      0.1596
     55  C         -9.1590  -21.9640  -26.4640 C.2   112  VAL112      0.2287
     56  O        -10.1590  -22.3570  -27.0590 O.2   112  VAL112     -0.2864
     57  CB        -9.7910  -19.5990  -25.9340 C.3   112  VAL112      0.0276
     58  CG1      -10.1030  -20.0360  -24.5170 C.3   112  VAL112      0.0022
     59  CG2       -9.3310  -18.1580  -25.9520 C.3   112  VAL112      0.0022
     60  N        -19.3660  -13.6950  -28.8330 N.3   139  ASP139     -0.1225
     61  CA       -18.3740  -13.9140  -29.8800 C.3   139  ASP139      0.1805
     62  C        -17.2790  -14.9020  -29.4790 C.2   139  ASP139      0.2598
     63  O        -16.3470  -15.1430  -30.2460 O.2   139  ASP139     -0.2718
     64  CB       -17.7580  -12.5800  -30.3060 C.3   139  ASP139      0.1424
     65  CG       -18.8050  -11.5690  -30.7410 C.2   139  ASP139      0.3668
     66  OD1      -19.8140  -11.9830  -31.3530 O.co2 139  ASP139     -0.2456
     67  OD2      -18.6210  -10.3620  -30.4690 O.co2 139  ASP139     -0.2456
     68  N        -17.3930  -15.4710  -28.2820 N.am  140  PHE140     -0.1962
     69  CA       -16.3740  -16.3820  -27.7700 C.3   140  PHE140      0.1771
     70  C        -16.2880  -17.6560  -28.5920 C.2   140  PHE140      0.2619
     71  O        -17.3080  -18.2580  -28.9260 O.2   140  PHE140     -0.2715
     72  CB       -16.6550  -16.7420  -26.3110 C.3   140  PHE140      0.0574
     73  CG       -15.6730  -17.7180  -25.7250 C.ar  140  PHE140     -0.0200
     74  CD1      -14.4010  -17.3060  -25.3560 C.ar  140  PHE140     -0.0042
     75  CD2      -16.0220  -19.0450  -25.5320 C.ar  140  PHE140     -0.0042
     76  CE1      -13.4930  -18.2010  -24.8120 C.ar  140  PHE140     -0.0003
     77  CE2      -15.1180  -19.9450  -24.9880 C.ar  140  PHE140     -0.0003
     78  CZ       -13.8550  -19.5210  -24.6270 C.ar  140  PHE140     -0.0000
     79  N        -15.0660  -18.0610  -28.9190 N.am  141  ILE141     -0.1977
     80  CA       -14.8570  -19.3480  -29.5560 C.3   141  ILE141      0.1596
     81  C        -13.8250  -20.1320  -28.7670 C.2   141  ILE141      0.2287
     82  O        -12.6360  -19.8040  -28.7870 O.2   141  ILE141     -0.2864
     83  CB       -14.3270  -19.1800  -30.9900 C.3   141  ILE141      0.0276
     84  CG1      -15.2430  -18.2610  -31.8080 C.3   141  ILE141      0.0022
     85  CG2      -14.1730  -20.5380  -31.6540 C.3   141  ILE141      0.0022
     86  CD1      -16.6370  -18.8150  -32.0410 C.3   141  ILE141      0.0001
     87  N        -11.9430  -23.8970  -28.0650 N.3   143  LEU143     -0.1245
     88  CA       -11.6470  -25.1130  -28.7980 C.3   143  LEU143      0.1561
     89  C        -11.8750  -26.2730  -27.8500 C.2   143  LEU143      0.2260
     90  O        -11.0690  -26.5200  -26.9520 O.2   143  LEU143     -0.2867
     91  CB       -10.1990  -25.1060  -29.2890 C.3   143  LEU143      0.0270
     92  CG        -9.8670  -24.1430  -30.4280 C.3   143  LEU143      0.0019
     93  CD1       -8.3930  -24.2270  -30.7860 C.3   143  LEU143      0.0001
     94  CD2      -10.7250  -24.4560  -31.6340 C.3   143  LEU143      0.0001
     95  N        -15.8830  -25.6140  -36.7370 N.3   221  ARG221     -0.1245
     96  CA       -15.7030  -24.2140  -36.5060 C.3   221  ARG221      0.1563
     97  C        -16.9520  -23.4280  -36.5910 C.2   221  ARG221      0.2260
     98  O        -17.1270  -22.5100  -35.8620 O.2   221  ARG221     -0.2867
     99  CB       -14.7250  -23.6510  -37.4940 C.3   221  ARG221      0.0307
    100  CG       -13.2870  -23.9460  -37.1590 C.3   221  ARG221      0.0489
    101  CD       -12.7900  -23.0890  -36.0230 C.3   221  ARG221      0.2205
    102  NE       -13.3470  -21.7570  -36.0950 N.pl3 221  ARG221     -0.0865
    103  CZ       -12.7370  -20.6800  -35.6400 C.cat 221  ARG221      0.5346
    104  NH1      -13.3180  -19.4950  -35.7520 N.pl3 221  ARG221      0.1354
    105  NH2      -11.5470  -20.7980  -35.0780 N.pl3 221  ARG221      0.1354
@<TRIPOS>BOND
     1    99   100    1
     2    99    96    1
     3   100   101    1
     4    95    96    1
     5    97    96    1
     6    97    98    2
     7   102   101    1
     8   102   103    2
     9   104   103    1
    10   103   105    1
    11    39    38    1
    12    86    84    1
    13    34    33    2
    14    37    38    1
    15    37    36    1
    16    84    83    1
    17    85    83    1
    18    94    92    1
    19    51    52    1
    20    51    50    1
    21    35    36    1
    22    35    32    1
    23    66    65   ar
    24    52    46    1
    25    83    80    1
    26    33    32    1
    27    33    40   am
    28    93    92    1
    29    65    67   ar
    30    65    64    1
    31    32    31    1
    32    50    47    1
    33    92    91    1
    34    64    61    1
    35    63    62    2
    36    46    47    1
    37    46    42   am
    38    41    40    1
    39    41    42    1
    40    41    44    1
    41    61    62    1
    42    61    60    1
    43    47    48    1
    44    42    43    2
    45    80    79    1
    46    80    81    1
    47    62    68   am
    48    91    88    1
    49    31    27   am
    50    71    70    2
    51    79    70   am
    52    44    45    1
    53    28    27    2
    54    88    87    1
    55    88    89    1
    56    82    81    2
    57    70    69    1
    58    27    26    1
    59    48    53   am
    60    48    49    2
    61    68    69    1
    62    19    18    2
    63    53    54    1
    64    89    90    2
    65    69    72    1
    66    26    25    1
    67    26    29    1
    68    18    25   am
    69    18    17    1
    70    56    55    2
    71    54    55    1
    72    54    57    1
    73    17    20    1
    74    17    16    1
    75    72    73    1
    76    29    30    1
    77    20    21    1
    78    11    10    2
    79    59    57    1
    80    57    58    1
    81    73    75   ar
    82    73    74   ar
    83    75    77   ar
    84    74    76   ar
    85    21    22    1
    86    22    23    1
    87    16    10   am
    88    10     9    1
    89    77    78   ar
    90    76    78   ar
    91    23    24    1
    92     4     3    2
    93     9    12    1
    94     9     8    1
    95     3     8   am
    96     3     2    1
    97    12    13    1
    98    14    13    1
    99    14    15    1
   100     2     1    1
   101     2     5    1
   102     7     5    1
   103     5     6    1
