@<TRIPOS>MOLECULE
tmp/4xvuH00.pdb
 99 90 0 0 0
SMALL
GASTEIGER

@<TRIPOS>ATOM
      1  N         49.5220   92.7130  166.8190 N.3    94  MET94      -0.1245
      2  CA        48.2090   92.2170  167.2310 C.3    94  MET94       0.1570
      3  C         47.5820   93.1750  168.2560 C.2    94  MET94       0.2261
      4  O         46.3610   93.3070  168.3240 O.2    94  MET94      -0.2867
      5  CB        48.3110   90.8140  167.8230 C.3    94  MET94       0.0387
      6  CG        49.4190   89.9640  167.2210 C.3    94  MET94       0.0595
      7  SD        49.1730   88.1850  167.3930 S.3    94  MET94      -0.1393
      8  CE        49.8730   87.6220  165.8460 C.3    94  MET94       0.0692
      9  N         48.0850   94.2190  177.1550 N.3   100  LEU100     -0.1245
     10  CA        48.1680   92.7660  176.9540 C.3   100  LEU100      0.1561
     11  C         49.4630   92.3190  176.2910 C.2   100  LEU100      0.2260
     12  O         50.1370   91.4060  176.7720 O.2   100  LEU100     -0.2867
     13  CB        46.9740   92.2880  176.1130 C.3   100  LEU100      0.0270
     14  CG        46.7680   90.7860  175.8340 C.3   100  LEU100      0.0019
     15  CD1       47.7480   90.1930  174.8020 C.3   100  LEU100      0.0001
     16  CD2       46.7880   89.9830  177.1280 C.3   100  LEU100      0.0001
     17  N         52.2960   89.7090  178.2840 N.3   104  THR104     -0.1218
     18  CA        52.6070   88.3830  177.7640 C.3   104  THR104      0.1862
     19  C         53.9320   88.3790  177.0030 C.2   104  THR104      0.2287
     20  O         54.5420   87.3270  176.8110 O.2   104  THR104     -0.2866
     21  CB        51.4900   87.8700  176.8340 C.3   104  THR104      0.1770
     22  OG1       51.2260   88.8400  175.8140 O.3   104  THR104     -0.2211
     23  CG2       50.2150   87.6100  177.6200 C.3   104  THR104      0.0375
     24  N         56.6330   86.9300  179.2460 N.3   107  ILE107     -0.1245
     25  CA        56.3910   85.6890  179.9680 C.3   107  ILE107      0.1561
     26  C         57.3330   84.6190  179.4190 C.2   107  ILE107      0.2260
     27  O         57.4960   84.5090  178.2070 O.2   107  ILE107     -0.2867
     28  CB        54.9290   85.2220  179.8500 C.3   107  ILE107      0.0252
     29  CG1       54.0100   86.2820  180.4680 C.3   107  ILE107      0.0019
     30  CG2       54.7370   83.8860  180.5600 C.3   107  ILE107      0.0019
     31  CD1       52.5180   85.9340  180.4520 C.3   107  ILE107      0.0001
     32  N         53.7610   79.8370  166.3690 N.3   117  MET117     -0.1245
     33  CA        52.7410   80.5650  165.6220 C.3   117  MET117      0.1570
     34  C         53.2470   80.9570  164.2400 C.2   117  MET117      0.2261
     35  O         52.4660   81.0880  163.2970 O.2   117  MET117     -0.2867
     36  CB        52.2990   81.8190  166.3800 C.3   117  MET117      0.0387
     37  CG        51.3030   81.5580  167.4970 C.3   117  MET117      0.0595
     38  SD        50.5970   83.0870  168.1460 S.3   117  MET117     -0.1393
     39  CE        49.6510   83.6570  166.7290 C.3   117  MET117      0.0692
     40  N         50.3850   70.9120  172.8810 N.3   155  LEU155     -0.1245
     41  CA        49.1630   71.6570  172.6180 C.3   155  LEU155      0.1561
     42  C         48.0140   70.7140  172.2900 C.2   155  LEU155      0.2260
     43  O         46.8830   70.9490  172.7090 O.2   155  LEU155     -0.2867
     44  CB        49.3740   72.6650  171.4810 C.3   155  LEU155      0.0270
     45  CG        50.2140   73.8980  171.8300 C.3   155  LEU155      0.0019
     46  CD1       50.3890   74.7970  170.6140 C.3   155  LEU155      0.0001
     47  CD2       49.5970   74.6900  172.9800 C.3   155  LEU155      0.0001
     48  N         46.6490   69.4470  175.4350 N.3   158  LEU158     -0.1231
     49  CA        46.0610   70.5660  176.1640 C.3   158  LEU158      0.1693
     50  C         44.6960   70.9080  175.5800 C.2   158  LEU158      0.2591
     51  O         43.7210   71.0790  176.3140 O.2   158  LEU158     -0.2718
     52  CB        46.9950   71.7860  176.1160 C.3   158  LEU158      0.0284
     53  CG        46.6430   73.0750  176.8810 C.3   158  LEU158      0.0019
     54  CD1       45.4890   73.8650  176.2460 C.3   158  LEU158      0.0001
     55  CD2       46.3610   72.7990  178.3540 C.3   158  LEU158      0.0001
     56  N         44.6320   70.9960  174.2560 N.am  159  LEU159     -0.1980
     57  CA        43.4120   71.4150  173.5700 C.3   159  LEU159      0.1596
     58  C         42.2670   70.4200  173.7580 C.2   159  LEU159      0.2287
     59  O         41.1080   70.7560  173.5180 O.2   159  LEU159     -0.2864
     60  CB        43.6870   71.6210  172.0760 C.3   159  LEU159      0.0297
     61  CG        44.6020   72.7970  171.7060 C.3   159  LEU159      0.0022
     62  CD1       44.9270   72.7770  170.2180 C.3   159  LEU159      0.0001
     63  CD2       43.9970   74.1340  172.0990 C.3   159  LEU159      0.0001
     64  N         41.1390   71.4370  177.3110 N.3   162  PHE162     -0.1241
     65  CA        40.6360   72.7990  177.1770 C.3   162  PHE162      0.1605
     66  C         39.2150   72.8070  176.6210 C.2   162  PHE162      0.2264
     67  O         38.3290   73.4600  177.1710 O.2   162  PHE162     -0.2867
     68  CB        41.5590   73.6200  176.2740 C.3   162  PHE162      0.0534
     69  CG        41.1490   75.0600  176.1270 C.ar  162  PHE162     -0.0203
     70  CD1       41.5880   76.0150  177.0300 C.ar  162  PHE162     -0.0042
     71  CD2       40.3350   75.4620  175.0800 C.ar  162  PHE162     -0.0042
     72  CE1       41.2160   77.3400  176.8960 C.ar  162  PHE162     -0.0003
     73  CE2       39.9610   76.7850  174.9410 C.ar  162  PHE162     -0.0003
     74  CZ        40.4030   77.7250  175.8500 C.ar  162  PHE162     -0.0000
     75  N         36.8300   77.8460  166.7950 N.3   174  LYS174     -0.1231
     76  CA        38.1670   78.4220  166.8120 C.3   174  LYS174      0.1693
     77  C         39.1430   77.4100  167.3990 C.2   174  LYS174      0.2591
     78  O         40.3100   77.3670  167.0160 O.2   174  LYS174     -0.2718
     79  CB        38.1970   79.7270  167.6140 C.3   174  LYS174      0.0285
     80  CG        38.6350   80.9460  166.8080 C.3   174  LYS174      0.0035
     81  CD        40.0630   80.8020  166.2880 C.3   174  LYS174      0.0206
     82  CE        40.5260   82.0500  165.5480 C.3   174  LYS174      0.1093
     83  NZ        39.6910   82.3460  164.3510 N.3   174  LYS174     -0.1314
     84  N         38.6570   76.5930  168.3290 N.am  175  LEU175     -0.1980
     85  CA        39.4580   75.5120  168.8890 C.3   175  LEU175      0.1596
     86  C         39.7530   74.4670  167.8220 C.2   175  LEU175      0.2287
     87  O         40.8980   74.0510  167.6480 O.2   175  LEU175     -0.2864
     88  CB        38.7440   74.8550  170.0730 C.3   175  LEU175      0.0297
     89  CG        38.7780   75.5810  171.4180 C.3   175  LEU175      0.0022
     90  CD1       38.1110   76.9460  171.3430 C.3   175  LEU175      0.0001
     91  CD2       38.1090   74.7190  172.4720 C.3   175  LEU175      0.0001
     92  N         42.5190   75.4400  165.3310 N.3   178  LEU178     -0.1245
     93  CA        43.8550   75.2940  165.8950 C.3   178  LEU178      0.1561
     94  C         44.1730   73.8270  166.1550 C.2   178  LEU178      0.2260
     95  O         45.2720   73.3630  165.8630 O.2   178  LEU178     -0.2867
     96  CB        43.9840   76.1010  167.1900 C.3   178  LEU178      0.0270
     97  CG        43.6470   77.5950  167.0980 C.3   178  LEU178      0.0019
     98  CD1       43.9780   78.2880  168.4120 C.3   178  LEU178      0.0001
     99  CD2       44.3730   78.2800  165.9480 C.3   178  LEU178      0.0001
@<TRIPOS>BOND
     1    35    34    2
     2    34    33    1
     3    83    82    1
     4    92    93    1
     5    82    81    1
     6    33    32    1
     7    33    36    1
     8     8     7    1
     9    95    94    2
    10    93    94    1
    11    93    96    1
    12    99    97    1
    13    81    80    1
    14    36    37    1
    15    39    38    1
    16    75    76    1
    17    80    79    1
    18    76    77    1
    19    76    79    1
    20     1     2    1
    21    78    77    2
    22    97    96    1
    23    97    98    1
    24     6     7    1
    25     6     5    1
    26     2     5    1
    27     2     3    1
    28    77    84   am
    29    37    38    1
    30    87    86    2
    31    86    85    1
    32     3     4    2
    33    84    85    1
    34    85    88    1
    35    88    89    1
    36    62    61    1
    37    46    45    1
    38    90    89    1
    39    89    91    1
    40    44    45    1
    41    44    41    1
    42    61    60    1
    43    61    63    1
    44    45    47    1
    45    60    57    1
    46    42    41    1
    47    42    43    2
    48    41    40    1
    49    59    58    2
    50    57    58    1
    51    57    56    1
    52    56    50   am
    53    15    14    1
    54    73    71   ar
    55    73    74   ar
    56    71    69   ar
    57    48    49    1
    58    50    49    1
    59    50    51    2
    60    22    21    1
    61    14    13    1
    62    14    16    1
    63    74    72   ar
    64    13    10    1
    65    52    49    1
    66    52    53    1
    67    69    68    1
    68    69    70   ar
    69    54    53    1
    70    68    65    1
    71    11    12    2
    72    11    10    1
    73    66    67    2
    74    66    65    1
    75    20    19    2
    76    21    23    1
    77    21    18    1
    78    53    55    1
    79    72    70   ar
    80    10     9    1
    81    19    18    1
    82    65    64    1
    83    18    17    1
    84    27    26    2
    85    24    25    1
    86    26    25    1
    87    28    25    1
    88    28    29    1
    89    28    30    1
    90    31    29    1
