@<TRIPOS>MOLECULE
tmp/4xvxB01.pdb
 179 163 0 0 0
SMALL
GASTEIGER

@<TRIPOS>ATOM
      1  N         32.6580   -2.0430   18.5890 N.3    68  GLY68      -0.1225
      2  CA        33.7490   -2.0860   19.5620 C.3    68  GLY68       0.1811
      3  C         34.7820   -3.1540   19.2700 C.2    68  GLY68       0.2280
      4  O         35.9840   -2.9300   19.4630 O.2    68  GLY68      -0.2866
      5  N         38.0460   -2.3940   17.2930 N.3    71  ALA71      -0.1231
      6  CA        39.1090   -1.6680   18.0360 C.3    71  ALA71       0.1694
      7  C         39.5830   -0.3880   17.2980 C.2    71  ALA71       0.2593
      8  O         40.7810   -0.1270   17.2030 O.2    71  ALA71      -0.2718
      9  CB        40.2910   -2.6000   18.3450 C.3    71  ALA71       0.0304
     10  N         38.6140    0.4010   16.7860 N.am   72  SER72      -0.1938
     11  CA        38.8170    1.6060   16.0090 C.3    72  SER72       0.2055
     12  C         37.7650    2.6250   16.3810 C.2    72  SER72       0.2642
     13  O         36.6070    2.4970   15.9750 O.2    72  SER72      -0.2714
     14  CB        38.7370    1.2800   14.5170 C.3    72  SER72       0.2130
     15  OG        38.5640    2.4260   13.7000 O.3    72  SER72      -0.2179
     16  N         38.1640    3.6450   17.1420 N.am   73  ALA73      -0.1977
     17  CA        37.2610    4.7120   17.5540 C.3    73  ALA73       0.1597
     18  C         36.6230    5.4420   16.3650 C.2    73  ALA73       0.2287
     19  O         35.4290    5.7220   16.4130 O.2    73  ALA73      -0.2864
     20  CB        37.9810    5.7040   18.4640 C.3    73  ALA73       0.0319
     21  N         32.7090    5.1240   16.1320 N.3    77  VAL77      -0.1245
     22  CA        32.0770    6.4000   16.4650 C.3    77  VAL77       0.1561
     23  C         31.3100    6.9430   15.2630 C.2    77  VAL77       0.2260
     24  O         30.1650    7.3100   15.4370 O.2    77  VAL77      -0.2867
     25  CB        33.0190    7.4430   17.1390 C.3    77  VAL77       0.0252
     26  CG1       32.3450    8.8110   17.2870 C.3    77  VAL77       0.0019
     27  CG2       33.4950    6.9370   18.5040 C.3    77  VAL77       0.0019
     28  N         27.3660    7.8190   15.3190 N.3    81  LEU81      -0.1245
     29  CA        26.8830    9.1780   15.1080 C.3    81  LEU81       0.1561
     30  C         25.7720    9.2580   14.0650 C.2    81  LEU81       0.2260
     31  O         24.8020   10.0010   14.2530 O.2    81  LEU81      -0.2867
     32  CB        28.0260   10.0880   14.7080 C.3    81  LEU81       0.0270
     33  CG        29.0100   10.4160   15.8390 C.3    81  LEU81       0.0019
     34  CD1       30.1990   11.1460   15.2780 C.3    81  LEU81       0.0001
     35  CD2       28.3360   11.2790   16.9400 C.3    81  LEU81       0.0001
     36  N         33.2510   20.9500   15.8170 N.3   147  PHE147     -0.1241
     37  CA        33.6590   19.5450   15.7500 C.3   147  PHE147      0.1605
     38  C         32.6660   18.6880   15.0180 C.2   147  PHE147      0.2264
     39  O         31.9860   17.8800   15.6340 O.2   147  PHE147     -0.2867
     40  CB        33.8940   18.9940   17.1630 C.3   147  PHE147      0.0534
     41  CG        34.8990   19.7330   18.0090 C.ar  147  PHE147     -0.0203
     42  CD1       36.2600   19.4620   17.8950 C.ar  147  PHE147     -0.0042
     43  CD2       34.4830   20.6650   18.9560 C.ar  147  PHE147     -0.0042
     44  CE1       37.1870   20.1230   18.6990 C.ar  147  PHE147     -0.0003
     45  CE2       35.4140   21.3280   19.7620 C.ar  147  PHE147     -0.0003
     46  CZ        36.7590   21.0480   19.6310 C.ar  147  PHE147     -0.0000
     47  N         32.0130   15.6820   13.1450 N.3   149  SER149     -0.1217
     48  CA        32.5490   14.4120   12.6850 C.3   149  SER149      0.1889
     49  C         31.6540   13.9010   11.5500 C.2   149  SER149      0.2288
     50  O         30.4240   14.0060   11.6430 O.2   149  SER149     -0.2866
     51  CB        32.6570   13.4160   13.8360 C.3   149  SER149      0.2089
     52  OG        33.6660   13.8390   14.7450 O.3   149  SER149     -0.2183
     53  N         38.0100    9.2560   11.9850 N.3   195  LEU195     -0.1245
     54  CA        36.8570   10.0710   12.3870 C.3   195  LEU195      0.1561
     55  C         37.0770   11.4690   11.8070 C.2   195  LEU195      0.2260
     56  O         37.6370   12.3410   12.4730 O.2   195  LEU195     -0.2867
     57  CB        36.6760   10.0840   13.9230 C.3   195  LEU195      0.0270
     58  CG        35.3470   10.6620   14.4450 C.3   195  LEU195      0.0019
     59  CD1       34.1690    9.7650   14.0410 C.3   195  LEU195      0.0001
     60  CD2       35.3730   10.8150   15.9590 C.3   195  LEU195      0.0001
     61  N         36.8380   14.8590   11.1730 N.3   197  THR197     -0.1218
     62  CA        36.1910   15.9270   11.9280 C.3   197  THR197      0.1862
     63  C         36.6790   17.2380   11.3760 C.2   197  THR197      0.2287
     64  O         37.8860   17.4170   11.1700 O.2   197  THR197     -0.2866
     65  CB        36.4820   15.7390   13.4350 C.3   197  THR197      0.1770
     66  OG1       36.2590   14.3760   13.7800 O.3   197  THR197     -0.2211
     67  CG2       35.6500   16.6410   14.3340 C.3   197  THR197      0.0375
     68  N         22.2930   12.5410   21.7740 N.3   226  LEU226     -0.1245
     69  CA        23.4790   12.3740   22.6380 C.3   226  LEU226      0.1561
     70  C         23.3230   11.2020   23.6120 C.2   226  LEU226      0.2260
     71  O         24.2660   10.4570   23.7670 O.2   226  LEU226     -0.2867
     72  CB        23.8500   13.6580   23.3690 C.3   226  LEU226      0.0270
     73  CG        24.3030   14.8350   22.4980 C.3   226  LEU226      0.0019
     74  CD1       24.4140   16.1160   23.3570 C.3   226  LEU226      0.0001
     75  CD2       25.6370   14.5270   21.7460 C.3   226  LEU226      0.0001
     76  N         23.8630    8.1510   21.5620 N.3   229  GLU229     -0.1245
     77  CA        25.2980    8.1320   21.2900 C.3   229  GLU229      0.1567
     78  C         26.1200    7.6580   22.4620 C.2   229  GLU229      0.2260
     79  O         26.9700    6.7980   22.2830 O.2   229  GLU229     -0.2867
     80  CB        25.7770    9.5160   20.7880 C.3   229  GLU229      0.0388
     81  CG        27.2250    9.5620   20.3270 C.3   229  GLU229      0.1160
     82  CD        27.6130    8.5300   19.2840 C.2   229  GLU229      0.3649
     83  OE1       26.7030    8.0820   18.5530 O.co2 229  GLU229     -0.2457
     84  OE2       28.8130    8.1810   19.1820 O.co2 229  GLU229     -0.2457
     85  N         28.7050    4.5500   22.7640 N.3   233  ILE233     -0.1245
     86  CA        30.1020    4.7330   23.2290 C.3   233  ILE233      0.1561
     87  C         30.4310    3.7760   24.3680 C.2   233  ILE233      0.2260
     88  O         31.4100    3.0400   24.2730 O.2   233  ILE233     -0.2867
     89  CB        30.4270    6.2080   23.5650 C.3   233  ILE233      0.0252
     90  CG1       30.4560    7.0830   22.2630 C.3   233  ILE233      0.0019
     91  CG2       31.7790    6.2960   24.3150 C.3   233  ILE233      0.0019
     92  CD1       30.1060    8.4810   22.4740 C.3   233  ILE233      0.0001
     93  N         30.7860    0.3060   22.9540 N.3   236  GLN236     -0.1231
     94  CA        32.0060    0.2420   22.1250 C.3   236  GLN236      0.1698
     95  C         33.2490    0.1110   23.0110 C.2   236  GLN236      0.2592
     96  O         34.1250   -0.7070   22.7130 O.2   236  GLN236     -0.2718
     97  CB        32.1180    1.4500   21.2020 C.3   236  GLN236      0.0381
     98  CG        31.0760    1.4480   20.0870 C.3   236  GLN236      0.0905
     99  CD        31.2190    2.6530   19.1940 C.2   236  GLN236      0.2608
    100  OE1       32.3150    2.9860   18.7210 O.2   236  GLN236     -0.2717
    101  NE2       30.1380    3.4030   19.0280 N.am  236  GLN236     -0.0878
    102  N         33.2680    0.8490   24.1480 N.am  237  ILE237     -0.1980
    103  CA        34.3450    0.7880   25.1390 C.3   237  ILE237      0.1595
    104  C         34.4170   -0.6080   25.7590 C.2   237  ILE237      0.2287
    105  O         35.4970   -1.1950   25.7800 O.2   237  ILE237     -0.2864
    106  CB        34.2040    1.9120   26.2120 C.3   237  ILE237      0.0276
    107  CG1       34.5060    3.2960   25.5890 C.3   237  ILE237      0.0022
    108  CG2       35.1210    1.6400   27.4110 C.3   237  ILE237      0.0022
    109  CD1       33.9340    4.4400   26.3740 C.3   237  ILE237      0.0001
    110  N         35.7660   -2.9910   23.0130 N.3   240  SER240     -0.1217
    111  CA        37.1720   -2.7170   22.6840 C.3   240  SER240      0.1889
    112  C         38.1210   -3.0650   23.8130 C.2   240  SER240      0.2288
    113  O         39.2000   -3.5820   23.5220 O.2   240  SER240     -0.2866
    114  CB        37.3740   -1.2840   22.2020 C.3   240  SER240      0.2089
    115  OG        36.8680   -0.3700   23.1570 O.3   240  SER240     -0.2183
    116  N         41.2470   -5.7020   23.8280 N.3   244  ALA244     -0.1245
    117  CA        42.5640   -5.3350   24.3430 C.3   244  ALA244      0.1562
    118  C         43.0380   -6.2860   25.4520 C.2   244  ALA244      0.2260
    119  O         44.1950   -6.6980   25.4170 O.2   244  ALA244     -0.2867
    120  CB        42.5430   -3.9130   24.8570 C.3   244  ALA244      0.0290
    121  N         43.2490    0.5670   28.7220 N.3   315  ILE315     -0.1245
    122  CA        44.1910    0.6900   27.5970 C.3   315  ILE315      0.1561
    123  C         45.5900    1.1420   28.0690 C.2   315  ILE315      0.2260
    124  O         46.5920    0.5730   27.6270 O.2   315  ILE315     -0.2867
    125  CB        43.6320    1.5350   26.4460 C.3   315  ILE315      0.0252
    126  CG1       42.2100    1.0790   26.0330 C.3   315  ILE315      0.0019
    127  CG2       44.5540    1.4450   25.2780 C.3   315  ILE315      0.0019
    128  CD1       42.0300   -0.5010   25.6100 C.3   315  ILE315      0.0001
    129  N         45.4490    2.4440   20.0140 N.3   337  TRP337     -0.1241
    130  CA        44.3380    2.1310   20.9310 C.3   337  TRP337      0.1605
    131  C         44.2500    3.1320   22.0650 C.2   337  TRP337      0.2264
    132  O         43.1720    3.6340   22.4010 O.2   337  TRP337     -0.2867
    133  CB        44.5310    0.7540   21.5620 C.3   337  TRP337      0.0550
    134  CG        44.4120   -0.4010   20.6270 C.ar  337  TRP337      0.0003
    135  CD1       44.0480   -0.3790   19.3060 C.ar  337  TRP337      0.0946
    136  CD2       44.6110   -1.7710   20.9670 C.ar  337  TRP337      0.0152
    137  NE1       44.0400   -1.6580   18.7980 N.ar  337  TRP337     -0.2442
    138  CE2       44.3910   -2.5320   19.7990 C.ar  337  TRP337      0.0810
    139  CE3       44.9990   -2.4310   22.1460 C.ar  337  TRP337      0.0012
    140  CZ2       44.5140   -3.9210   19.7850 C.ar  337  TRP337      0.0191
    141  CZ3       45.1440   -3.8070   22.1240 C.ar  337  TRP337      0.0001
    142  CH2       44.9260   -4.5350   20.9510 C.ar  337  TRP337      0.0015
    143  N         43.2520    6.6410   20.7470 N.3   340  ASP340     -0.1225
    144  CA        41.8280    6.5520   20.4130 C.3   340  ASP340      0.1805
    145  C         40.9850    6.6670   21.6610 C.2   340  ASP340      0.2597
    146  O         40.0570    7.4760   21.7030 O.2   340  ASP340     -0.2718
    147  CB        41.5330    5.1980   19.7320 C.3   340  ASP340      0.1424
    148  CG        41.8030    5.1490   18.2180 C.2   340  ASP340      0.3668
    149  OD1       42.4080    6.0960   17.6900 O.co2 340  ASP340     -0.2456
    150  OD2       41.3780    4.1720   17.5670 O.co2 340  ASP340     -0.2456
    151  N         41.3130    5.8580   22.6850 N.am  341  MET341     -0.1979
    152  CA        40.6040    5.8510   23.9490 C.3   341  MET341      0.1605
    153  C         40.6100    7.2240   24.6960 C.2   341  MET341      0.2287
    154  O         39.6190    7.5480   25.3150 O.2   341  MET341     -0.2864
    155  CB        41.1310    4.7180   24.8440 C.3   341  MET341      0.0413
    156  CG        40.2560    4.4470   26.0800 C.3   341  MET341      0.0598
    157  SD        38.5320    3.9560   25.7620 S.3   341  MET341     -0.1393
    158  CE        38.7500    2.2520   25.3530 C.3   341  MET341      0.0692
    159  N         39.9640   10.0710   23.6480 N.3   343  LEU343     -0.1231
    160  CA        38.8330   10.8400   23.1760 C.3   343  LEU343      0.1693
    161  C         37.5650   10.5720   24.0300 C.2   343  LEU343      0.2591
    162  O         36.6990   11.4500   24.1230 O.2   343  LEU343     -0.2718
    163  CB        38.5630   10.5290   21.6780 C.3   343  LEU343      0.0284
    164  CG        37.4640   11.3710   20.9910 C.3   343  LEU343      0.0019
    165  CD1       37.7070   12.9000   21.1920 C.3   343  LEU343      0.0001
    166  CD2       37.3480   11.0150   19.4990 C.3   343  LEU343      0.0001
    167  N         37.4350    9.3560   24.5940 N.am  344  ALA344     -0.1980
    168  CA        36.2360    8.8950   25.3110 C.3   344  ALA344      0.1597
    169  C         35.7520    9.8150   26.4330 C.2   344  ALA344      0.2287
    170  O         34.5540    9.9480   26.6120 O.2   344  ALA344     -0.2864
    171  CB        36.4480    7.4870   25.8370 C.3   344  ALA344      0.0319
    172  N         34.9210   13.5030   23.8980 N.3   347  GLY347     -0.1210
    173  CA        33.9330   13.3500   22.8340 C.3   347  GLY347      0.1956
    174  C         32.6750   12.6820   23.3410 C.2   347  GLY347      0.2612
    175  O         32.7510   11.6970   24.0760 O.2   347  GLY347     -0.2717
    176  N         31.5210   13.2150   22.9440 N.am  348  GLY348     -0.1956
    177  CA        30.2250   12.6880   23.3460 C.3   348  GLY348      0.1869
    178  C         29.8330   13.1110   24.7490 C.2   348  GLY348      0.2309
    179  O         29.0020   12.4530   25.3790 O.2   348  GLY348     -0.2863
@<TRIPOS>BOND
     1    64    63    2
     2    61    62    1
     3    63    62    1
     4    49    50    2
     5    49    48    1
     6    55    54    1
     7    55    56    2
     8    62    65    1
     9    53    54    1
    10    54    57    1
    11    48    47    1
    12    48    51    1
    13    65    66    1
    14    65    67    1
    15    15    14    1
    16    51    52    1
    17    57    58    1
    18    59    58    1
    19    30    31    2
    20    30    29    1
    21    58    60    1
    22    14    11    1
    23    32    29    1
    24    32    33    1
    25    38    39    2
    26    38    37    1
    27    29    28    1
    28    23    24    2
    29    23    22    1
    30    34    33    1
    31    37    36    1
    32    37    40    1
    33    33    35    1
    34    13    12    2
    35    11    12    1
    36    11    10    1
    37    21    22    1
    38    18    19    2
    39    18    17    1
    40    12    16   am
    41    22    25    1
    42    10     7   am
    43    25    26    1
    44    25    27    1
    45    16    17    1
    46    40    41    1
    47     8     7    2
    48     5     6    1
    49     7     6    1
    50    17    20    1
    51   150   148   ar
    52   149   148   ar
    53    42    41   ar
    54    42    44   ar
    55    41    43   ar
    56     6     9    1
    57   148   147    1
    58    83    82   ar
    59     1     2    1
    60    44    46   ar
    61   100    99    2
    62   137   135   ar
    63   137   138   ar
    64    43    45   ar
    65   101    99   am
    66    84    82   ar
    67    99    98    1
    68     3     4    2
    69     3     2    1
    70    82    81    1
    71   135   134   ar
    72   166   164    1
    73    46    45   ar
    74   147   144    1
    75   140   138   ar
    76   140   142   ar
    77   138   136   ar
    78   129   130    1
    79    98    97    1
    80    81    80    1
    81   144   143    1
    82   144   145    1
    83   134   136   ar
    84   134   133    1
    85    80    77    1
    86   130   133    1
    87   130   131    1
    88   142   141   ar
    89   136   139   ar
    90   164   165    1
    91   164   163    1
    92    97    94    1
    93    77    76    1
    94    77    78    1
    95   145   146    2
    96   145   151   am
    97   163   160    1
    98    75    73    1
    99    68    69    1
   100   131   132    2
   101   141   139   ar
   102    94    93    1
   103    94    95    1
   104   114   111    1
   105   114   115    1
   106    90    92    1
   107    90    89    1
   108    79    78    2
   109    73    74    1
   110    73    72    1
   111    69    72    1
   112    69    70    1
   113   111   110    1
   114   111   112    1
   115   151   152    1
   116    96    95    2
   117    85    86    1
   118   173   174    1
   119   173   172    1
   120   176   174   am
   121   176   177    1
   122    95   102   am
   123   160   159    1
   124   160   161    1
   125    86    89    1
   126    86    87    1
   127   174   175    2
   128   177   178    1
   129   113   112    2
   130    89    91    1
   131    70    71    2
   132   116   117    1
   133   152   153    1
   134   152   155    1
   135   161   162    2
   136   161   167   am
   137   102   103    1
   138    88    87    2
   139   117   120    1
   140   117   118    1
   141   167   168    1
   142   153   154    2
   143   178   179    2
   144   155   156    1
   145   103   104    1
   146   103   106    1
   147   127   125    1
   148   168   171    1
   149   168   169    1
   150   158   157    1
   151   119   118    2
   152   107   106    1
   153   107   109    1
   154   128   126    1
   155   104   105    2
   156   157   156    1
   157   126   125    1
   158   106   108    1
   159   169   170    2
   160   125   122    1
   161   122   123    1
   162   122   121    1
   163   124   123    2
