@<TRIPOS>MOLECULE
tmp/4xvxA00.pdb
 179 163 0 0 0
SMALL
GASTEIGER

@<TRIPOS>ATOM
      1  N         63.7930   19.5690   32.0490 N.3    68  GLY68      -0.1225
      2  CA        62.3570   19.4210   32.2480 C.3    68  GLY68       0.1811
      3  C         61.5530   20.6270   31.8180 C.2    68  GLY68       0.2280
      4  O         60.4440   20.4530   31.3180 O.2    68  GLY68      -0.2866
      5  N         59.9600   20.9400   28.2230 N.3    71  ALA71      -0.1231
      6  CA        58.7460   20.1100   27.9940 C.3    71  ALA71       0.1694
      7  C         58.8830   19.1750   26.7500 C.2    71  ALA71       0.2593
      8  O         57.9420   18.9820   25.9650 O.2    71  ALA71      -0.2718
      9  CB        57.4930   20.9820   27.9250 C.3    71  ALA71       0.0304
     10  N         60.0880   18.5860   26.6050 N.am   72  SER72      -0.1938
     11  CA        60.4430   17.7150   25.4960 C.3    72  SER72       0.2055
     12  C         61.1970   16.5000   25.9940 C.2    72  SER72       0.2642
     13  O         62.3860   16.6000   26.2700 O.2    72  SER72      -0.2714
     14  CB        61.2680   18.4930   24.4720 C.3    72  SER72       0.2130
     15  OG        61.9370   17.6560   23.5390 O.3    72  SER72      -0.2179
     16  N         60.5170   15.3520   26.1040 N.am   73  ALA73      -0.1977
     17  CA        61.1340   14.1110   26.5630 C.3    73  ALA73       0.1597
     18  C         62.3780   13.7290   25.7520 C.2    73  ALA73       0.2287
     19  O         63.3410   13.2730   26.3420 O.2    73  ALA73      -0.2864
     20  CB        60.1260   12.9700   26.5230 C.3    73  ALA73       0.0319
     21  N         65.7140   13.6940   27.7940 N.3    77  VAL77      -0.1245
     22  CA        66.1870   12.3200   27.9810 C.3    77  VAL77       0.1561
     23  C         67.5280   12.1150   27.2710 C.2    77  VAL77       0.2260
     24  O         68.4390   11.5220   27.8760 O.2    77  VAL77      -0.2867
     25  CB        65.1420   11.2320   27.6530 C.3    77  VAL77       0.0252
     26  CG1       65.7500    9.8190   27.7350 C.3    77  VAL77       0.0019
     27  CG2       63.9530   11.3490   28.6080 C.3    77  VAL77       0.0019
     28  N         70.9190   10.9720   29.1480 N.3    81  LEU81      -0.1245
     29  CA        71.5390    9.6940   28.8040 C.3    81  LEU81       0.1561
     30  C         73.0380    9.8580   28.5740 C.2    81  LEU81       0.2260
     31  O         73.8250    9.0330   29.0430 O.2    81  LEU81      -0.2867
     32  CB        70.8560    9.0650   27.5700 C.3    81  LEU81       0.0270
     33  CG        69.4790    8.4370   27.8060 C.3    81  LEU81       0.0019
     34  CD1       68.8610    8.0520   26.5020 C.3    81  LEU81       0.0001
     35  CD2       69.5570    7.2290   28.7540 C.3    81  LEU81       0.0001
     36  N         66.9410   -1.0190   21.8850 N.3   147  PHE147     -0.1241
     37  CA        66.5800    0.3850   22.0470 C.3   147  PHE147      0.1605
     38  C         67.7860    1.1930   22.3870 C.2   147  PHE147      0.2264
     39  O         68.1350    1.2630   23.5540 O.2   147  PHE147     -0.2867
     40  CB        65.5170    0.5600   23.1530 C.3   147  PHE147      0.0534
     41  CG        64.3230   -0.3510   23.1150 C.ar  147  PHE147     -0.0203
     42  CD1       63.1960   -0.0120   22.3790 C.ar  147  PHE147     -0.0042
     43  CD2       64.2970   -1.5190   23.8690 C.ar  147  PHE147     -0.0042
     44  CE1       62.0740   -0.8470   22.3640 C.ar  147  PHE147     -0.0003
     45  CE2       63.1790   -2.3600   23.8480 C.ar  147  PHE147     -0.0003
     46  CZ        62.0750   -2.0190   23.0950 C.ar  147  PHE147     -0.0000
     47  N         69.0260    4.8080   22.3330 N.3   149  SER149     -0.1217
     48  CA        68.7100    6.2170   22.0790 C.3   149  SER149      0.1889
     49  C         69.9980    6.9780   21.7930 C.2   149  SER149      0.2288
     50  O         71.0510    6.6650   22.3530 O.2   149  SER149     -0.2866
     51  CB        67.9370    6.8350   23.2430 C.3   149  SER149      0.2089
     52  OG        66.6390    6.2790   23.3560 O.3   149  SER149     -0.2183
     53  N         63.9420   11.7520   20.3720 N.3   193  LEU193     -0.1245
     54  CA        64.7630   10.7350   21.0310 C.3   193  LEU193      0.1561
     55  C         65.0070    9.6440   19.9930 C.2   193  LEU193      0.2260
     56  O         64.2620    8.6590   19.9520 O.2   193  LEU193     -0.2867
     57  CB        64.0940   10.1700   22.3050 C.3   193  LEU193      0.0270
     58  CG        64.9530    9.2870   23.2190 C.3   193  LEU193      0.0019
     59  CD1       66.0890   10.0820   23.8760 C.3   193  LEU193      0.0001
     60  CD2       64.1020    8.6140   24.2690 C.3   193  LEU193      0.0001
     61  N         65.8670    6.6640   18.5220 N.3   195  THR195     -0.1218
     62  CA        66.0910    5.3480   19.0960 C.3   195  THR195      0.1862
     63  C         66.1250    4.3520   17.9580 C.2   195  THR195      0.2287
     64  O         65.2530    4.3900   17.0850 O.2   195  THR195     -0.2866
     65  CB        65.0190    5.0390   20.1690 C.3   195  THR195      0.1770
     66  OG1       64.8480    6.1760   21.0220 O.3   195  THR195     -0.2211
     67  CG2       65.3630    3.8200   21.0140 C.3   195  THR195      0.0375
     68  N         72.0780    3.8860   35.5120 N.3   224  LEU224     -0.1245
     69  CA        70.6140    3.8590   35.5220 C.3   224  LEU224      0.1561
     70  C         70.0670    4.6020   36.7260 C.2   224  LEU224      0.2260
     71  O         69.0700    5.3150   36.5790 O.2   224  LEU224     -0.2867
     72  CB        70.0400    2.4350   35.4350 C.3   224  LEU224      0.0270
     73  CG        70.2070    1.6840   34.1050 C.3   224  LEU224      0.0019
     74  CD1       69.7860    0.2200   34.2480 C.3   224  LEU224      0.0001
     75  CD2       69.4700    2.3670   32.9700 C.3   224  LEU224      0.0001
     76  N         70.4800    8.1580   35.8120 N.3   227  GLU227     -0.1245
     77  CA        69.4300    8.4530   34.8190 C.3   227  GLU227      0.1567
     78  C         68.0080    8.6270   35.4680 C.2   227  GLU227      0.2260
     79  O         67.2720    9.5850   35.1460 O.2   227  GLU227     -0.2867
     80  CB        69.4280    7.3800   33.7250 C.3   227  GLU227      0.0388
     81  CG        68.4820    7.6640   32.5680 C.3   227  GLU227      0.1160
     82  CD        68.6220    9.0080   31.8720 C.2   227  GLU227      0.3649
     83  OE1       69.7260    9.5880   31.9130 O.co2 227  GLU227     -0.2457
     84  OE2       67.6240    9.4960   31.2980 O.co2 227  GLU227     -0.2457
     85  N         65.4120   11.6170   35.3430 N.3   231  ILE231     -0.1245
     86  CA        64.0410   11.4600   34.8240 C.3   231  ILE231      0.1561
     87  C         63.0380   12.0590   35.8340 C.2   231  ILE231      0.2260
     88  O         62.1690   12.8400   35.4350 O.2   231  ILE231     -0.2867
     89  CB        63.7280    9.9930   34.4200 C.3   231  ILE231      0.0252
     90  CG1       64.5010    9.6170   33.1350 C.3   231  ILE231      0.0019
     91  CG2       62.2160    9.7770   34.2020 C.3   231  ILE231      0.0019
     92  CD1       64.8120    8.1220   33.0160 C.3   231  ILE231      0.0001
     93  N         63.2150   15.8030   35.7000 N.3   234  GLN234     -0.1231
     94  CA        62.6110   16.2490   34.4290 C.3   234  GLN234      0.1698
     95  C         61.1060   16.2110   34.4810 C.2   234  GLN234      0.2592
     96  O         60.4640   17.1880   34.0630 O.2   234  GLN234     -0.2718
     97  CB        63.1080   15.4330   33.2310 C.3   234  GLN234      0.0381
     98  CG        64.5780   15.6760   32.9190 C.3   234  GLN234      0.0905
     99  CD        65.0270   14.8350   31.7630 C.2   234  GLN234      0.2608
    100  OE1       64.3780   14.8150   30.7130 O.2   234  GLN234     -0.2717
    101  NE2       66.1130   14.0920   31.9530 N.am  234  GLN234     -0.0878
    102  N         60.5360   15.1160   35.0490 N.am  235  ILE235     -0.1980
    103  CA        59.0870   14.9600   35.2570 C.3   235  ILE235      0.1595
    104  C         58.5550   16.0840   36.1460 C.2   235  ILE235      0.2287
    105  O         57.5890   16.7300   35.7600 O.2   235  ILE235     -0.2864
    106  CB        58.6870   13.5420   35.7850 C.3   235  ILE235      0.0276
    107  CG1       58.9050   12.4650   34.7130 C.3   235  ILE235      0.0022
    108  CG2       57.2340   13.5020   36.2930 C.3   235  ILE235      0.0022
    109  CD1       59.0930   11.0920   35.3270 C.3   235  ILE235      0.0001
    110  N         58.6740   19.4140   34.0500 N.3   238  SER238     -0.1217
    111  CA        57.7180   19.3880   32.9370 C.3   238  SER238      0.1889
    112  C         56.2650   19.3990   33.4590 C.2   238  SER238      0.2288
    113  O         55.4200   20.0990   32.8820 O.2   238  SER238     -0.2866
    114  CB        57.9880   18.2040   32.0110 C.3   238  SER238      0.2089
    115  OG        57.9780   16.9660   32.7050 O.3   238  SER238     -0.2183
    116  N         53.4020   22.1470   32.6450 N.3   242  ALA242     -0.1245
    117  CA        52.0590   21.7600   32.1810 C.3   242  ALA242      0.1562
    118  C         50.9500   22.3120   33.0650 C.2   242  ALA242      0.2260
    119  O         49.9520   22.8130   32.5300 O.2   242  ALA242     -0.2867
    120  CB        51.9380   20.2480   32.0420 C.3   242  ALA242      0.0290
    121  N         49.7060   14.8560   33.2940 N.3   313  ILE313     -0.1245
    122  CA        49.5450   15.1980   31.8820 C.3   313  ILE313      0.1561
    123  C         48.1620   14.7830   31.3310 C.2   313  ILE313      0.2260
    124  O         47.5690   15.5500   30.5720 O.2   313  ILE313     -0.2867
    125  CB        50.7240   14.7040   30.9970 C.3   313  ILE313      0.0252
    126  CG1       52.0930   15.1290   31.6220 C.3   313  ILE313      0.0019
    127  CG2       50.5850   15.2850   29.5720 C.3   313  ILE313      0.0019
    128  CD1       52.2980   16.7010   31.9410 C.3   313  ILE313      0.0001
    129  N         52.7450   16.1930   24.6990 N.3   335  TRP335     -0.1241
    130  CA        53.1790   16.0580   26.0940 C.3   335  TRP335      0.1605
    131  C         52.7450   14.7290   26.6700 C.2   335  TRP335      0.2264
    132  O         53.5460   14.0080   27.2780 O.2   335  TRP335     -0.2867
    133  CB        52.5380   17.1510   26.9280 C.3   335  TRP335      0.0550
    134  CG        53.0140   18.5360   26.6430 C.ar  335  TRP335      0.0003
    135  CD1       54.0190   18.9190   25.8000 C.ar  335  TRP335      0.0946
    136  CD2       52.5210   19.7250   27.2550 C.ar  335  TRP335      0.0152
    137  NE1       54.1570   20.2880   25.8250 N.ar  335  TRP335     -0.2442
    138  CE2       53.2530   20.8070   26.7170 C.ar  335  TRP335      0.0810
    139  CE3       51.5120   19.9890   28.2000 C.ar  335  TRP335      0.0012
    140  CZ2       53.0190   22.1250   27.1080 C.ar  335  TRP335      0.0191
    141  CZ3       51.2430   21.3020   28.5410 C.ar  335  TRP335      0.0001
    142  CH2       51.9890   22.3540   27.9970 C.ar  335  TRP335      0.0015
    143  N         54.5970   11.7990   25.0850 N.3   338  ASP338     -0.1225
    144  CA        55.9820   11.7980   25.6170 C.3   338  ASP338      0.1805
    145  C         56.0010   11.1860   27.0160 C.2   338  ASP338      0.2597
    146  O         56.8240   10.3130   27.3100 O.2   338  ASP338     -0.2718
    147  CB        56.5200   13.2500   25.7410 C.3   338  ASP338      0.1424
    148  CG        57.0450   13.8690   24.4720 C.2   338  ASP338      0.3668
    149  OD1       56.8730   13.2570   23.3980 O.co2 338  ASP338     -0.2456
    150  OD2       57.6320   14.9590   24.5510 O.co2 338  ASP338     -0.2456
    151  N         55.1180   11.6910   27.9000 N.am  339  MET339     -0.1979
    152  CA        55.0320   11.2390   29.2950 C.3   339  MET339      0.1605
    153  C         54.7630    9.7170   29.4090 C.2   339  MET339      0.2287
    154  O         55.2940    9.1100   30.3120 O.2   339  MET339     -0.2864
    155  CB        53.9800   12.0670   30.0720 C.3   339  MET339      0.0413
    156  CG        53.9670   11.8070   31.5810 C.3   339  MET339      0.0598
    157  SD        55.5480   12.2280   32.4020 S.3   339  MET339     -0.1393
    158  CE        55.4050   13.9640   32.5560 C.3   339  MET339      0.0692
    159  N         56.1450    7.3240   28.0110 N.3   341  LEU341     -0.1231
    160  CA        57.4170    6.6180   28.0340 C.3   341  LEU341      0.1693
    161  C         58.0080    6.4510   29.4570 C.2   341  LEU341      0.2591
    162  O         58.6860    5.4450   29.7130 O.2   341  LEU341     -0.2718
    163  CB        58.4220    7.3330   27.1210 C.3   341  LEU341      0.0284
    164  CG        59.8070    6.6420   26.9070 C.3   341  LEU341      0.0019
    165  CD1       59.6710    5.1890   26.4330 C.3   341  LEU341      0.0001
    166  CD2       60.6970    7.4610   25.9630 C.3   341  LEU341      0.0001
    167  N         57.7110    7.4140   30.3840 N.am  342  ALA342     -0.1980
    168  CA        58.2520    7.4750   31.7580 C.3   342  ALA342      0.1597
    169  C         58.1280    6.1940   32.5770 C.2   342  ALA342      0.2287
    170  O         59.0540    5.8610   33.3120 O.2   342  ALA342     -0.2864
    171  CB        57.6550    8.6420   32.5160 C.3   342  ALA342      0.0319
    172  N         60.5590    3.4660   29.9580 N.3   345  GLY345     -0.1210
    173  CA        61.9350    3.8600   29.6960 C.3   345  GLY345      0.1956
    174  C         62.6520    4.1940   30.9890 C.2   345  GLY345      0.2612
    175  O         62.0900    4.8590   31.8630 O.2   345  GLY345     -0.2717
    176  N         63.8710    3.7040   31.1260 N.am  346  GLY346     -0.1956
    177  CA        64.6630    3.9300   32.3340 C.3   346  GLY346      0.1869
    178  C         64.2850    3.0150   33.4790 C.2   346  GLY346      0.2309
    179  O         64.5280    3.3430   34.6420 O.2   346  GLY346     -0.2863
@<TRIPOS>BOND
     1    64    63    2
     2    63    62    1
     3    61    62    1
     4    62    65    1
     5    56    55    2
     6    55    54    1
     7    65    67    1
     8    65    66    1
     9    53    54    1
    10    54    57    1
    11    49    48    1
    12    49    50    2
    13    36    37    1
    14    37    38    1
    15    37    40    1
    16    48    47    1
    17    48    51    1
    18    57    58    1
    19    44    42   ar
    20    44    46   ar
    21    42    41   ar
    22    38    39    2
    23    46    45   ar
    24    41    40    1
    25    41    43   ar
    26    58    59    1
    27    58    60    1
    28    51    52    1
    29   149   148   ar
    30    15    14    1
    31    45    43   ar
    32   148   150   ar
    33   148   147    1
    34    14    11    1
    35   129   130    1
    36   143   144    1
    37    11    12    1
    38    11    10    1
    39   144   147    1
    40   144   145    1
    41    18    19    2
    42    18    17    1
    43   135   137   ar
    44   135   134   ar
    45   137   138   ar
    46   166   164    1
    47     8     7    2
    48    12    16   am
    49    12    13    2
    50   130   131    1
    51   130   133    1
    52    16    17    1
    53   165   164    1
    54    34    33    1
    55    20    17    1
    56    10     7   am
    57   134   133    1
    58   134   136   ar
    59   131   132    2
    60   138   140   ar
    61   138   136   ar
    62     7     6    1
    63   164   163    1
    64   145   146    2
    65   145   151   am
    66   140   142   ar
    67   163   160    1
    68   136   139   ar
    69    23    24    2
    70    23    22    1
    71    32    33    1
    72    32    29    1
    73    25    26    1
    74    25    22    1
    75    25    27    1
    76    21    22    1
    77    33    35    1
    78   151   152    1
    79     9     6    1
    80     6     5    1
    81   142   141   ar
    82   159   160    1
    83   160   161    1
    84   139   141   ar
    85    30    29    1
    86    30    31    2
    87    29    28    1
    88   152   153    1
    89   152   155    1
    90   153   154    2
    91   161   162    2
    92   161   167   am
    93   127   125    1
    94   173   172    1
    95   173   174    1
    96   155   156    1
    97   167   168    1
    98   124   123    2
    99   100    99    2
   100   174   176   am
   101   174   175    2
   102   125   126    1
   103   125   122    1
   104   176   177    1
   105    84    82   ar
   106     4     3    2
   107   123   122    1
   108   156   157    1
   109   126   128    1
   110   168   171    1
   111   168   169    1
   112    99   101   am
   113    99    98    1
   114     3     2    1
   115    82    83   ar
   116    82    81    1
   117   122   121    1
   118   114   115    1
   119   114   111    1
   120   120   117    1
   121     1     2    1
   122   117   116    1
   123   117   118    1
   124   177   178    1
   125   157   158    1
   126   119   118    2
   127    81    80    1
   128   169   170    2
   129   113   112    2
   130    98    97    1
   131   111   112    1
   132   111   110    1
   133    75    73    1
   134    92    90    1
   135    90    89    1
   136    97    94    1
   137   178   179    2
   138    80    77    1
   139    96    95    2
   140    73    74    1
   141    73    72    1
   142    91    89    1
   143    89    86    1
   144    94    95    1
   145    94    93    1
   146    95   102   am
   147   107   109    1
   148   107   106    1
   149    77    78    1
   150    77    76    1
   151    86    85    1
   152    86    87    1
   153   102   103    1
   154    79    78    2
   155   103   106    1
   156   103   104    1
   157    88    87    2
   158    72    69    1
   159    68    69    1
   160    69    70    1
   161   105   104    2
   162   106   108    1
   163    71    70    2
