@<TRIPOS>MOLECULE
tmp/4xvxB02.pdb
 183 170 0 0 0
SMALL
GASTEIGER

@<TRIPOS>ATOM
      1  N         32.7090    5.1240   16.1320 N.3    77  VAL77      -0.1245
      2  CA        32.0770    6.4000   16.4650 C.3    77  VAL77       0.1561
      3  C         31.3100    6.9430   15.2630 C.2    77  VAL77       0.2260
      4  O         30.1650    7.3100   15.4370 O.2    77  VAL77      -0.2867
      5  CB        33.0190    7.4430   17.1390 C.3    77  VAL77       0.0252
      6  CG1       32.3450    8.8110   17.2870 C.3    77  VAL77       0.0019
      7  CG2       33.4950    6.9370   18.5040 C.3    77  VAL77       0.0019
      8  N         27.3660    7.8190   15.3190 N.3    81  LEU81      -0.1245
      9  CA        26.8830    9.1780   15.1080 C.3    81  LEU81       0.1561
     10  C         25.7720    9.2580   14.0650 C.2    81  LEU81       0.2260
     11  O         24.8020   10.0010   14.2530 O.2    81  LEU81      -0.2867
     12  CB        28.0260   10.0880   14.7080 C.3    81  LEU81       0.0270
     13  CG        29.0100   10.4160   15.8390 C.3    81  LEU81       0.0019
     14  CD1       30.1990   11.1460   15.2780 C.3    81  LEU81       0.0001
     15  CD2       28.3360   11.2790   16.9400 C.3    81  LEU81       0.0001
     16  N         26.0930   15.3910   13.0520 N.3   114  ILE114     -0.1245
     17  CA        25.5580   16.2990   14.0700 C.3   114  ILE114      0.1561
     18  C         26.4470   17.5290   14.1980 C.2   114  ILE114      0.2260
     19  O         27.6570   17.3950   14.4180 O.2   114  ILE114     -0.2867
     20  CB        25.4750   15.5850   15.4440 C.3   114  ILE114      0.0252
     21  CG1       24.8580   14.1520   15.3410 C.3   114  ILE114      0.0019
     22  CG2       24.7740   16.4730   16.4920 C.3   114  ILE114      0.0019
     23  CD1       23.4300   14.0220   15.4860 C.3   114  ILE114      0.0001
     24  N         26.4920   20.3340   16.6110 N.3   116  ALA116     -0.1231
     25  CA        26.0870   20.8950   17.9050 C.3   116  ALA116      0.1694
     26  C         27.1490   21.8580   18.4990 C.2   116  ALA116      0.2593
     27  O         26.8460   23.0340   18.7080 O.2   116  ALA116     -0.2718
     28  CB        25.7440   19.7820   18.8860 C.3   116  ALA116      0.0304
     29  N         28.3950   21.3660   18.6940 N.am  117  SER117     -0.1938
     30  CA        29.5490   22.0850   19.2660 C.3   117  SER117      0.2055
     31  C         30.0390   23.2980   18.4750 C.2   117  SER117      0.2643
     32  O         30.0880   23.2760   17.2480 O.2   117  SER117     -0.2714
     33  CB        30.7160   21.1290   19.4970 C.3   117  SER117      0.2130
     34  OG        30.3470   20.2230   20.5240 O.3   117  SER117     -0.2179
     35  N         30.4430   24.3400   19.2080 N.am  118  GLU118     -0.1963
     36  CA        30.9700   25.5940   18.6520 C.3   118  GLU118      0.1733
     37  C         32.2570   25.9440   19.3970 C.2   118  GLU118      0.2616
     38  O         32.5150   25.3750   20.4570 O.2   118  GLU118     -0.2715
     39  CB        29.9530   26.7440   18.8130 C.3   118  GLU118      0.0429
     40  CG        28.5450   26.3930   18.3620 C.3   118  GLU118      0.1163
     41  CD        27.7250   27.4840   17.7070 C.2   118  GLU118      0.3649
     42  OE1       28.2720   28.5740   17.4190 O.co2 118  GLU118     -0.2457
     43  OE2       26.5370   27.2140   17.4210 O.co2 118  GLU118     -0.2457
     44  N         33.0390   26.8900   18.8600 N.am  119  GLU119     -0.1963
     45  CA        34.2900   27.3770   19.4450 C.3   119  GLU119      0.1733
     46  C         34.0140   27.9670   20.8520 C.2   119  GLU119      0.2617
     47  O         34.7290   27.6480   21.8020 O.2   119  GLU119     -0.2715
     48  CB        34.9520   28.3940   18.4850 C.3   119  GLU119      0.0429
     49  CG        36.1670   29.1390   19.0090 C.3   119  GLU119      0.1163
     50  CD        37.3330   28.3110   19.5100 C.2   119  GLU119      0.3649
     51  OE1       38.0730   27.7580   18.6660 O.co2 119  GLU119     -0.2457
     52  OE2       37.5410   28.2690   20.7460 O.co2 119  GLU119     -0.2457
     53  N         32.9390   28.7580   20.9870 N.am  120  SER120     -0.1950
     54  CA        32.5630   29.3600   22.2710 C.3   120  SER120      0.1924
     55  C         31.8820   28.3180   23.1600 C.2   120  SER120      0.2314
     56  O         32.4250   27.9430   24.2010 O.2   120  SER120     -0.2863
     57  CB        31.6690   30.5840   22.0620 C.3   120  SER120      0.2116
     58  OG        30.4780   30.2240   21.3740 O.3   120  SER120     -0.2180
     59  N         31.1400   24.7940   23.5640 N.3   122  GLY122     -0.1210
     60  CA        31.4630   23.4060   23.2740 C.3   122  GLY122      0.1956
     61  C         30.5770   22.4770   24.0850 C.2   122  GLY122      0.2612
     62  O         29.7790   21.7270   23.5140 O.2   122  GLY122     -0.2717
     63  N         30.7030   22.5400   25.4340 N.am  123  SER123     -0.1952
     64  CA        29.9390   21.7410   26.3950 C.3   123  SER123      0.1924
     65  C         28.5520   22.3130   26.7050 C.2   123  SER123      0.2314
     66  O         27.5980   21.5560   26.9130 O.2   123  SER123     -0.2863
     67  CB        30.7300   21.5760   27.6870 C.3   123  SER123      0.2116
     68  OG        31.7790   20.6410   27.5060 O.3   123  SER123     -0.2180
     69  N         33.2510   20.9500   15.8170 N.3   147  PHE147     -0.1227
     70  CA        33.6590   19.5450   15.7500 C.3   147  PHE147      0.1736
     71  C         32.6660   18.6880   15.0180 C.2   147  PHE147      0.2595
     72  O         31.9860   17.8800   15.6340 O.2   147  PHE147     -0.2718
     73  CB        33.8940   18.9940   17.1630 C.3   147  PHE147      0.0547
     74  CG        34.8990   19.7330   18.0090 C.ar  147  PHE147     -0.0202
     75  CD1       36.2600   19.4620   17.8950 C.ar  147  PHE147     -0.0042
     76  CD2       34.4830   20.6650   18.9560 C.ar  147  PHE147     -0.0042
     77  CE1       37.1870   20.1230   18.6990 C.ar  147  PHE147     -0.0003
     78  CE2       35.4140   21.3280   19.7620 C.ar  147  PHE147     -0.0003
     79  CZ        36.7590   21.0480   19.6310 C.ar  147  PHE147     -0.0000
     80  N         32.5620   18.8380   13.7110 N.am  148  VAL148     -0.1966
     81  CA        31.5430   18.0500   13.0110 C.3   148  VAL148      0.1727
     82  C         32.1690   16.8050   12.4390 C.2   148  VAL148      0.2616
     83  O         32.8180   16.8660   11.4040 O.2   148  VAL148     -0.2715
     84  CB        30.7070   18.8630   11.9870 C.3   148  VAL148      0.0290
     85  CG1       29.4850   18.0690   11.5450 C.3   148  VAL148      0.0023
     86  CG2       30.2720   20.1940   12.5830 C.3   148  VAL148      0.0023
     87  N         32.0130   15.6820   13.1450 N.am  149  SER149     -0.1950
     88  CA        32.5490   14.4120   12.6850 C.3   149  SER149      0.1924
     89  C         31.6540   13.9010   11.5500 C.2   149  SER149      0.2314
     90  O         30.4240   14.0060   11.6430 O.2   149  SER149     -0.2863
     91  CB        32.6570   13.4160   13.8360 C.3   149  SER149      0.2116
     92  OG        33.6660   13.8390   14.7450 O.3   149  SER149     -0.2180
     93  N         44.3120   15.0970   14.3500 N.3   189  LYS189     -0.1245
     94  CA        43.9010   14.8100   15.7250 C.3   189  LYS189      0.1561
     95  C         44.8600   13.8840   16.4230 C.2   189  LYS189      0.2260
     96  O         45.6960   13.2540   15.7640 O.2   189  LYS189     -0.2867
     97  CB        42.4620   14.2460   15.7650 C.3   189  LYS189      0.0271
     98  CG        41.4370   15.0720   14.9540 C.3   189  LYS189      0.0035
     99  CD        40.0120   14.4800   15.0050 C.3   189  LYS189      0.0206
    100  CE        39.9340   12.9790   14.7290 C.3   189  LYS189      0.1093
    101  NZ        40.3640   12.6190   13.3440 N.3   189  LYS189     -0.1314
    102  N         38.0100    9.2560   11.9850 N.3   195  LEU195     -0.1245
    103  CA        36.8570   10.0710   12.3870 C.3   195  LEU195      0.1561
    104  C         37.0770   11.4690   11.8070 C.2   195  LEU195      0.2260
    105  O         37.6370   12.3410   12.4730 O.2   195  LEU195     -0.2867
    106  CB        36.6760   10.0840   13.9230 C.3   195  LEU195      0.0270
    107  CG        35.3470   10.6620   14.4450 C.3   195  LEU195      0.0019
    108  CD1       34.1690    9.7650   14.0410 C.3   195  LEU195      0.0001
    109  CD2       35.3730   10.8150   15.9590 C.3   195  LEU195      0.0001
    110  N         36.8380   14.8590   11.1730 N.3   197  THR197     -0.1218
    111  CA        36.1910   15.9270   11.9280 C.3   197  THR197      0.1862
    112  C         36.6790   17.2380   11.3760 C.2   197  THR197      0.2287
    113  O         37.8860   17.4170   11.1700 O.2   197  THR197     -0.2866
    114  CB        36.4820   15.7390   13.4350 C.3   197  THR197      0.1770
    115  OG1       36.2590   14.3760   13.7800 O.3   197  THR197     -0.2211
    116  CG2       35.6500   16.6410   14.3340 C.3   197  THR197      0.0375
    117  N         22.2930   12.5410   21.7740 N.3   226  LEU226     -0.1245
    118  CA        23.4790   12.3740   22.6380 C.3   226  LEU226      0.1561
    119  C         23.3230   11.2020   23.6120 C.2   226  LEU226      0.2260
    120  O         24.2660   10.4570   23.7670 O.2   226  LEU226     -0.2867
    121  CB        23.8500   13.6580   23.3690 C.3   226  LEU226      0.0270
    122  CG        24.3030   14.8350   22.4980 C.3   226  LEU226      0.0019
    123  CD1       24.4140   16.1160   23.3570 C.3   226  LEU226      0.0001
    124  CD2       25.6370   14.5270   21.7460 C.3   226  LEU226      0.0001
    125  N         39.9640   10.0710   23.6480 N.3   343  LEU343     -0.1245
    126  CA        38.8330   10.8400   23.1760 C.3   343  LEU343      0.1561
    127  C         37.5650   10.5720   24.0300 C.2   343  LEU343      0.2260
    128  O         36.6990   11.4500   24.1230 O.2   343  LEU343     -0.2867
    129  CB        38.5630   10.5290   21.6780 C.3   343  LEU343      0.0270
    130  CG        37.4640   11.3710   20.9910 C.3   343  LEU343      0.0019
    131  CD1       37.7070   12.9000   21.1920 C.3   343  LEU343      0.0001
    132  CD2       37.3480   11.0150   19.4990 C.3   343  LEU343      0.0001
    133  N         36.1430   13.0320   26.5250 N.3   346  VAL346     -0.1231
    134  CA        35.8280   14.3590   26.0070 C.3   346  VAL346      0.1692
    135  C         34.7300   14.3180   24.9320 C.2   346  VAL346      0.2593
    136  O         33.7280   15.0320   25.0600 O.2   346  VAL346     -0.2718
    137  CB        37.1190   15.1040   25.5490 C.3   346  VAL346      0.0266
    138  CG1       36.7800   16.3680   24.7570 C.3   346  VAL346      0.0020
    139  CG2       38.0180   15.4400   26.7500 C.3   346  VAL346      0.0020
    140  N         34.9210   13.5030   23.8980 N.am  347  GLY347     -0.1942
    141  CA        33.9330   13.3500   22.8340 C.3   347  GLY347      0.2014
    142  C         32.6750   12.6820   23.3410 C.2   347  GLY347      0.2639
    143  O         32.7510   11.6970   24.0760 O.2   347  GLY347     -0.2714
    144  N         31.5210   13.2150   22.9440 N.am  348  GLY348     -0.1939
    145  CA        30.2250   12.6880   23.3460 C.3   348  GLY348      0.2014
    146  C         29.8330   13.1110   24.7490 C.2   348  GLY348      0.2639
    147  O         29.0020   12.4530   25.3790 O.2   348  GLY348     -0.2714
    148  N         30.4390   14.1880   25.2460 N.am  349  GLY349     -0.1939
    149  CA        30.1430   14.7260   26.5690 C.3   349  GLY349      0.2014
    150  C         31.2950   14.4770   27.5050 C.2   349  GLY349      0.2639
    151  O         31.6730   13.3240   27.7280 O.2   349  GLY349     -0.2714
    152  N         31.8780   15.5650   28.0480 N.am  350  THR350     -0.1950
    153  CA        32.9840   15.5100   29.0170 C.3   350  THR350      0.1897
    154  C         32.5170   14.8940   30.3250 C.2   350  THR350      0.2313
    155  O         31.3200   14.9460   30.6240 O.2   350  THR350     -0.2863
    156  CB        33.5730   16.9070   29.2470 C.3   350  THR350      0.1794
    157  OG1       32.6500   17.7200   29.9860 O.3   350  THR350     -0.2208
    158  CG2       33.9820   17.6040   27.9370 C.3   350  THR350      0.0378
    159  N         32.6790   15.9880   33.3520 N.3   352  GLU352     -0.1231
    160  CA        32.0420   17.0070   34.2100 C.3   352  GLU352      0.1699
    161  C         30.6140   17.2880   33.8370 C.2   352  GLU352      0.2592
    162  O         29.7660   17.2840   34.7170 O.2   352  GLU352     -0.2718
    163  CB        32.8800   18.2960   34.2580 C.3   352  GLU352      0.0402
    164  CG        34.2380   18.1260   34.9440 C.3   352  GLU352      0.1161
    165  CD        35.2990   17.2960   34.2380 C.2   352  GLU352      0.3649
    166  OE1       35.2370   17.1360   32.9980 O.co2 352  GLU352     -0.2457
    167  OE2       36.1680   16.7460   34.9450 O.co2 352  GLU352     -0.2457
    168  N         30.3260   17.4210   32.5230 N.am  353  VAL353     -0.1980
    169  CA        28.9890   17.6660   31.9790 C.3   353  VAL353      0.1595
    170  C         28.0880   16.4740   32.2960 C.2   353  VAL353      0.2287
    171  O         26.9870   16.6460   32.8040 O.2   353  VAL353     -0.2864
    172  CB        29.0610   18.0100   30.4580 C.3   353  VAL353      0.0276
    173  CG1       27.6800   18.0210   29.8170 C.3   353  VAL353      0.0022
    174  CG2       29.7370   19.3490   30.2560 C.3   353  VAL353      0.0022
    175  N         27.3580   16.3660   35.9900 N.3   356  GLU356     -0.1245
    176  CA        26.3160   17.3740   36.2930 C.3   356  GLU356      0.1567
    177  C         24.9170   16.8490   35.9530 C.2   356  GLU356      0.2260
    178  O         23.9820   17.0890   36.7210 O.2   356  GLU356     -0.2867
    179  CB        26.5720   18.7090   35.5850 C.3   356  GLU356      0.0388
    180  CG        27.7770   19.4660   36.1300 C.3   356  GLU356      0.1160
    181  CD        27.6130   20.2270   37.4360 C.2   356  GLU356      0.3649
    182  OE1       26.7040   19.9110   38.2370 O.co2 356  GLU356     -0.2457
    183  OE2       28.4330   21.1370   37.6770 O.co2 356  GLU356     -0.2457
@<TRIPOS>BOND
     1   113   112    2
     2   110   111    1
     3   112   111    1
     4    83    82    2
     5    85    84    1
     6    89    90    2
     7    89    88    1
     8   104   103    1
     9   104   105    2
    10   111   114    1
    11   102   103    1
    12    84    86    1
    13    84    81    1
    14   103   106    1
    15    82    81    1
    16    82    87   am
    17    88    87    1
    18    88    91    1
    19    81    80    1
    20    16    17    1
    21   101   100    1
    22   114   115    1
    23   114   116    1
    24    80    71   am
    25    91    92    1
    26   106   107    1
    27   108   107    1
    28    10    11    2
    29    10     9    1
    30    17    18    1
    31    17    20    1
    32    18    19    2
    33    93    94    1
    34   107   109    1
    35    12     9    1
    36    12    13    1
    37   100    99    1
    38    98    99    1
    39    98    97    1
    40    71    72    2
    41    71    70    1
    42     9     8    1
    43     3     4    2
    44     3     2    1
    45    14    13    1
    46    21    20    1
    47    21    23    1
    48    20    22    1
    49    94    97    1
    50    94    95    1
    51    70    69    1
    52    70    73    1
    53    96    95    2
    54    13    15    1
    55     1     2    1
    56     2     5    1
    57    24    25    1
    58     5     6    1
    59     5     7    1
    60    73    74    1
    61    32    31    2
    62    42    41   ar
    63    43    41   ar
    64    41    40    1
    65    75    74   ar
    66    75    77   ar
    67    25    26    1
    68    25    28    1
    69    74    76   ar
    70    40    39    1
    71    31    35   am
    72    31    30    1
    73    48    49    1
    74    48    45    1
    75    26    29   am
    76    26    27    2
    77    36    39    1
    78    36    35    1
    79    36    37    1
    80    51    50   ar
    81    29    30    1
    82    77    79   ar
    83    44    37   am
    84    44    45    1
    85    76    78   ar
    86    49    50    1
    87    30    33    1
    88    37    38    2
    89    45    46    1
    90    33    34    1
    91   132   130    1
    92    50    52   ar
    93    79    78   ar
    94    46    53   am
    95    46    47    2
    96    53    54    1
    97   130   131    1
    98   130   129    1
    99    58    57    1
   100   129   126    1
   101   124   122    1
   102   117   118    1
   103    57    54    1
   104    54    55    1
   105   122   123    1
   106   122   121    1
   107   118   121    1
   108   118   119    1
   109   141   142    1
   110   141   140    1
   111   144   142   am
   112   144   145    1
   113    55    56    2
   114   126   125    1
   115   126   127    1
   116    60    59    1
   117    60    61    1
   118   142   143    2
   119   145   146    1
   120    62    61    2
   121   119   120    2
   122   140   135   am
   123   127   128    2
   124    61    63   am
   125   146   148   am
   126   146   147    2
   127   138   137    1
   128   135   136    2
   129   135   134    1
   130   148   149    1
   131    63    64    1
   132   137   134    1
   133   137   139    1
   134   134   133    1
   135    64    65    1
   136    64    67    1
   137   149   150    1
   138    65    66    2
   139   150   151    2
   140   150   152   am
   141    68    67    1
   142   158   156    1
   143   152   153    1
   144   153   156    1
   145   153   154    1
   146   156   157    1
   147   173   172    1
   148   174   172    1
   149   154   155    2
   150   172   169    1
   151   169   170    1
   152   169   168    1
   153   170   171    2
   154   168   161   am
   155   166   165   ar
   156   159   160    1
   157   161   160    1
   158   161   162    2
   159   160   163    1
   160   165   164    1
   161   165   167   ar
   162   163   164    1
   163   179   180    1
   164   179   176    1
   165   177   176    1
   166   177   178    2
   167   175   176    1
   168   180   181    1
   169   181   183   ar
   170   181   182   ar
