@<TRIPOS>MOLECULE
tmp/4xvxB00.pdb
 135 132 0 0 0
SMALL
GASTEIGER

@<TRIPOS>ATOM
      1  N         49.8790  -11.9200   24.7740 N.3   251  ARG251     -0.1245
      2  CA        51.2310  -11.3970   24.9210 C.3   251  ARG251      0.1563
      3  C         51.8410  -11.8670   26.2600 C.2   251  ARG251      0.2260
      4  O         52.9880  -12.3150   26.2920 O.2   251  ARG251     -0.2867
      5  CB        51.2080   -9.8520   24.8690 C.3   251  ARG251      0.0307
      6  CG        52.5320   -9.1830   25.2480 C.3   251  ARG251      0.0489
      7  CD        53.5780   -9.4370   24.1830 C.3   251  ARG251      0.2205
      8  NE        54.7720   -8.6170   24.3670 N.pl3 251  ARG251     -0.0865
      9  CZ        55.6970   -8.4450   23.4310 C.cat 251  ARG251      0.5346
     10  NH1       55.5620   -9.0230   22.2420 N.pl3 251  ARG251      0.1354
     11  NH2       56.7640   -7.6920   23.6730 N.pl3 251  ARG251      0.1354
     12  N         55.2940  -13.8930   26.3260 N.3   255  ARG255     -0.1245
     13  CA        56.4580  -13.1130   26.7600 C.3   255  ARG255      0.1563
     14  C         57.0620  -13.6160   28.0810 C.2   255  ARG255      0.2260
     15  O         56.3840  -13.6420   29.1130 O.2   255  ARG255     -0.2867
     16  CB        56.1370  -11.6040   26.8310 C.3   255  ARG255      0.0307
     17  CG        57.3110  -10.7250   27.2660 C.3   255  ARG255      0.0489
     18  CD        58.3480  -10.6370   26.1810 C.3   255  ARG255      0.2205
     19  NE        59.3850   -9.6590   26.4800 N.pl3 255  ARG255     -0.0865
     20  CZ        60.4490   -9.4510   25.7180 C.cat 255  ARG255      0.5346
     21  NH1       60.6350  -10.1690   24.6180 N.pl3 255  ARG255      0.1354
     22  NH2       61.3340   -8.5240   26.0430 N.pl3 255  ARG255      0.1354
     23  N         60.1700  -13.2060   31.0200 N.3   257  GLN257     -0.1231
     24  CA        61.0640  -12.2450   31.6850 C.3   257  GLN257      0.1698
     25  C         61.3100  -12.6880   33.1130 C.2   257  GLN257      0.2592
     26  O         60.3490  -13.0080   33.8130 O.2   257  GLN257     -0.2718
     27  CB        60.5410  -10.8040   31.6440 C.3   257  GLN257      0.0381
     28  CG        61.6720   -9.7730   31.6040 C.3   257  GLN257      0.0905
     29  CD        62.3190   -9.6100   30.2410 C.2   257  GLN257      0.2608
     30  OE1       61.7800   -9.9980   29.1950 O.2   257  GLN257     -0.2717
     31  NE2       63.4720   -8.9720   30.2080 N.am  257  GLN257     -0.0878
     32  N         62.6030  -12.7220   33.5450 N.am  258  PHE258     -0.1976
     33  CA        63.0440  -13.1670   34.8800 C.3   258  PHE258      0.1639
     34  C         62.6040  -14.6360   35.1580 C.2   258  PHE258      0.2290
     35  O         62.1050  -14.9560   36.2470 O.2   258  PHE258     -0.2864
     36  CB        62.5970  -12.1870   36.0010 C.3   258  PHE258      0.0560
     37  CG        63.1580  -10.7830   35.9010 C.ar  258  PHE258     -0.0200
     38  CD1       64.3620  -10.4490   36.5150 C.ar  258  PHE258     -0.0042
     39  CD2       62.4640   -9.7840   35.2240 C.ar  258  PHE258     -0.0042
     40  CE1       64.8740   -9.1500   36.4310 C.ar  258  PHE258     -0.0003
     41  CE2       62.9760   -8.4840   35.1470 C.ar  258  PHE258     -0.0003
     42  CZ        64.1760   -8.1770   35.7510 C.ar  258  PHE258     -0.0000
     43  N         54.9550  -13.4020   31.6240 N.3   262  LEU262     -0.1245
     44  CA        54.3670  -12.2280   32.3060 C.3   262  LEU262      0.1561
     45  C         53.1350  -12.5870   33.1520 C.2   262  LEU262      0.2260
     46  O         52.9700  -12.0600   34.2660 O.2   262  LEU262     -0.2867
     47  CB        54.0380  -11.1160   31.2920 C.3   262  LEU262      0.0270
     48  CG        55.1860  -10.5860   30.4540 C.3   262  LEU262      0.0019
     49  CD1       54.7290   -9.3910   29.6320 C.3   262  LEU262      0.0001
     50  CD2       56.3870  -10.1670   31.3430 C.3   262  LEU262      0.0001
     51  N         53.8430  -13.6540   36.6000 N.3   265  HIS265     -0.1241
     52  CA        54.1730  -12.5910   37.5440 C.3   265  HIS265      0.1621
     53  C         52.8510  -12.1300   38.1780 C.2   265  HIS265      0.2264
     54  O         52.0100  -11.5130   37.5170 O.2   265  HIS265     -0.2867
     55  CB        54.9550  -11.4660   36.8350 C.3   265  HIS265      0.0745
     56  CG        56.3050  -11.9200   36.3580 C.ar  265  HIS265      0.0817
     57  ND1       57.2440  -12.4620   37.2360 N.ar  265  HIS265     -0.2268
     58  CD2       56.8450  -11.8670   35.1200 C.ar  265  HIS265      0.1154
     59  CE1       58.3030  -12.7180   36.4950 C.ar  265  HIS265      0.1986
     60  NE2       58.1040  -12.3840   35.2130 N.ar  265  HIS265     -0.2212
     61  N         51.8220   -9.7980   40.1890 N.3   267  ALA267     -0.1231
     62  CA        51.4130   -8.3860   40.1640 C.3   267  ALA267      0.1694
     63  C         50.7190   -8.0080   38.8420 C.2   267  ALA267      0.2591
     64  O         49.7570   -7.2440   38.8660 O.2   267  ALA267     -0.2718
     65  CB        52.5760   -7.4560   40.4840 C.3   267  ALA267      0.0304
     66  N         51.1750   -8.5700   37.7140 N.am  268  LEU268     -0.1980
     67  CA        50.5680   -8.3240   36.4030 C.3   268  LEU268      0.1596
     68  C         49.2390   -9.0900   36.2530 C.2   268  LEU268      0.2287
     69  O         48.2540   -8.5240   35.7610 O.2   268  LEU268     -0.2864
     70  CB        51.5210   -8.7090   35.2620 C.3   268  LEU268      0.0297
     71  CG        52.9130   -8.0100   35.1840 C.3   268  LEU268      0.0022
     72  CD1       53.5940   -8.3790   33.8710 C.3   268  LEU268      0.0001
     73  CD2       52.8140   -6.4430   35.3160 C.3   268  LEU268      0.0001
     74  N         51.1480   -0.5530   29.0170 N.3   320  HIS320     -0.1226
     75  CA        52.2550   -0.6880   29.9490 C.3   320  HIS320      0.1752
     76  C         52.8650   -2.1090   29.9330 C.2   320  HIS320      0.2596
     77  O         54.0940   -2.2470   30.0270 O.2   320  HIS320     -0.2718
     78  CB        51.8170   -0.2950   31.3760 C.3   320  HIS320      0.0759
     79  CG        52.9330   -0.4610   32.3620 C.ar  320  HIS320      0.0818
     80  ND1       53.9620    0.4590   32.4370 N.ar  320  HIS320     -0.2268
     81  CD2       53.2080   -1.4860   33.2020 C.ar  320  HIS320      0.1154
     82  CE1       54.8090   -0.0150   33.3420 C.ar  320  HIS320      0.1986
     83  NE2       54.3960   -1.1760   33.8350 N.ar  320  HIS320     -0.2212
     84  N         52.0000   -3.1550   29.8420 N.am  321  ILE321     -0.1966
     85  CA        52.3870   -4.5770   29.8600 C.3   321  ILE321      0.1727
     86  C         53.1110   -4.9780   28.5550 C.2   321  ILE321      0.2616
     87  O         53.8750   -5.9380   28.5410 O.2   321  ILE321     -0.2715
     88  CB        51.1770   -5.4870   30.2320 C.3   321  ILE321      0.0290
     89  CG1       50.9250   -5.4010   31.7560 C.3   321  ILE321      0.0022
     90  CG2       51.4110   -6.9400   29.8270 C.3   321  ILE321      0.0023
     91  CD1       49.5770   -5.8310   32.2500 C.3   321  ILE321      0.0001
     92  N         52.9400   -4.1940   27.5030 N.am  322  PHE322     -0.1960
     93  CA        53.6550   -4.4000   26.2470 C.3   322  PHE322      0.1771
     94  C         55.0970   -3.7970   26.2910 C.2   322  PHE322      0.2620
     95  O         55.8490   -3.9720   25.3320 O.2   322  PHE322     -0.2715
     96  CB        52.8290   -3.8550   25.0550 C.3   322  PHE322      0.0574
     97  CG        51.8840   -4.8790   24.4620 C.ar  322  PHE322     -0.0200
     98  CD1       50.6300   -5.1100   25.0350 C.ar  322  PHE322     -0.0042
     99  CD2       52.2600   -5.6400   23.3560 C.ar  322  PHE322     -0.0042
    100  CE1       49.7450   -6.0450   24.4800 C.ar  322  PHE322     -0.0003
    101  CE2       51.3840   -6.5950   22.8140 C.ar  322  PHE322     -0.0003
    102  CZ        50.1330   -6.7970   23.3870 C.ar  322  PHE322     -0.0000
    103  N         55.4520   -3.1260   27.4000 N.am  323  GLY323     -0.1940
    104  CA        56.7540   -2.4960   27.6270 C.3   323  GLY323      0.2014
    105  C         57.2150   -1.6050   26.4840 C.2   323  GLY323      0.2639
    106  O         56.4210   -0.8360   25.9270 O.2   323  GLY323     -0.2714
    107  N         58.4900   -1.7230   26.1150 N.am  324  GLY324     -0.1939
    108  CA        59.0680   -0.9460   25.0160 C.3   324  GLY324      0.2014
    109  C         58.3500   -1.1620   23.6940 C.2   324  GLY324      0.2638
    110  O         58.0680   -0.1950   22.9800 O.2   324  GLY324     -0.2714
    111  N         57.9890   -2.4370   23.3890 N.am  325  ALA325     -0.1977
    112  CA        57.2310   -2.8010   22.1730 C.3   325  ALA325      0.1597
    113  C         55.9290   -2.0150   22.0660 C.2   325  ALA325      0.2287
    114  O         55.5680   -1.6150   20.9580 O.2   325  ALA325     -0.2864
    115  CB        56.9430   -4.2950   22.1490 C.3   325  ALA325      0.0319
    116  N         55.4680    0.9770   22.8710 N.3   327  TYR327     -0.1227
    117  CA        55.8440    2.3220   22.4670 C.3   327  TYR327      0.1736
    118  C         56.3120    2.4230   20.9890 C.2   327  TYR327      0.2595
    119  O         56.4700    3.5280   20.4620 O.2   327  TYR327     -0.2718
    120  CB        56.8900    2.8850   23.4440 C.3   327  TYR327      0.0548
    121  CG        56.8090    4.3860   23.6030 C.ar  327  TYR327     -0.0200
    122  CD1       55.8000    4.9770   24.3700 C.ar  327  TYR327     -0.0009
    123  CD2       57.7650    5.2200   23.0140 C.ar  327  TYR327     -0.0009
    124  CE1       55.7430    6.3620   24.5470 C.ar  327  TYR327      0.0417
    125  CE2       57.7070    6.6060   23.1710 C.ar  327  TYR327      0.0417
    126  CZ        56.6950    7.1690   23.9340 C.ar  327  TYR327      0.1957
    127  OH        56.6690    8.5200   24.1000 O.3   327  TYR327     -0.2866
    128  N         56.4840    1.2670   20.3260 N.am  328  LEU328     -0.1980
    129  CA        56.9230    1.2050   18.9330 C.3   328  LEU328      0.1596
    130  C         55.7390    0.9970   17.9910 C.2   328  LEU328      0.2287
    131  O         55.1090   -0.0620   17.9840 O.2   328  LEU328     -0.2864
    132  CB        58.0240    0.1330   18.7310 C.3   328  LEU328      0.0297
    133  CG        59.2650    0.1960   19.6490 C.3   328  LEU328      0.0022
    134  CD1       60.3140   -0.8010   19.1880 C.3   328  LEU328      0.0001
    135  CD2       59.8710    1.6120   19.7200 C.3   328  LEU328      0.0001
@<TRIPOS>BOND
     1   131   130    2
     2   130   129    1
     3   132   129    1
     4   132   133    1
     5   129   128    1
     6   134   133    1
     7   133   135    1
     8   128   118   am
     9   119   118    2
    10   114   113    2
    11   118   117    1
    12   113   112    1
    13   115   112    1
    14   112   111    1
    15    10     9    1
    16   117   116    1
    17   117   120    1
    18   101    99   ar
    19   101   102   ar
    20   110   109    2
    21   123   125   ar
    22   123   121   ar
    23   125   126   ar
    24    99    97   ar
    25   102   100   ar
    26   111   109   am
    27     9    11    1
    28     9     8    2
    29   120   121    1
    30   121   122   ar
    31   109   108    1
    32   126   127    1
    33   126   124   ar
    34     7     8    1
    35     7     6    1
    36   122   124   ar
    37    97    98   ar
    38    97    96    1
    39   100    98   ar
    40    21    20    1
    41     1     2    1
    42     5     2    1
    43     5     6    1
    44     2     3    1
    45   108   107    1
    46    96    93    1
    47    95    94    2
    48    20    22    1
    49    20    19    2
    50   106   105    2
    51   107   105   am
    52    18    19    1
    53    18    17    1
    54    93    94    1
    55    93    92    1
    56     3     4    2
    57    94   103   am
    58    12    13    1
    59   105   104    1
    60    13    16    1
    61    13    14    1
    62    16    17    1
    63   103   104    1
    64    92    86   am
    65    14    15    2
    66    87    86    2
    67    86    85    1
    68    74    75    1
    69    30    29    2
    70    49    48    1
    71    90    88    1
    72    84    85    1
    73    84    76   am
    74    85    88    1
    75    76    75    1
    76    76    77    2
    77    75    78    1
    78    31    29   am
    79    88    89    1
    80    29    28    1
    81    48    47    1
    82    48    50    1
    83    23    24    1
    84    47    44    1
    85    78    79    1
    86    28    27    1
    87    43    44    1
    88    27    24    1
    89    24    25    1
    90    89    91    1
    91    44    45    1
    92    79    80   ar
    93    79    81   ar
    94    80    82   ar
    95    25    32   am
    96    25    26    2
    97    45    46    2
    98    81    83   ar
    99    82    83   ar
   100    32    33    1
   101    72    71    1
   102    33    34    1
   103    33    36    1
   104    58    60   ar
   105    58    56   ar
   106    41    39   ar
   107    41    42   ar
   108    34    35    2
   109    71    70    1
   110    71    73    1
   111    60    59   ar
   112    39    37   ar
   113    70    67    1
   114    42    40   ar
   115    69    68    2
   116    37    36    1
   117    37    38   ar
   118    68    67    1
   119    56    55    1
   120    56    57   ar
   121    67    66    1
   122    40    38   ar
   123    59    57   ar
   124    51    52    1
   125    55    52    1
   126    54    53    2
   127    52    53    1
   128    66    63   am
   129    63    64    2
   130    63    62    1
   131    62    61    1
   132    62    65    1
