@<TRIPOS>MOLECULE
tmp/4xwaA00.pdb
 170 162 0 0 0
SMALL
GASTEIGER

@<TRIPOS>ATOM
      1  N          3.2590   -0.4930    7.8550 N.3    10  GLU10      -0.1245
      2  CA         3.5760   -0.4740    9.2810 C.3    10  GLU10       0.1567
      3  C          2.1930   -0.5730    9.9850 C.2    10  GLU10       0.2260
      4  O          1.1760   -0.1970    9.3950 O.2    10  GLU10      -0.2867
      5  CB         4.3000    0.8270    9.6420 C.3    10  GLU10       0.0388
      6  CG         5.7430    0.8900    9.1590 C.3    10  GLU10       0.1160
      7  CD         6.3500    2.2820    9.1230 C.2    10  GLU10       0.3649
      8  OE1        6.2200    3.0200   10.1260 O.co2  10  GLU10      -0.2457
      9  OE2        6.9790    2.6260    8.0960 O.co2  10  GLU10      -0.2457
     10  N         15.7870  -10.1850    6.2070 N.3    35  ARG35      -0.1231
     11  CA        15.2860   -8.9660    5.5830 C.3    35  ARG35       0.1694
     12  C         16.4470   -8.3240    4.8420 C.2    35  ARG35       0.2592
     13  O         17.6040   -8.6090    5.1560 O.2    35  ARG35      -0.2718
     14  CB        14.6360   -8.0050    6.6080 C.3    35  ARG35       0.0321
     15  CG        15.5840   -7.1900    7.4640 C.3    35  ARG35       0.0489
     16  CD        14.8220   -6.0560    8.1350 C.3    35  ARG35       0.2205
     17  NE        14.9890   -6.1050    9.5830 N.pl3  35  ARG35      -0.0865
     18  CZ        15.9760   -5.5040   10.2380 C.cat  35  ARG35       0.5346
     19  NH1       16.8940   -4.8110    9.5770 N.pl3  35  ARG35       0.1354
     20  NH2       16.0590   -5.5990   11.5570 N.pl3  35  ARG35       0.1354
     21  N         16.1610   -7.4730    3.8720 N.am   36  GLU36      -0.1966
     22  CA        17.2300   -6.7950    3.1390 C.3    36  GLU36       0.1718
     23  C         17.7630   -5.6410    3.9770 C.2    36  GLU36       0.2458
     24  O         16.9730   -4.9690    4.6400 O.2    36  GLU36      -0.2730
     25  CB        16.7140   -6.2530    1.8050 C.3    36  GLU36       0.0428
     26  CG        16.2110   -7.3350    0.8690 C.3    36  GLU36       0.1163
     27  CD        15.0570   -6.9310   -0.0320 C.2    36  GLU36       0.3649
     28  OE1       14.7840   -7.6840   -0.9880 O.co2  36  GLU36      -0.2457
     29  OE2       14.4250   -5.8750    0.2010 O.co2  36  GLU36      -0.2457
     30  N         19.0740   -5.3560    3.9490 N.am   37  PRO37      -0.2727
     31  CA        20.1440   -6.0700    3.2290 C.3    37  PRO37       0.1402
     32  C         20.5940   -7.3820    3.9060 C.2    37  PRO37       0.2269
     33  O         21.2180   -8.2110    3.2560 O.2    37  PRO37      -0.2865
     34  CB        21.2280   -5.0130    3.1260 C.3    37  PRO37       0.0296
     35  CG        21.0960   -4.2340    4.4220 C.3    37  PRO37       0.0237
     36  CD        19.6130   -4.2190    4.7270 C.3    37  PRO37       0.0939
     37  N         25.1090   -0.2370    0.6580 N.3    46  ILE46      -0.1231
     38  CA        24.0110    0.4320   -0.0580 C.3    46  ILE46       0.1692
     39  C         23.0250    1.0340    0.9610 C.2    46  ILE46       0.2591
     40  O         22.5990    2.1900    0.8070 O.2    46  ILE46      -0.2718
     41  CB        23.3430   -0.5370   -1.0710 C.3    46  ILE46       0.0266
     42  CG1       24.2840   -0.8240   -2.2560 C.3    46  ILE46       0.0019
     43  CG2       22.0050    0.0230   -1.5800 C.3    46  ILE46       0.0020
     44  CD1       24.0070   -2.1900   -3.0090 C.3    46  ILE46       0.0001
     45  N         22.6990    0.2690    2.0200 N.am   47  ARG47      -0.1980
     46  CA        21.8060    0.7220    3.0990 C.3    47  ARG47       0.1597
     47  C         22.3530    2.0320    3.7310 C.2    47  ARG47       0.2287
     48  O         21.5850    2.9610    3.9640 O.2    47  ARG47      -0.2864
     49  CB        21.6470   -0.3760    4.1660 C.3    47  ARG47       0.0334
     50  CG        20.7610    0.0320    5.3410 C.3    47  ARG47       0.0492
     51  CD        20.6480   -1.0500    6.3930 C.3    47  ARG47       0.2205
     52  NE        20.0130   -0.5380    7.6090 N.pl3  47  ARG47      -0.0865
     53  CZ        20.6740   -0.0140    8.6400 C.cat  47  ARG47       0.5346
     54  NH1       22.0050    0.0830    8.6110 N.pl3  47  ARG47       0.1354
     55  NH2       20.0120    0.4320    9.7000 N.pl3  47  ARG47       0.1354
     56  N         21.5440    5.0270    1.3960 N.3    50  VAL50      -0.1231
     57  CA        20.1230    5.3480    1.5090 C.3    50  VAL50       0.1692
     58  C         19.8670    6.1380    2.8180 C.2    50  VAL50       0.2591
     59  O         19.2560    7.2020    2.7760 O.2    50  VAL50      -0.2718
     60  CB        19.2320    4.0710    1.3960 C.3    50  VAL50       0.0266
     61  CG1       17.7560    4.3670    1.7050 C.3    50  VAL50       0.0020
     62  CG2       19.3550    3.4460    0.0020 C.3    50  VAL50       0.0020
     63  N         20.3500    5.6180    3.9530 N.am   51  LEU51      -0.1980
     64  CA        20.1220    6.2440    5.2580 C.3    51  LEU51       0.1596
     65  C         20.8530    7.5670    5.4750 C.2    51  LEU51       0.2287
     66  O         20.3560    8.3980    6.2350 O.2    51  LEU51      -0.2864
     67  CB        20.4310    5.2740    6.3950 C.3    51  LEU51       0.0297
     68  CG        19.5910    3.9930    6.4610 C.3    51  LEU51       0.0022
     69  CD1       20.0560    3.1450    7.5970 C.3    51  LEU51       0.0001
     70  CD2       18.1110    4.2930    6.6230 C.3    51  LEU51       0.0001
     71  N         16.7800    6.2830   -4.9960 N.3    61  GLU61      -0.1245
     72  CA        16.3770    5.4710   -3.8500 C.3    61  GLU61       0.1567
     73  C         15.7940    4.1240   -4.3220 C.2    61  GLU61       0.2260
     74  O         16.1900    3.0760   -3.8060 O.2    61  GLU61      -0.2867
     75  CB        15.3640    6.2600   -3.0040 C.3    61  GLU61       0.0388
     76  CG        14.7870    5.4970   -1.8310 C.3    61  GLU61       0.1160
     77  CD        13.6910    6.2720   -1.1310 C.2    61  GLU61       0.3649
     78  OE1       12.5120    5.8620   -1.2230 O.co2  61  GLU61      -0.2457
     79  OE2       14.0040    7.3530   -0.5870 O.co2  61  GLU61      -0.2457
     80  N         18.6060    1.8800   -5.5130 N.3    64  LEU64      -0.1231
     81  CA        19.3960    1.3590   -4.3920 C.3    64  LEU64       0.1693
     82  C         18.6570    0.2620   -3.6380 C.2    64  LEU64       0.2592
     83  O         19.2780   -0.7600   -3.3200 O.2    64  LEU64      -0.2718
     84  CB        19.9050    2.4690   -3.4660 C.3    64  LEU64       0.0284
     85  CG        20.8910    3.4660   -4.1190 C.3    64  LEU64       0.0019
     86  CD1       21.1850    4.6060   -3.1920 C.3    64  LEU64       0.0001
     87  CD2       22.1990    2.7820   -4.5570 C.3    64  LEU64       0.0001
     88  N         17.3200    0.4000   -3.4310 N.am   65  PHE65      -0.1976
     89  CA        16.5640   -0.6990   -2.7980 C.3    65  PHE65       0.1639
     90  C         16.6540   -1.9460   -3.6750 C.2    65  PHE65       0.2290
     91  O         16.7650   -3.0460   -3.1530 O.2    65  PHE65      -0.2864
     92  CB        15.0900   -0.3390   -2.5370 C.3    65  PHE65       0.0560
     93  CG        14.8700    0.4410   -1.2640 C.ar   65  PHE65      -0.0200
     94  CD1       15.0250   -0.1610   -0.0200 C.ar   65  PHE65      -0.0042
     95  CD2       14.5180    1.7820   -1.3030 C.ar   65  PHE65      -0.0042
     96  CE1       14.8570    0.5790    1.1630 C.ar   65  PHE65      -0.0003
     97  CE2       14.3080    2.4990   -0.1200 C.ar   65  PHE65      -0.0003
     98  CZ        14.5030    1.9020    1.1020 C.ar   65  PHE65      -0.0000
     99  N         20.2470   -3.5000   -3.3680 N.3    68  SER68      -0.1202
    100  CA        20.3200   -4.1990   -2.0640 C.3    68  SER68       0.2020
    101  C         19.5330   -5.5130   -2.1650 C.2    68  SER68       0.2618
    102  O         20.0210   -6.5290   -1.6830 O.2    68  SER68      -0.2717
    103  CB        19.7280   -3.3310   -0.9550 C.3    68  SER68       0.2103
    104  OG        19.2320   -4.1530    0.0910 O.3    68  SER68      -0.2182
    105  N         18.3280   -5.4930   -2.8160 N.am   69  ARG69      -0.1979
    106  CA        17.4890   -6.6830   -3.0450 C.3    69  ARG69       0.1597
    107  C         18.2970   -7.7560   -3.7920 C.2    69  ARG69       0.2287
    108  O         18.2540   -8.9270   -3.4270 O.2    69  ARG69      -0.2864
    109  CB        16.2410   -6.2890   -3.8840 C.3    69  ARG69       0.0334
    110  CG        15.2900   -7.4670   -4.2390 C.3    69  ARG69       0.0492
    111  CD        13.8380   -7.0020   -4.3440 C.3    69  ARG69       0.2205
    112  NE        13.4320   -6.3990   -3.0740 N.pl3  69  ARG69      -0.0865
    113  CZ        12.9770   -5.1600   -2.9140 C.cat  69  ARG69       0.5346
    114  NH1       12.6990   -4.4030   -3.9650 N.pl3  69  ARG69       0.1354
    115  NH2       12.7450   -4.6870   -1.7020 N.pl3  69  ARG69       0.1354
    116  N          9.7380   -8.2280    3.6730 N.3    91  ARG91      -0.1245
    117  CA         9.6990   -7.2660    2.5640 C.3    91  ARG91       0.1563
    118  C         10.5190   -7.7420    1.3850 C.2    91  ARG91       0.2260
    119  O         11.6270   -8.2140    1.5540 O.2    91  ARG91      -0.2867
    120  CB        10.0970   -5.8190    2.9530 C.3    91  ARG91       0.0307
    121  CG         9.2170   -5.2150    4.0600 C.3    91  ARG91       0.0489
    122  CD         9.4570   -3.7210    4.2060 C.3    91  ARG91       0.2205
    123  NE         8.5640   -3.1460    5.2160 N.pl3  91  ARG91      -0.0865
    124  CZ         7.2720   -2.9070    5.0330 C.cat  91  ARG91       0.5346
    125  NH1        6.6910   -3.1980    3.8700 N.pl3  91  ARG91       0.1354
    126  NH2        6.5420   -2.4040    6.0190 N.pl3  91  ARG91       0.1354
    127  N          7.1700   -4.4410   -1.6610 N.3    95  SER95      -0.1202
    128  CA         7.4310   -3.2520   -0.8490 C.3    95  SER95       0.2020
    129  C          7.8960   -2.1220   -1.7480 C.2    95  SER95       0.2619
    130  O          7.4400   -0.9970   -1.5820 O.2    95  SER95      -0.2717
    131  CB         8.4850   -3.5470    0.2220 C.3    95  SER95       0.2103
    132  OG         7.8500   -4.1510    1.3370 O.3    95  SER95      -0.2182
    133  N          8.7930   -2.4040   -2.7190 N.am   96  SER96      -0.1951
    134  CA         9.2190   -1.3610   -3.6500 C.3    96  SER96       0.1924
    135  C          8.0390   -0.8980   -4.5020 C.2    96  SER96       0.2314
    136  O          7.8600    0.3100   -4.6800 O.2    96  SER96      -0.2863
    137  CB        10.3550   -1.8410   -4.5510 C.3    96  SER96       0.2116
    138  OG        11.5970   -1.7620   -3.8690 O.3    96  SER96      -0.2180
    139  N          5.6610    1.2570   -1.9510 N.3    99  TYR99      -0.1227
    140  CA         6.3170    2.4480   -1.4170 C.3    99  TYR99       0.1736
    141  C          6.8830    3.3540   -2.5020 C.2    99  TYR99       0.2595
    142  O          6.4340    4.4890   -2.6050 O.2    99  TYR99      -0.2718
    143  CB         7.4150    2.0690   -0.3840 C.3    99  TYR99       0.0548
    144  CG         6.8710    1.5630    0.9450 C.ar   99  TYR99      -0.0200
    145  CD1        6.3700    0.2660    1.0720 C.ar   99  TYR99      -0.0009
    146  CD2        6.8810    2.3710    2.0800 C.ar   99  TYR99      -0.0009
    147  CE1        5.8330   -0.1890    2.2770 C.ar   99  TYR99       0.0417
    148  CE2        6.3850    1.9100    3.3050 C.ar   99  TYR99       0.0417
    149  CZ         5.8680    0.6270    3.3990 C.ar   99  TYR99       0.1957
    150  OH         5.3470    0.1840    4.5930 O.3    99  TYR99      -0.2866
    151  N          7.8500    2.8680   -3.3200 N.am  100  GLN100     -0.1979
    152  CA         8.4600    3.6940   -4.3740 C.3   100  GLN100      0.1601
    153  C          7.4890    3.9290   -5.5480 C.2   100  GLN100      0.2287
    154  O          7.3630    5.0500   -6.0210 O.2   100  GLN100     -0.2864
    155  CB         9.7930    3.0710   -4.8860 C.3   100  GLN100      0.0394
    156  CG        11.0040    3.3380   -3.9580 C.3   100  GLN100      0.0908
    157  CD        10.9080    2.6590   -2.6270 C.2   100  GLN100      0.2608
    158  OE1       10.6110    1.4620   -2.5420 O.2   100  GLN100     -0.2717
    159  NE2       11.2030    3.3980   -1.5580 N.am  100  GLN100     -0.0878
    160  N          5.1150    6.8960   -3.3330 N.3   104  ARG104     -0.1245
    161  CA         6.0080    7.9800   -3.7390 C.3   104  ARG104      0.1563
    162  C          5.7330    8.4930   -5.1610 C.2   104  ARG104      0.2260
    163  O          6.2700    9.5330   -5.5380 O.2   104  ARG104     -0.2867
    164  CB         7.4740    7.5920   -3.5290 C.3   104  ARG104      0.0307
    165  CG         7.8040    7.5220   -2.0450 C.3   104  ARG104      0.0489
    166  CD         8.6090    8.7050   -1.5450 C.3   104  ARG104      0.2205
    167  NE         8.7000    8.7610   -0.0800 N.pl3 104  ARG104     -0.0865
    168  CZ         9.4810    7.9910    0.6820 C.cat 104  ARG104      0.5346
    169  NH1       10.2510    7.0560    0.1310 N.pl3 104  ARG104      0.1354
    170  NH2        9.4880    8.1430    2.0030 N.pl3 104  ARG104      0.1354
@<TRIPOS>BOND
     1   154   153    2
     2   153   152    1
     3   163   162    2
     4    80    81    1
     5   162   161    1
     6    71    72    1
     7   155   152    1
     8   155   156    1
     9   136   135    2
    10    87    85    1
    11   137   138    1
    12   137   134    1
    13   135   134    1
    14    81    82    1
    15    81    84    1
    16   152   151    1
    17   111   110    1
    18   111   112    1
    19    73    72    1
    20    73    74    2
    21   110   109    1
    22    85    84    1
    23    85    86    1
    24   114   113    1
    25   156   157    1
    26   109   106    1
    27    72    75    1
    28   107   108    2
    29   107   106    1
    30   161   164    1
    31   161   160    1
    32    90    91    2
    33    90    89    1
    34   134   133    1
    35    82    88   am
    36    82    83    2
    37   164   165    1
    38    88    89    1
    39    99   100    1
    40   151   141   am
    41   112   113    2
    42   106   105    1
    43    44    42    1
    44    75    76    1
    45   113   115    1
    46   105   101   am
    47    89    92    1
    48   133   129   am
    49   157   158    2
    50   157   159   am
    51   142   141    2
    52    92    93    1
    53   141   140    1
    54    42    41    1
    55   101   100    1
    56   101   102    2
    57   100   103    1
    58   165   166    1
    59   139   140    1
    60    76    77    1
    61   129   130    2
    62   129   128    1
    63   127   128    1
    64    43    41    1
    65   166   167    1
    66   140   143    1
    67    95    93   ar
    68    95    97   ar
    69    93    94   ar
    70    78    77   ar
    71    77    79   ar
    72    41    38    1
    73    28    27   ar
    74   103   104    1
    75   128   131    1
    76   143   144    1
    77    97    98   ar
    78   167   168    2
    79    38    37    1
    80    38    39    1
    81    27    29   ar
    82    27    26    1
    83    94    96   ar
    84    62    60    1
    85   169   168    1
    86   131   132    1
    87   168   170    1
    88    40    39    2
    89    26    25    1
    90   144   145   ar
    91   144   146   ar
    92    39    45   am
    93   145   147   ar
    94    98    96   ar
    95   118   119    2
    96   118   117    1
    97    56    57    1
    98    60    57    1
    99    60    61    1
   100    57    58    1
   101    25    22    1
   102    45    46    1
   103   146   148   ar
   104   147   149   ar
   105   117   120    1
   106   117   116    1
   107    59    58    2
   108    58    63   am
   109   120   121    1
   110    46    47    1
   111    46    49    1
   112    34    31    1
   113    34    35    1
   114    22    21    1
   115    22    23    1
   116    31    32    1
   117    31    30    1
   118    33    32    2
   119   148   149   ar
   120   149   150    1
   121    47    48    2
   122   125   124    1
   123    21    12   am
   124    30    23   am
   125    30    36    1
   126    63    64    1
   127    23    24    2
   128   121   122    1
   129    49    50    1
   130   122   123    1
   131    35    36    1
   132    12    13    2
   133    12    11    1
   134   124   123    2
   135   124   126    1
   136    64    65    1
   137    64    67    1
   138    50    51    1
   139    65    66    2
   140    11    10    1
   141    11    14    1
   142    51    52    1
   143    67    68    1
   144    68    70    1
   145    68    69    1
   146    14    15    1
   147    15    16    1
   148    52    53    2
   149     1     2    1
   150     9     7   ar
   151    16    17    1
   152    54    53    1
   153    53    55    1
   154     7     6    1
   155     7     8   ar
   156     6     5    1
   157     2     5    1
   158     2     3    1
   159     4     3    2
   160    19    18    1
   161    17    18    2
   162    18    20    1
