@<TRIPOS>MOLECULE
tmp/4xwhA05.pdb
 151 151 0 0 0
SMALL
GASTEIGER

@<TRIPOS>ATOM
      1  N         17.3170   93.4280   42.0710 N.3   113  CYS113     -0.1235
      2  CA        18.3530   93.3900   43.0940 C.3   113  CYS113      0.1677
      3  C         19.4810   94.3840   42.8500 C.2   113  CYS113      0.2270
      4  O         20.1200   94.7940   43.8000 O.2   113  CYS113     -0.2867
      5  CB        18.9600   91.9910   43.1900 C.3   113  CYS113      0.0956
      6  SG        17.7050   90.7690   43.6160 S.3   113  CYS113     -0.0801
      7  N         22.0280   96.1140   45.4930 N.3   117  TYR117     -0.1241
      8  CA        23.3920   95.5830   45.6530 C.3   117  TYR117      0.1605
      9  C         24.4550   96.5100   45.0330 C.2   117  TYR117      0.2264
     10  O         25.5600   96.5720   45.5390 O.2   117  TYR117     -0.2867
     11  CB        23.5340   94.1500   45.1010 C.3   117  TYR117      0.0534
     12  CG        22.9290   93.0460   45.9260 C.ar  117  TYR117     -0.0201
     13  CD1       23.1300   92.9760   47.2980 C.ar  117  TYR117     -0.0009
     14  CD2       22.1920   92.0420   45.3410 C.ar  117  TYR117     -0.0009
     15  CE1       22.5920   91.9530   48.0600 C.ar  117  TYR117      0.0417
     16  CE2       21.6500   91.0220   46.1020 C.ar  117  TYR117      0.0417
     17  CZ        21.8640   90.9910   47.4620 C.ar  117  TYR117      0.1957
     18  OH        21.3630   90.0000   48.2390 O.3   117  TYR117     -0.2866
     19  N         13.9640   93.9760   48.3590 N.3   178  TRP178     -0.1241
     20  CA        13.2030   92.8800   48.9310 C.3   178  TRP178      0.1605
     21  C         11.9430   93.3840   49.6230 C.2   178  TRP178      0.2264
     22  O         10.9320   92.6860   49.6910 O.2   178  TRP178     -0.2867
     23  CB        14.1490   91.9870   49.7840 C.3   178  TRP178      0.0550
     24  CG        15.2240   91.5060   48.8820 C.ar  178  TRP178      0.0003
     25  CD1       15.1390   90.4910   47.9620 C.ar  178  TRP178      0.0946
     26  CD2       16.4920   92.1220   48.6710 C.ar  178  TRP178      0.0152
     27  NE1       16.3020   90.4060   47.2310 N.ar  178  TRP178     -0.2442
     28  CE2       17.1550   91.3910   47.6600 C.ar  178  TRP178      0.0810
     29  CE3       17.1400   93.2310   49.2450 C.ar  178  TRP178      0.0012
     30  CZ2       18.4270   91.7170   47.2300 C.ar  178  TRP178      0.0191
     31  CZ3       18.3930   93.5670   48.8080 C.ar  178  TRP178      0.0001
     32  CH2       19.0270   92.8270   47.7920 C.ar  178  TRP178      0.0015
     33  N         10.1070   84.6150   54.5400 N.3   245  TRP245     -0.1241
     34  CA        11.1700   84.5990   53.5460 C.3   245  TRP245      0.1605
     35  C         12.5450   84.8490   54.1850 C.2   245  TRP245      0.2264
     36  O         12.6800   85.6560   55.0920 O.2   245  TRP245     -0.2867
     37  CB        10.8970   85.6540   52.4960 C.3   245  TRP245      0.0550
     38  CG        11.9380   85.7990   51.4220 C.ar  245  TRP245      0.0003
     39  CD1       11.9510   85.1840   50.2140 C.ar  245  TRP245      0.0946
     40  CD2       13.0840   86.6610   51.4500 C.ar  245  TRP245      0.0152
     41  NE1       13.0180   85.6310   49.4620 N.ar  245  TRP245     -0.2442
     42  CE2       13.7390   86.5240   50.2050 C.ar  245  TRP245      0.0810
     43  CE3       13.6160   87.5460   52.4050 C.ar  245  TRP245      0.0012
     44  CZ2       14.9230   87.2000   49.9010 C.ar  245  TRP245      0.0191
     45  CZ3       14.7950   88.2430   52.0900 C.ar  245  TRP245      0.0001
     46  CH2       15.4250   88.0610   50.8400 C.ar  245  TRP245      0.0015
     47  N          7.4940   86.5440   43.9660 N.3   291  ASN291     -0.1225
     48  CA         8.9220   86.3020   43.8060 C.3   291  ASN291      0.1785
     49  C          9.4720   85.6270   45.0710 C.2   291  ASN291      0.2597
     50  O          9.5360   86.2300   46.1390 O.2   291  ASN291     -0.2718
     51  CB         9.6860   87.5820   43.5010 C.3   291  ASN291      0.1169
     52  CG        10.9820   87.3170   42.7610 C.2   291  ASN291      0.2627
     53  OD1       10.9910   87.1610   41.5260 O.2   291  ASN291     -0.2716
     54  ND2       12.0820   87.2830   43.4940 N.am  291  ASN291     -0.0877
     55  N          9.7970   84.3420   44.9350 N.am  292  GLU292     -0.1979
     56  CA        10.3370   83.5300   46.0100 C.3   292  GLU292      0.1602
     57  C          9.3650   83.3340   47.1760 C.2   292  GLU292      0.2287
     58  O          9.8090   83.0950   48.2980 O.2   292  GLU292     -0.2864
     59  CB        11.6940   84.0810   46.4840 C.3   292  GLU292      0.0415
     60  CG        12.7280   84.1370   45.3620 C.3   292  GLU292      0.1163
     61  CD        14.1820   84.1570   45.8580 C.2   292  GLU292      0.3649
     62  OE1       14.4580   84.6310   47.0000 O.co2 292  GLU292     -0.2457
     63  OE2       15.0600   83.6990   45.0820 O.co2 292  GLU292     -0.2457
     64  N         11.4170   84.6580   37.1760 N.3   328  TRP328     -0.1241
     65  CA        12.2870   83.9430   38.1420 C.3   328  TRP328      0.1605
     66  C         11.5420   82.8940   38.9420 C.2   328  TRP328      0.2264
     67  O         12.0450   81.7510   39.1090 O.2   328  TRP328     -0.2867
     68  CB        12.9790   84.9270   39.0790 C.3   328  TRP328      0.0550
     69  CG        13.8320   84.3340   40.1660 C.ar  328  TRP328      0.0003
     70  CD1       13.5050   84.2480   41.4810 C.ar  328  TRP328      0.0946
     71  CD2       15.1530   83.7600   40.0440 C.ar  328  TRP328      0.0152
     72  NE1       14.5100   83.6430   42.1870 N.ar  328  TRP328     -0.2442
     73  CE2       15.5460   83.3510   41.3450 C.ar  328  TRP328      0.0810
     74  CE3       16.0290   83.5550   38.9740 C.ar  328  TRP328      0.0012
     75  CZ2       16.7830   82.7650   41.6200 C.ar  328  TRP328      0.0191
     76  CZ3       17.2680   82.9730   39.2360 C.ar  328  TRP328      0.0001
     77  CH2       17.6340   82.5670   40.5620 C.ar  328  TRP328      0.0015
     78  N         12.3260   79.1720   40.2030 N.3   332  HIS332     -0.1241
     79  CA        12.7090   79.1000   41.6160 C.3   332  HIS332      0.1621
     80  C         11.8570   78.1300   42.4220 C.2   332  HIS332      0.2264
     81  O         12.3790   77.4560   43.2860 O.2   332  HIS332     -0.2867
     82  CB        12.6280   80.4870   42.2350 C.3   332  HIS332      0.0745
     83  CG        13.0440   80.5300   43.6600 C.ar  332  HIS332      0.0817
     84  ND1       12.1310   80.5520   44.6990 N.ar  332  HIS332     -0.2268
     85  CD2       14.2720   80.5320   44.2250 C.ar  332  HIS332      0.1154
     86  CE1       12.7830   80.5880   45.8440 C.ar  332  HIS332      0.1986
     87  NE2       14.0840   80.5650   45.5870 N.ar  332  HIS332     -0.2212
     88  N         25.2850   86.5740   40.9400 N.3   386  PHE386     -0.1241
     89  CA        24.4850   86.6280   42.1680 C.3   386  PHE386      0.1605
     90  C         25.2040   87.3830   43.2830 C.2   386  PHE386      0.2264
     91  O         26.4220   87.2980   43.4390 O.2   386  PHE386     -0.2867
     92  CB        24.1540   85.2150   42.6050 C.3   386  PHE386      0.0534
     93  CG        23.2630   84.4910   41.6340 C.ar  386  PHE386     -0.0203
     94  CD1       21.8820   84.6900   41.6520 C.ar  386  PHE386     -0.0042
     95  CD2       23.7970   83.6560   40.6700 C.ar  386  PHE386     -0.0042
     96  CE1       21.0530   84.0380   40.7480 C.ar  386  PHE386     -0.0003
     97  CE2       22.9760   82.9940   39.7590 C.ar  386  PHE386     -0.0003
     98  CZ        21.6010   83.1880   39.7940 C.ar  386  PHE386     -0.0000
     99  N         22.6210   90.5470   39.4390 N.3   422  GLU422     -0.1245
    100  CA        22.2470   91.0160   40.7730 C.3   422  GLU422      0.1567
    101  C         23.1180   92.1410   41.2320 C.2   422  GLU422      0.2260
    102  O         22.6150   93.0570   41.8450 O.2   422  GLU422     -0.2867
    103  CB        22.2190   89.9050   41.7680 C.3   422  GLU422      0.0388
    104  CG        20.9970   89.0170   41.5790 C.3   422  GLU422      0.1160
    105  CD        20.7660   88.0670   42.7650 C.2   422  GLU422      0.3649
    106  OE1       21.6470   87.9150   43.6670 O.co2 422  GLU422     -0.2457
    107  OE2       19.6850   87.4330   42.7670 O.co2 422  GLU422     -0.2457
    108  N         27.5200   82.3630   41.9370 N.3   488  HIS488     -0.1241
    109  CA        27.5120   82.5890   43.3930 C.3   488  HIS488      0.1621
    110  C         28.9780   82.2370   43.7670 C.2   488  HIS488      0.2264
    111  O         29.4160   81.1340   43.4400 O.2   488  HIS488     -0.2867
    112  CB        26.6370   81.5350   44.1950 C.3   488  HIS488      0.0745
    113  CG        25.1300   81.5450   43.9820 C.ar  488  HIS488      0.0817
    114  ND1       24.2870   82.5130   44.5010 N.ar  488  HIS488     -0.2268
    115  CD2       24.3050   80.5890   43.4760 C.ar  488  HIS488      0.1154
    116  CE1       23.0250   82.2010   44.2450 C.ar  488  HIS488      0.1986
    117  NE2       23.0070   81.0430   43.6130 N.ar  488  HIS488     -0.2212
    118  N         23.6050   89.9900   56.4100 N.3   625  TRP625     -0.1241
    119  CA        22.4090   90.2850   55.6130 C.3   625  TRP625      0.1605
    120  C         21.2780   90.6880   56.5560 C.2   625  TRP625      0.2264
    121  O         20.8840   91.8750   56.5860 O.2   625  TRP625     -0.2867
    122  CB        22.0310   89.1420   54.6420 C.3   625  TRP625      0.0550
    123  CG        21.4300   89.5830   53.3760 C.ar  625  TRP625      0.0003
    124  CD1       22.0510   89.6670   52.1560 C.ar  625  TRP625      0.0946
    125  CD2       20.0810   89.9960   53.1670 C.ar  625  TRP625      0.0152
    126  NE1       21.1620   90.0850   51.2080 N.ar  625  TRP625     -0.2442
    127  CE2       19.9500   90.3120   51.8010 C.ar  625  TRP625      0.0810
    128  CE3       18.9650   90.1220   53.9990 C.ar  625  TRP625      0.0012
    129  CZ2       18.7450   90.7410   51.2460 C.ar  625  TRP625      0.0191
    130  CZ3       17.7690   90.5530   53.4480 C.ar  625  TRP625      0.0001
    131  CH2       17.6690   90.8590   52.0770 C.ar  625  TRP625      0.0015
    132  N         20.9510   85.4900   55.7930 N.3   631  ILE631     -0.1245
    133  CA        21.4260   85.0700   54.4770 C.3   631  ILE631      0.1561
    134  C         22.9500   85.3010   54.4200 C.2   631  ILE631      0.2260
    135  O         23.4710   86.0260   53.5700 O.2   631  ILE631     -0.2867
    136  CB        20.7050   85.8080   53.2960 C.3   631  ILE631      0.0252
    137  CG1       19.2650   86.1670   53.6320 C.3   631  ILE631      0.0019
    138  CG2       20.7450   84.9310   52.0490 C.3   631  ILE631      0.0019
    139  CD1       18.5460   86.8630   52.4860 C.3   631  ILE631      0.0001
    140  N         25.8270   86.0250   51.5200 N.3   634  TYR634     -0.1241
    141  CA        25.2460   85.9560   50.2010 C.3   634  TYR634      0.1605
    142  C         25.7870   87.0610   49.2890 C.2   634  TYR634      0.2264
    143  O         26.0520   86.8340   48.1170 O.2   634  TYR634     -0.2867
    144  CB        23.7230   86.0370   50.2770 C.3   634  TYR634      0.0534
    145  CG        23.1460   85.8900   48.9010 C.ar  634  TYR634     -0.0201
    146  CD1       22.8900   84.6220   48.3520 C.ar  634  TYR634     -0.0009
    147  CD2       22.9020   87.0300   48.1070 C.ar  634  TYR634     -0.0009
    148  CE1       22.3800   84.5100   47.0580 C.ar  634  TYR634      0.0417
    149  CE2       22.4290   86.9270   46.8020 C.ar  634  TYR634      0.0417
    150  CZ        22.1370   85.6770   46.2910 C.ar  634  TYR634      0.1957
    151  OH        21.6640   85.6110   44.9970 O.3   634  TYR634     -0.2866
@<TRIPOS>BOND
     1    64    65    1
     2    65    66    1
     3    65    68    1
     4    66    67    2
     5    74    76   ar
     6    74    71   ar
     7    68    69    1
     8    76    77   ar
     9    99   100    1
    10    97    98   ar
    11    97    95   ar
    12    98    96   ar
    13    71    69   ar
    14    71    73   ar
    15    69    70   ar
    16    78    79    1
    17    77    75   ar
    18    95    93   ar
    19    96    94   ar
    20   100   101    1
    21   100   103    1
    22    88    89    1
    23   101   102    2
    24    73    75   ar
    25    73    72   ar
    26    70    72   ar
    27    53    52    2
    28   104   103    1
    29   104   105    1
    30    79    82    1
    31    79    80    1
    32    93    94   ar
    33    93    92    1
    34   108   109    1
    35     1     2    1
    36    89    92    1
    37    89    90    1
    38    82    83    1
    39    80    81    2
    40    52    54   am
    41    52    51    1
    42   105   107   ar
    43   105   106   ar
    44     3     2    1
    45     3     4    2
    46     2     5    1
    47     5     6    1
    48    90    91    2
    49   109   110    1
    50   109   112    1
    51   111   110    2
    52   115   117   ar
    53   115   113   ar
    54    51    48    1
    55   117   116   ar
    56    83    85   ar
    57    83    84   ar
    58    48    47    1
    59    48    49    1
    60   113   112    1
    61   113   114   ar
    62    85    87   ar
    63   116   114   ar
    64    84    86   ar
    65    55    49   am
    66    55    56    1
    67   151   150    1
    68     9    10    2
    69     9     8    1
    70    49    50    2
    71    63    61   ar
    72    11     8    1
    73    11    12    1
    74    14    12   ar
    75    14    16   ar
    76    60    61    1
    77    60    59    1
    78     7     8    1
    79    87    86   ar
    80    61    62   ar
    81    12    13   ar
    82    56    59    1
    83    56    57    1
    84    16    17   ar
    85   150   149   ar
    86   150   148   ar
    87   149   147   ar
    88   148   146   ar
    89    57    58    2
    90    30    28   ar
    91    30    32   ar
    92    27    28   ar
    93    27    25   ar
    94    13    15   ar
    95    17    15   ar
    96    17    18    1
    97    28    26   ar
    98    32    31   ar
    99    25    24   ar
   100   147   145   ar
   101   143   142    2
   102   146   145   ar
   103    19    20    1
   104    26    24   ar
   105    26    29   ar
   106    31    29   ar
   107    24    23    1
   108   145   144    1
   109    20    21    1
   110    20    23    1
   111   142   141    1
   112    41    42   ar
   113    41    39   ar
   114    21    22    2
   115    44    42   ar
   116    44    46   ar
   117   141   144    1
   118   141   140    1
   119    42    40   ar
   120    39    38   ar
   121    46    45   ar
   122   126   127   ar
   123   126   124   ar
   124   129   127   ar
   125   129   131   ar
   126    38    40   ar
   127    38    37    1
   128    40    43   ar
   129   127   125   ar
   130   138   136    1
   131   131   130   ar
   132    45    43   ar
   133   124   123   ar
   134   139   137    1
   135    37    34    1
   136   125   123   ar
   137   125   128   ar
   138   136   137    1
   139   136   133    1
   140   123   122    1
   141   130   128   ar
   142    34    35    1
   143    34    33    1
   144   135   134    2
   145    35    36    2
   146   134   133    1
   147   133   132    1
   148   122   119    1
   149   119   118    1
   150   119   120    1
   151   120   121    2
