@<TRIPOS>MOLECULE
tmp/4xwhA04.pdb
 110 106 0 0 0
SMALL
GASTEIGER

@<TRIPOS>ATOM
      1  N         21.3980  101.4200   12.7590 N.3    42  TYR42      -0.1241
      2  CA        22.3750  102.4990   12.5850 C.3    42  TYR42       0.1605
      3  C         23.1090  102.3700   11.2690 C.2    42  TYR42       0.2264
      4  O         23.0940  101.3100   10.6190 O.2    42  TYR42      -0.2867
      5  CB        23.3640  102.5800   13.7530 C.3    42  TYR42       0.0534
      6  CG        24.2340  101.3580   13.9460 C.ar   42  TYR42      -0.0201
      7  CD1       25.3010  101.0880   13.1050 C.ar   42  TYR42      -0.0009
      8  CD2       23.9910  100.4730   14.9810 C.ar   42  TYR42      -0.0009
      9  CE1       26.0830   99.9530   13.2800 C.ar   42  TYR42       0.0417
     10  CE2       24.7720   99.3280   15.1610 C.ar   42  TYR42       0.0417
     11  CZ        25.8180   99.0830   14.3150 C.ar   42  TYR42       0.1957
     12  OH        26.5770   97.9660   14.4980 O.3    42  TYR42      -0.2866
     13  N         24.6440  103.1850   19.7600 N.3    64  ALA64      -0.1245
     14  CA        25.1810  101.8680   19.4380 C.3    64  ALA64       0.1562
     15  C         26.0830  101.9140   18.1900 C.2    64  ALA64       0.2260
     16  O         27.0920  101.2650   18.1640 O.2    64  ALA64      -0.2867
     17  CB        24.0470  100.8750   19.2560 C.3    64  ALA64       0.0290
     18  N         29.3670  103.3150   19.1650 N.3    67  HIS67      -0.1226
     19  CA        30.1730  102.3230   19.8840 C.3    67  HIS67       0.1752
     20  C         30.7910  101.3290   18.9110 C.2    67  HIS67       0.2595
     21  O         31.9540  100.9670   19.0240 O.2    67  HIS67      -0.2718
     22  CB        29.3200  101.5890   20.9230 C.3    67  HIS67       0.0759
     23  CG        30.1140  100.7450   21.8700 C.ar   67  HIS67       0.0818
     24  ND1       29.5670   99.6940   22.5740 N.ar   67  HIS67      -0.2268
     25  CD2       31.4180  100.7960   22.2280 C.ar   67  HIS67       0.1154
     26  CE1       30.4950   99.1400   23.3340 C.ar   67  HIS67       0.1986
     27  NE2       31.6260   99.7860   23.1390 N.ar   67  HIS67      -0.2212
     28  N         29.9800  100.8990   17.9580 N.am   68  ARG68      -0.1980
     29  CA        30.4230  100.0380   16.9080 C.3    68  ARG68       0.1597
     30  C         31.6600  100.6050   16.1800 C.2    68  ARG68       0.2287
     31  O         32.6210   99.8810   15.9150 O.2    68  ARG68      -0.2864
     32  CB        29.2940   99.8540   15.9210 C.3    68  ARG68       0.0334
     33  CG        29.6850   99.1370   14.6510 C.3    68  ARG68       0.0492
     34  CD        30.0960   97.7300   14.9640 C.3    68  ARG68       0.2205
     35  NE        30.7890   97.2030   13.8120 N.pl3  68  ARG68      -0.0865
     36  CZ        30.1700   96.7910   12.7330 C.cat  68  ARG68       0.5346
     37  NH1       28.8340   96.8350   12.6600 N.pl3  68  ARG68       0.1354
     38  NH2       30.8730   96.3400   11.7310 N.pl3  68  ARG68       0.1354
     39  N         34.7920  100.8880   18.6580 N.3    71  ARG71      -0.1245
     40  CA        35.3200   99.5870   18.9840 C.3    71  ARG71       0.1563
     41  C         36.0630   99.0220   17.7800 C.2    71  ARG71       0.2260
     42  O         37.2770   98.8300   17.8410 O.2    71  ARG71      -0.2867
     43  CB        34.1800   98.6800   19.4120 C.3    71  ARG71       0.0307
     44  CG        34.5660   97.5380   20.3030 C.3    71  ARG71       0.0489
     45  CD        33.8480   96.2560   19.9230 C.3    71  ARG71       0.2205
     46  NE        32.4500   96.4440   20.1620 N.pl3  71  ARG71      -0.0865
     47  CZ        31.4720   96.3650   19.2730 C.cat  71  ARG71       0.5346
     48  NH1       31.6530   96.0320   18.0060 N.pl3  71  ARG71       0.1354
     49  NH2       30.2820   96.6170   19.6910 N.pl3  71  ARG71       0.1354
     50  N         25.5070  103.3600   24.7520 N.3   136  LEU136     -0.1231
     51  CA        26.5580  102.7610   23.9320 C.3   136  LEU136      0.1693
     52  C         26.3390  101.2700   23.6990 C.2   136  LEU136      0.2592
     53  O         26.6860  100.7400   22.6500 O.2   136  LEU136     -0.2718
     54  CB        27.9300  102.9710   24.5760 C.3   136  LEU136      0.0284
     55  CG        28.4230  104.4170   24.5060 C.3   136  LEU136      0.0019
     56  CD1       29.5740  104.6260   25.4910 C.3   136  LEU136      0.0001
     57  CD2       28.8550  104.7720   23.0870 C.3   136  LEU136      0.0001
     58  N         25.7540  100.5990   24.6740 N.am  137  ASN137     -0.1974
     59  CA        25.4280   99.1690   24.5260 C.3   137  ASN137      0.1688
     60  C         24.0630   98.9270   23.9080 C.2   137  ASN137      0.2292
     61  O         23.5830   97.7940   23.8920 O.2   137  ASN137     -0.2864
     62  CB        25.5750   98.4270   25.8590 C.3   137  ASN137      0.1181
     63  CG        27.0370   98.2750   26.2830 C.2   137  ASN137      0.2629
     64  OD1       27.4460   98.6100   27.4000 O.2   137  ASN137     -0.2716
     65  ND2       27.8060   97.7570   25.4180 N.am  137  ASN137     -0.0877
     66  N         30.3620   92.4020   28.1700 N.3   432  SER432     -0.1217
     67  CA        30.7730   92.8680   26.8700 C.3   432  SER432      0.1889
     68  C         30.2230   91.9540   25.7490 C.2   432  SER432      0.2288
     69  O         29.6600   92.4290   24.7270 O.2   432  SER432     -0.2866
     70  CB        32.2750   92.9640   26.8810 C.3   432  SER432      0.2089
     71  OG        32.7500   93.3390   25.6270 O.3   432  SER432     -0.2183
     72  N         26.1570   92.1370   25.8390 N.3   435  ALA435     -0.1231
     73  CA        25.7100   93.4050   25.2240 C.3   435  ALA435      0.1694
     74  C         25.8050   93.3170   23.7060 C.2   435  ALA435      0.2591
     75  O         24.8670   93.6840   23.0120 O.2   435  ALA435     -0.2718
     76  CB        26.4890   94.5990   25.7470 C.3   435  ALA435      0.0304
     77  N         26.9260   92.7960   23.1950 N.am  436  GLU436     -0.1979
     78  CA        27.0930   92.5990   21.7510 C.3   436  GLU436      0.1602
     79  C         26.0260   91.7420   21.1170 C.2   436  GLU436      0.2287
     80  O         25.5850   92.0350   20.0110 O.2   436  GLU436     -0.2864
     81  CB        28.4440   92.0120   21.4030 C.3   436  GLU436      0.0415
     82  CG        29.4110   93.0200   20.8700 C.3   436  GLU436      0.1163
     83  CD        30.7720   92.4200   20.5660 C.2   436  GLU436      0.3649
     84  OE1       30.8810   91.7430   19.4770 O.co2 436  GLU436     -0.2457
     85  OE2       31.6870   92.7060   21.4140 O.co2 436  GLU436     -0.2457
     86  N         22.9230   93.2430   19.5100 N.3   439  TRP439     -0.1227
     87  CA        22.9010   93.7450   18.1510 C.3   439  TRP439      0.1737
     88  C         23.2200   92.7320   17.0480 C.2   439  TRP439      0.2595
     89  O         22.8070   92.9380   15.9280 O.2   439  TRP439     -0.2718
     90  CB        23.7330   95.0250   18.0370 C.3   439  TRP439      0.0564
     91  CG        22.8680   96.2190   18.4320 C.ar  439  TRP439      0.0003
     92  CD1       22.4440   96.5830   19.7110 C.ar  439  TRP439      0.0946
     93  CD2       22.2650   97.1440   17.5430 C.ar  439  TRP439      0.0152
     94  NE1       21.6420   97.7160   19.6430 N.ar  439  TRP439     -0.2442
     95  CE2       21.5040   98.0710   18.3370 C.ar  439  TRP439      0.0810
     96  CE3       22.3120   97.3020   16.1680 C.ar  439  TRP439      0.0012
     97  CZ2       20.8050   99.1200   17.7960 C.ar  439  TRP439      0.0191
     98  CZ3       21.6250   98.3150   15.6410 C.ar  439  TRP439      0.0001
     99  CH2       20.8710   99.2410   16.4480 C.ar  439  TRP439      0.0015
    100  N         23.8690   91.6200   17.3630 N.am  440  ARG440     -0.1980
    101  CA        24.2490   90.6260   16.3470 C.3   440  ARG440      0.1597
    102  C         23.0950   89.7350   15.8970 C.2   440  ARG440      0.2287
    103  O         22.2080   89.4330   16.6690 O.2   440  ARG440     -0.2864
    104  CB        25.3540   89.7280   16.8920 C.3   440  ARG440      0.0334
    105  CG        26.6640   90.4520   17.1930 C.3   440  ARG440      0.0492
    106  CD        27.6870   89.4510   17.7130 C.3   440  ARG440      0.2205
    107  NE        27.7630   88.3910   16.7090 N.pl3 440  ARG440     -0.0865
    108  CZ        28.5980   88.3580   15.6730 C.cat 440  ARG440      0.5346
    109  NH1       29.5390   89.2780   15.5250 N.pl3 440  ARG440      0.1354
    110  NH2       28.5320   87.3430   14.8150 N.pl3 440  ARG440      0.1354
@<TRIPOS>BOND
     1     4     3    2
     2     3     2    1
     3    38    36    1
     4     2     1    1
     5     2     5    1
     6    37    36    1
     7    36    35    2
     8     7     9   ar
     9     7     6   ar
    10     9    11   ar
    11     5     6    1
    12    35    34    1
    13     6     8   ar
    14    11    12    1
    15    11    10   ar
    16    33    34    1
    17    33    32    1
    18   110   108    1
    19     8    10   ar
    20   109   108    1
    21    98    96   ar
    22    98    99   ar
    23   108   107    2
    24   102   101    1
    25   102   103    2
    26    31    30    2
    27    32    29    1
    28    89    88    2
    29    96    93   ar
    30    30    29    1
    31   101   104    1
    32   101   100    1
    33    99    97   ar
    34   107   106    1
    35   104   105    1
    36    29    28    1
    37    88   100   am
    38    88    87    1
    39   105   106    1
    40    93    95   ar
    41    93    91   ar
    42    41    42    2
    43    41    40    1
    44    97    95   ar
    45    28    20   am
    46    48    47    1
    47    90    87    1
    48    90    91    1
    49    87    86    1
    50    16    15    2
    51    15    14    1
    52    95    94   ar
    53    91    92   ar
    54    39    40    1
    55    20    21    2
    56    20    19    1
    57    40    43    1
    58    18    19    1
    59    17    14    1
    60    47    49    1
    61    47    46    2
    62    43    44    1
    63    14    13    1
    64    84    83   ar
    65    94    92   ar
    66    19    22    1
    67    45    46    1
    68    45    44    1
    69    80    79    2
    70    83    82    1
    71    83    85   ar
    72    82    81    1
    73    22    23    1
    74    79    78    1
    75    81    78    1
    76    78    77    1
    77    23    25   ar
    78    23    24   ar
    79    25    27   ar
    80    24    26   ar
    81    53    52    2
    82    75    74    2
    83    57    55    1
    84    27    26   ar
    85    77    74   am
    86    52    51    1
    87    52    58   am
    88    74    73    1
    89    61    60    2
    90    60    59    1
    91    51    54    1
    92    51    50    1
    93    55    54    1
    94    55    56    1
    95    59    58    1
    96    59    62    1
    97    69    68    2
    98    73    76    1
    99    73    72    1
   100    65    63   am
   101    71    70    1
   102    68    67    1
   103    62    63    1
   104    63    64    2
   105    67    70    1
   106    67    66    1
