@<TRIPOS>MOLECULE
tmp/4xwlA09.pdb
 104 100 0 0 0
SMALL
GASTEIGER

@<TRIPOS>ATOM
      1  N         11.1950   12.1530  -19.8860 N.3    85  GLU85      -0.1245
      2  CA        10.8430   11.3380  -18.7380 C.3    85  GLU85       0.1567
      3  C         11.8250   11.5450  -17.5810 C.2    85  GLU85       0.2260
      4  O         11.4390   11.5030  -16.4140 O.2    85  GLU85      -0.2867
      5  CB        10.7910    9.8670  -19.1400 C.3    85  GLU85       0.0388
      6  CG        10.2890    8.9740  -18.0380 C.3    85  GLU85       0.1160
      7  CD        10.1860    7.5320  -18.4780 C.2    85  GLU85       0.3649
      8  OE1       11.0410    6.7430  -18.0230 O.co2  85  GLU85      -0.2457
      9  OE2        9.2590    7.1960  -19.2670 O.co2  85  GLU85      -0.2457
     10  N          9.0500   15.0580  -16.2270 N.3    89  ILE89      -0.1231
     11  CA         7.9890   14.2890  -15.5720 C.3    89  ILE89       0.1678
     12  C          8.4780   13.9560  -14.1600 C.2    89  ILE89       0.2434
     13  O          9.4420   13.2010  -13.9970 O.2    89  ILE89      -0.2733
     14  CB         7.6310   12.9920  -16.3420 C.3    89  ILE89       0.0265
     15  CG1        7.2560   13.3090  -17.7950 C.3    89  ILE89       0.0019
     16  CG2        6.4920   12.2480  -15.6390 C.3    89  ILE89       0.0020
     17  CD1        6.9900   12.0470  -18.6390 C.3    89  ILE89       0.0001
     18  N          7.8310   14.5310  -13.1330 N.am   90  PRO90      -0.2718
     19  CA         8.3780   14.3830  -11.7710 C.3    90  PRO90       0.1535
     20  C          8.5630   12.9200  -11.3660 C.2    90  PRO90       0.2599
     21  O          7.6580   12.0970  -11.5600 O.2    90  PRO90      -0.2715
     22  CB         7.3330   15.0800  -10.8900 C.3    90  PRO90       0.0310
     23  CG         6.6920   16.1140  -11.8270 C.3    90  PRO90       0.0237
     24  CD         6.6680   15.4400  -13.1860 C.3    90  PRO90       0.0939
     25  N          9.7410   12.6070  -10.8330 N.am   91  GLY91      -0.1955
     26  CA        10.0640   11.2480  -10.4140 C.3    91  GLY91       0.1869
     27  C          9.8700   11.0200   -8.9190 C.2    91  GLY91       0.2309
     28  O          9.2200   11.8140   -8.2380 O.2    91  GLY91      -0.2863
     29  N          7.8270   13.5690   -6.3730 N.3    95  GLN95      -0.1245
     30  CA         6.4650   13.3090   -5.9100 C.3    95  GLN95       0.1566
     31  C          6.4470   11.9750   -5.1430 C.2    95  GLN95       0.2260
     32  O          5.9920   10.9450   -5.6700 O.2    95  GLN95      -0.2867
     33  CB         5.4610   13.2890   -7.0900 C.3    95  GLN95       0.0367
     34  CG         5.8570   12.4060   -8.3060 C.3    95  GLN95       0.0905
     35  CD         4.6960   12.1860   -9.2980 C.2    95  GLN95       0.2608
     36  OE1        3.5240   12.1580   -8.9130 O.2    95  GLN95      -0.2717
     37  NE2        5.0250   12.0600  -10.5790 N.am   95  GLN95      -0.0878
     38  N         -1.9420    1.4220  -13.5080 N.3   144  TYR144     -0.1241
     39  CA        -0.4900    1.5800  -13.5530 C.3   144  TYR144      0.1605
     40  C          0.2280    1.0990  -12.2960 C.2   144  TYR144      0.2264
     41  O          1.4530    1.1410  -12.2410 O.2   144  TYR144     -0.2867
     42  CB        -0.1370    3.0420  -13.8550 C.3   144  TYR144      0.0534
     43  CG        -0.6540    3.4490  -15.2210 C.ar  144  TYR144     -0.0201
     44  CD1       -0.0810    2.9310  -16.3780 C.ar  144  TYR144     -0.0009
     45  CD2       -1.7360    4.3150  -15.3530 C.ar  144  TYR144     -0.0009
     46  CE1       -0.5600    3.2730  -17.6320 C.ar  144  TYR144      0.0417
     47  CE2       -2.2220    4.6690  -16.6040 C.ar  144  TYR144      0.0417
     48  CZ        -1.6280    4.1500  -17.7360 C.ar  144  TYR144      0.1957
     49  OH        -2.1120    4.4760  -18.9750 O.3   144  TYR144     -0.2866
     50  N          0.3940    2.2990   -9.2980 N.3   146  THR146     -0.1218
     51  CA         1.0110    3.3570   -8.4970 C.3   146  THR146      0.1862
     52  C          0.0280    4.5140   -8.3860 C.2   146  THR146      0.2287
     53  O         -0.8770    4.6280   -9.2130 O.2   146  THR146     -0.2866
     54  CB         2.3350    3.8690   -9.1210 C.3   146  THR146      0.1770
     55  OG1        2.7960    5.0140   -8.3950 O.3   146  THR146     -0.2211
     56  CG2        2.1330    4.2760  -10.5810 C.3   146  THR146      0.0375
     57  N          1.3290    7.6280   -8.3850 N.3   148  GLN148     -0.1231
     58  CA         2.0560    8.7580   -8.9550 C.3   148  GLN148      0.1698
     59  C          1.4950    9.1650  -10.3130 C.2   148  GLN148      0.2592
     60  O          0.8510    8.3670  -10.9910 O.2   148  GLN148     -0.2718
     61  CB         3.5390    8.4310   -9.0770 C.3   148  GLN148      0.0381
     62  CG         4.2410    8.3560   -7.7200 C.3   148  GLN148      0.0905
     63  CD         5.6740    7.9540   -7.8780 C.2   148  GLN148      0.2608
     64  OE1        5.9780    7.0260   -8.6250 O.2   148  GLN148     -0.2717
     65  NE2        6.5710    8.6560   -7.1950 N.am  148  GLN148     -0.0878
     66  N          1.7440   10.4170  -10.6890 N.am  149  VAL149     -0.1966
     67  CA         1.1640   11.0100  -11.8930 C.3   149  VAL149      0.1727
     68  C          2.1870   11.0660  -13.0240 C.2   149  VAL149      0.2616
     69  O          3.3090   11.5180  -12.8220 O.2   149  VAL149     -0.2715
     70  CB         0.6350   12.4320  -11.5930 C.3   149  VAL149      0.0290
     71  CG1        0.2790   13.1770  -12.8880 C.3   149  VAL149      0.0023
     72  CG2       -0.5800   12.3500  -10.6540 C.3   149  VAL149      0.0023
     73  N          1.8050   10.6210  -14.2150 N.am  150  TYR150     -0.1974
     74  CA         2.7230   10.6630  -15.3540 C.3   150  TYR150      0.1639
     75  C          2.2920   11.7810  -16.2930 C.2   150  TYR150      0.2290
     76  O          1.5710   11.5520  -17.2690 O.2   150  TYR150     -0.2864
     77  CB         2.7520    9.3030  -16.0700 C.3   150  TYR150      0.0560
     78  CG         3.8890    9.1100  -17.0650 C.ar  150  TYR150     -0.0198
     79  CD1        5.1360    8.6570  -16.6480 C.ar  150  TYR150     -0.0009
     80  CD2        3.6950    9.3430  -18.4230 C.ar  150  TYR150     -0.0009
     81  CE1        6.1800    8.4620  -17.5660 C.ar  150  TYR150      0.0417
     82  CE2        4.7230    9.1530  -19.3470 C.ar  150  TYR150      0.0417
     83  CZ         5.9580    8.7070  -18.9110 C.ar  150  TYR150      0.1957
     84  OH         6.9730    8.5240  -19.8240 O.3   150  TYR150     -0.2866
     85  N          0.3320    6.5640  -21.9560 N.3   259  LYS259     -0.1245
     86  CA         0.2690    6.7500  -20.5080 C.3   259  LYS259      0.1561
     87  C          0.1210    8.2380  -20.1470 C.2   259  LYS259      0.2260
     88  O         -0.7100    8.6070  -19.3160 O.2   259  LYS259     -0.2867
     89  CB         1.5170    6.1470  -19.8350 C.3   259  LYS259      0.0271
     90  CG         1.5150    6.2680  -18.3220 C.3   259  LYS259      0.0035
     91  CD         2.5200    5.3020  -17.6860 C.3   259  LYS259      0.0206
     92  CE         3.9550    5.6460  -18.0610 C.3   259  LYS259      0.1093
     93  NZ         4.9060    4.6500  -17.4530 N.3   259  LYS259     -0.1314
     94  N         -3.1900   10.0860  -18.1840 N.3   263  PHE263     -0.1241
     95  CA        -3.2330   11.0560  -17.0930 C.3   263  PHE263      0.1605
     96  C         -3.7360   12.4210  -17.5470 C.2   263  PHE263      0.2264
     97  O         -4.2970   13.1770  -16.7540 O.2   263  PHE263     -0.2867
     98  CB        -1.8520   11.1880  -16.4550 C.3   263  PHE263      0.0534
     99  CG        -1.5160   10.0350  -15.5600 C.ar  263  PHE263     -0.0203
    100  CD1       -1.8910   10.0590  -14.2230 C.ar  263  PHE263     -0.0042
    101  CD2       -0.8790    8.9110  -16.0620 C.ar  263  PHE263     -0.0042
    102  CE1       -1.6120    8.9830  -13.3830 C.ar  263  PHE263     -0.0003
    103  CE2       -0.5910    7.8260  -15.2290 C.ar  263  PHE263     -0.0003
    104  CZ        -0.9640    7.8700  -13.8830 C.ar  263  PHE263     -0.0000
@<TRIPOS>BOND
     1    85    86    1
     2    86    87    1
     3    86    89    1
     4    87    88    2
     5     1     2    1
     6    89    90    1
     7    84    83    1
     8    82    83   ar
     9    82    80   ar
    10     9     7   ar
    11     5     2    1
    12     5     6    1
    13    49    48    1
    14    83    81   ar
    15     2     3    1
    16    17    15    1
    17     7     6    1
    18     7     8   ar
    19    80    78   ar
    20    90    91    1
    21    94    95    1
    22    92    91    1
    23    92    93    1
    24    15    14    1
    25    48    46   ar
    26    48    47   ar
    27    46    44   ar
    28     3     4    2
    29    81    79   ar
    30    96    95    1
    31    96    97    2
    32    76    75    2
    33    95    98    1
    34    78    79   ar
    35    78    77    1
    36    47    45   ar
    37    98    99    1
    38    44    43   ar
    39    14    16    1
    40    14    11    1
    41    75    74    1
    42    10    11    1
    43    77    74    1
    44   101    99   ar
    45   101   103   ar
    46    11    12    1
    47    99   100   ar
    48    74    73    1
    49    45    43   ar
    50   103   104   ar
    51    43    42    1
    52   100   102   ar
    53    73    68   am
    54    12    13    2
    55    12    18   am
    56   104   102   ar
    57    42    39    1
    58    39    38    1
    59    39    40    1
    60    24    18    1
    61    24    23    1
    62    18    19    1
    63    68    69    2
    64    68    67    1
    65    71    70    1
    66    40    41    2
    67    67    70    1
    68    67    66    1
    69    23    22    1
    70    19    20    1
    71    19    22    1
    72    70    72    1
    73    21    20    2
    74    20    25   am
    75    60    59    2
    76    25    26    1
    77    66    59   am
    78    56    54    1
    79    37    35   am
    80    26    27    1
    81    59    58    1
    82    50    51    1
    83    35    36    2
    84    35    34    1
    85    53    52    2
    86    54    51    1
    87    54    55    1
    88    61    58    1
    89    61    62    1
    90    58    57    1
    91    27    28    2
    92    64    63    2
    93    51    52    1
    94    34    33    1
    95    63    62    1
    96    63    65   am
    97    33    30    1
    98    29    30    1
    99    30    31    1
   100    32    31    2
