@<TRIPOS>MOLECULE
tmp/4xwlA10.pdb
 98 92 0 0 0
SMALL
GASTEIGER

@<TRIPOS>ATOM
      1  N         -8.5610   21.0440   -0.9750 N.3   110  THR110     -0.1218
      2  CA        -9.3150   22.0050   -0.1790 C.3   110  THR110      0.1862
      3  C         -9.5350   23.2710   -1.0000 C.2   110  THR110      0.2287
      4  O         -8.5910   23.8040   -1.5810 O.2   110  THR110     -0.2866
      5  CB        -8.5850   22.3570    1.1200 C.3   110  THR110      0.1770
      6  OG1       -8.3410   21.1590    1.8650 O.3   110  THR110     -0.2211
      7  CG2       -9.4210   23.3290    1.9630 C.3   110  THR110      0.0375
      8  N         -7.6340   28.9840    2.7690 N.3   125  LEU125     -0.1245
      9  CA        -8.2660   27.6750    2.5970 C.3   125  LEU125      0.1561
     10  C         -9.6320   27.6700    3.2660 C.2   125  LEU125      0.2260
     11  O         -9.7860   28.1390    4.3870 O.2   125  LEU125     -0.2867
     12  CB        -7.4040   26.5480    3.1780 C.3   125  LEU125      0.0270
     13  CG        -6.0960   26.2820    2.4380 C.3   125  LEU125      0.0019
     14  CD1       -5.3140   25.1620    3.1150 C.3   125  LEU125      0.0001
     15  CD2       -6.3730   25.9610    0.9620 C.3   125  LEU125      0.0001
     16  N        -12.1490   25.0390    4.5100 N.3   127  PHE127     -0.1241
     17  CA       -12.3110   23.6080    4.7390 C.3   127  PHE127      0.1605
     18  C        -13.7780   23.1840    4.6770 C.2   127  PHE127      0.2264
     19  O        -14.0830   22.0120    4.4750 O.2   127  PHE127     -0.2867
     20  CB       -11.6810   23.2270    6.0840 C.3   127  PHE127      0.0534
     21  CG       -10.2050   23.5050    6.1400 C.ar  127  PHE127     -0.0203
     22  CD1       -9.3040   22.6430    5.5400 C.ar  127  PHE127     -0.0042
     23  CD2       -9.7240   24.6500    6.7540 C.ar  127  PHE127     -0.0042
     24  CE1       -7.9450   22.9010    5.5670 C.ar  127  PHE127     -0.0003
     25  CE2       -8.3640   24.9140    6.7850 C.ar  127  PHE127     -0.0003
     26  CZ        -7.4760   24.0360    6.1840 C.ar  127  PHE127     -0.0000
     27  N         -1.1700   30.7680   -0.2490 N.3   211  THR211     -0.1218
     28  CA        -2.1910   30.0160    0.4680 C.3   211  THR211      0.1862
     29  C         -2.2530   30.4370    1.9280 C.2   211  THR211      0.2287
     30  O         -1.2250   30.5310    2.5990 O.2   211  THR211     -0.2866
     31  CB        -1.9240   28.5020    0.3730 C.3   211  THR211      0.1770
     32  OG1       -1.8760   28.1270   -1.0110 O.3   211  THR211     -0.2211
     33  CG2       -3.0220   27.7170    1.0690 C.3   211  THR211      0.0375
     34  N         -3.2920   29.5740    5.6290 N.3   213  ASP213     -0.1239
     35  CA        -3.5430   28.4570    6.5310 C.3   213  ASP213      0.1674
     36  C         -2.9050   28.7680    7.8840 C.2   213  ASP213      0.2266
     37  O         -2.0950   29.6910    7.9910 O.2   213  ASP213     -0.2867
     38  CB        -2.9800   27.1560    5.9550 C.3   213  ASP213      0.1410
     39  CG        -3.6480   25.9180    6.5370 C.2   213  ASP213      0.3668
     40  OD1       -4.4960   26.0570    7.4430 O.co2 213  ASP213     -0.2456
     41  OD2       -3.3130   24.8030    6.0940 O.co2 213  ASP213     -0.2456
     42  N         -1.0300   26.6520    9.7460 N.3   215  GLN215     -0.1245
     43  CA         0.3100   26.0640    9.8040 C.3   215  GLN215      0.1566
     44  C          0.7330   25.6600    8.3950 C.2   215  GLN215      0.2260
     45  O         -0.1140   25.5000    7.5190 O.2   215  GLN215     -0.2867
     46  CB         0.3490   24.8540   10.7430 C.3   215  GLN215      0.0367
     47  CG        -0.7060   23.8360   10.3570 C.3   215  GLN215      0.0905
     48  CD        -0.7400   22.6870   11.3140 C.2   215  GLN215      0.2608
     49  OE1       -0.8640   22.8730   12.5330 O.2   215  GLN215     -0.2717
     50  NE2       -0.6360   21.4820   10.7690 N.am  215  GLN215     -0.0878
     51  N          3.5060   23.0210    6.1130 N.3   217  ALA217     -0.1245
     52  CA         4.4620   21.9140    6.1190 C.3   217  ALA217      0.1562
     53  C          5.1420   21.8360    4.7660 C.2   217  ALA217      0.2260
     54  O          4.5680   22.2620    3.7660 O.2   217  ALA217     -0.2867
     55  CB         3.7650   20.5930    6.4510 C.3   217  ALA217      0.0290
     56  N          6.2930   20.6620    1.2440 N.3   219  GLN219     -0.1245
     57  CA         5.3780   20.0550    0.2930 C.3   219  GLN219      0.1566
     58  C          5.8360   20.2740   -1.1370 C.2   219  GLN219      0.2260
     59  O          6.6520   21.1570   -1.4170 O.2   219  GLN219     -0.2867
     60  CB         3.9760   20.6370    0.4830 C.3   219  GLN219      0.0367
     61  CG         3.9460   22.1590    0.3940 C.3   219  GLN219      0.0905
     62  CD         2.5930   22.7330    0.7650 C.2   219  GLN219      0.2608
     63  OE1        1.7670   22.9930   -0.1000 O.2   219  GLN219     -0.2717
     64  NE2        2.3590   22.9230    2.0570 N.am  219  GLN219     -0.0878
     65  N          5.5490   14.7940    5.6320 N.3   305  SER305     -0.1217
     66  CA         4.5620   13.7810    6.0090 C.3   305  SER305      0.1889
     67  C          3.7510   13.3730    4.7840 C.2   305  SER305      0.2288
     68  O          3.9350   13.9330    3.6930 O.2   305  SER305     -0.2866
     69  CB         3.6510   14.2800    7.1430 C.3   305  SER305      0.2089
     70  OG         2.8700   15.3900    6.7390 O.3   305  SER305     -0.2183
     71  N          0.6100   12.9670    2.5410 N.3   307  TRP307     -0.1241
     72  CA        -0.7120   13.4530    2.1440 C.3   307  TRP307      0.1605
     73  C         -0.5880   13.9950    0.7360 C.2   307  TRP307      0.2264
     74  O          0.5050   14.3570    0.3250 O.2   307  TRP307     -0.2867
     75  CB        -1.2190   14.5420    3.1050 C.3   307  TRP307      0.0550
     76  CG        -0.2090   15.6370    3.3550 C.ar  307  TRP307      0.0003
     77  CD1        0.7930   15.6360    4.2870 C.ar  307  TRP307      0.0946
     78  CD2       -0.1180   16.8970    2.6690 C.ar  307  TRP307      0.0152
     79  NE1        1.5030   16.8120    4.2200 N.ar  307  TRP307     -0.2442
     80  CE2        0.9620   17.6040    3.2370 C.ar  307  TRP307      0.0810
     81  CE3       -0.8450   17.4920    1.6310 C.ar  307  TRP307      0.0012
     82  CZ2        1.3390   18.8740    2.7980 C.ar  307  TRP307      0.0191
     83  CZ3       -0.4710   18.7620    1.1950 C.ar  307  TRP307      0.0001
     84  CH2        0.6110   19.4370    1.7780 C.ar  307  TRP307      0.0015
     85  N         -2.9300   15.8880   -2.9030 N.3   309  TRP309     -0.1241
     86  CA        -4.1310   16.5150   -3.4330 C.3   309  TRP309      0.1605
     87  C         -4.0300   16.6520   -4.9460 C.2   309  TRP309      0.2264
     88  O         -2.9310   16.5890   -5.5110 O.2   309  TRP309     -0.2867
     89  CB        -4.3470   17.8840   -2.7800 C.3   309  TRP309      0.0550
     90  CG        -3.1680   18.7950   -2.9620 C.ar  309  TRP309      0.0003
     91  CD1       -2.1110   18.9580   -2.1100 C.ar  309  TRP309      0.0946
     92  CD2       -2.9140   19.6410   -4.0870 C.ar  309  TRP309      0.0152
     93  NE1       -1.2150   19.8680   -2.6340 N.ar  309  TRP309     -0.2442
     94  CE2       -1.6880   20.3020   -3.8460 C.ar  309  TRP309      0.0810
     95  CE3       -3.6090   19.9120   -5.2710 C.ar  309  TRP309      0.0012
     96  CZ2       -1.1380   21.2070   -4.7510 C.ar  309  TRP309      0.0191
     97  CZ3       -3.0600   20.8130   -6.1730 C.ar  309  TRP309      0.0001
     98  CH2       -1.8370   21.4490   -5.9060 C.ar  309  TRP309      0.0015
@<TRIPOS>BOND
     1    97    98   ar
     2    97    95   ar
     3    98    96   ar
     4    88    87    2
     5    95    92   ar
     6    87    86    1
     7    96    94   ar
     8    92    94   ar
     9    92    90   ar
    10    94    93   ar
    11    86    85    1
    12    86    89    1
    13    90    89    1
    14    90    91   ar
    15    93    91   ar
    16     4     3    2
    17    59    58    2
    18    58    57    1
    19    32    31    1
    20     3     2    1
    21     1     2    1
    22    27    28    1
    23     2     5    1
    24    63    62    2
    25    57    60    1
    26    57    56    1
    27    74    73    2
    28    31    28    1
    29    31    33    1
    30    61    60    1
    31    61    62    1
    32    28    29    1
    33    73    72    1
    34    62    64   am
    35    15    13    1
    36     5     6    1
    37     5     7    1
    38    83    81   ar
    39    83    84   ar
    40    81    78   ar
    41    84    82   ar
    42    29    30    2
    43    72    71    1
    44    72    75    1
    45    13    14    1
    46    13    12    1
    47     9     8    1
    48     9    12    1
    49     9    10    1
    50    78    80   ar
    51    78    76   ar
    52    82    80   ar
    53    75    76    1
    54    80    79   ar
    55    10    11    2
    56    76    77   ar
    57    68    67    2
    58    54    53    2
    59    79    77   ar
    60    19    18    2
    61    16    17    1
    62    18    17    1
    63    17    20    1
    64    53    52    1
    65    67    66    1
    66    22    24   ar
    67    22    21   ar
    68    24    26   ar
    69    34    35    1
    70    65    66    1
    71    38    35    1
    72    38    39    1
    73    66    69    1
    74    20    21    1
    75    41    39   ar
    76    51    52    1
    77    52    55    1
    78    21    23   ar
    79    26    25   ar
    80    35    36    1
    81    39    40   ar
    82    70    69    1
    83    23    25   ar
    84    45    44    2
    85    36    37    2
    86    44    43    1
    87    42    43    1
    88    43    46    1
    89    47    46    1
    90    47    48    1
    91    50    48   am
    92    48    49    2
