@<TRIPOS>MOLECULE
tmp/4xwlA01.pdb
 129 129 0 0 0
SMALL
GASTEIGER

@<TRIPOS>ATOM
      1  N          8.7890   36.1880  -21.0540 N.3    44  GLU44      -0.1231
      2  CA         7.5810   35.8110  -21.7900 C.3    44  GLU44       0.1699
      3  C          6.7690   34.9420  -20.8390 C.2    44  GLU44       0.2592
      4  O          6.5770   35.3200  -19.6870 O.2    44  GLU44      -0.2718
      5  CB         7.9360   35.0800  -23.0980 C.3    44  GLU44       0.0402
      6  CG         8.9400   35.8630  -23.9430 C.3    44  GLU44       0.1161
      7  CD         9.2100   35.2960  -25.3220 C.2    44  GLU44       0.3649
      8  OE1        9.4170   36.1250  -26.2330 O.co2  44  GLU44      -0.2457
      9  OE2        9.2580   34.0510  -25.5040 O.co2  44  GLU44      -0.2457
     10  N          6.3190   33.7690  -21.2740 N.am   45  ALA45      -0.1980
     11  CA         5.6910   32.8620  -20.3130 C.3    45  ALA45       0.1597
     12  C          6.7610   32.3970  -19.3020 C.2    45  ALA45       0.2287
     13  O          6.5710   32.5800  -18.0940 O.2    45  ALA45      -0.2864
     14  CB         4.9990   31.6830  -21.0120 C.3    45  ALA45       0.0319
     15  N          5.0790   22.1430  -16.0450 N.3   154  TRP154     -0.1241
     16  CA         5.1420   23.0600  -17.1870 C.3   154  TRP154      0.1605
     17  C          6.4130   23.9080  -17.2500 C.2   154  TRP154      0.2264
     18  O          6.7820   24.3600  -18.3320 O.2   154  TRP154     -0.2867
     19  CB         3.9230   23.9940  -17.2070 C.3   154  TRP154      0.0550
     20  CG         4.0510   25.1800  -16.2810 C.ar  154  TRP154      0.0003
     21  CD1        3.8200   25.1990  -14.9360 C.ar  154  TRP154      0.0946
     22  CD2        4.4250   26.5230  -16.6430 C.ar  154  TRP154      0.0152
     23  NE1        4.0360   26.4680  -14.4350 N.ar  154  TRP154     -0.2442
     24  CE2        4.4040   27.2980  -15.4650 C.ar  154  TRP154      0.0810
     25  CE3        4.7860   27.1390  -17.8470 C.ar  154  TRP154      0.0012
     26  CZ2        4.7350   28.6570  -15.4510 C.ar  154  TRP154      0.0191
     27  CZ3        5.1070   28.4890  -17.8340 C.ar  154  TRP154      0.0001
     28  CH2        5.0680   29.2330  -16.6450 C.ar  154  TRP154      0.0015
     29  N          3.7460   31.8930  -11.9570 N.3   178  PHE178     -0.1241
     30  CA         2.3500   32.3320  -11.8560 C.3   178  PHE178      0.1605
     31  C          1.5890   31.5800  -10.7770 C.2   178  PHE178      0.2264
     32  O          1.5970   30.3500  -10.7530 O.2   178  PHE178     -0.2867
     33  CB         1.6250   32.1560  -13.1960 C.3   178  PHE178      0.0534
     34  CG         2.2670   32.8900  -14.3270 C.ar  178  PHE178     -0.0203
     35  CD1        2.0180   34.2380  -14.5280 C.ar  178  PHE178     -0.0042
     36  CD2        3.1320   32.2330  -15.1940 C.ar  178  PHE178     -0.0042
     37  CE1        2.6140   34.9230  -15.5860 C.ar  178  PHE178     -0.0003
     38  CE2        3.7370   32.9100  -16.2400 C.ar  178  PHE178     -0.0003
     39  CZ         3.4770   34.2540  -16.4420 C.ar  178  PHE178     -0.0000
     40  N          3.6290   38.2900  -16.1120 N.3   186  CYS186     -0.1235
     41  CA         4.9610   37.6970  -15.9960 C.3   186  CYS186      0.1677
     42  C          5.9120   38.5850  -15.1850 C.2   186  CYS186      0.2270
     43  O          6.8880   38.1080  -14.6160 O.2   186  CYS186     -0.2867
     44  CB         5.5460   37.4430  -17.3980 C.3   186  CYS186      0.0956
     45  SG         5.6060   38.9480  -18.4240 S.3   186  CYS186     -0.0801
     46  N          2.3900   21.4940  -11.8490 N.3   223  THR223     -0.1203
     47  CA         1.2840   22.0310  -12.6200 C.3   223  THR223      0.1994
     48  C          1.4880   21.6860  -14.0940 C.2   223  THR223      0.2618
     49  O          2.4980   22.0540  -14.6940 O.2   223  THR223     -0.2717
     50  CB         1.1690   23.5640  -12.4430 C.3   223  THR223      0.1784
     51  OG1        0.9470   23.8700  -11.0660 O.3   223  THR223     -0.2211
     52  CG2        0.0130   24.1360  -13.2920 C.3   223  THR223      0.0376
     53  N          0.5180   20.9790  -14.6640 N.am  224  ASN224     -0.1960
     54  CA         0.5660   20.5240  -16.0540 C.3   224  ASN224      0.1819
     55  C          0.1330   21.6160  -17.0300 C.2   224  ASN224      0.2621
     56  O         -0.7310   22.4230  -16.6950 O.2   224  ASN224     -0.2715
     57  CB        -0.3500   19.3020  -16.2040 C.3   224  ASN224      0.1195
     58  CG        -0.1970   18.6000  -17.5390 C.2   224  ASN224      0.2630
     59  OD1        0.6810   17.7540  -17.7110 O.2   224  ASN224     -0.2716
     60  ND2       -1.0830   18.9060  -18.4700 N.am  224  ASN224     -0.0877
     61  N          0.7270   21.6510  -18.2270 N.am  225  ALA225     -0.1977
     62  CA         0.1790   22.4470  -19.3370 C.3   225  ALA225      0.1597
     63  C         -0.3790   21.4730  -20.3570 C.2   225  ALA225      0.2287
     64  O          0.3800   20.8600  -21.1140 O.2   225  ALA225     -0.2864
     65  CB         1.2620   23.3630  -19.9780 C.3   225  ALA225      0.0319
     66  N         -6.8440   24.6970  -18.5750 N.3   295  TRP295     -0.1227
     67  CA        -5.5750   25.4260  -18.5780 C.3   295  TRP295      0.1737
     68  C         -4.4880   24.6740  -17.8110 C.2   295  TRP295      0.2595
     69  O         -3.3030   24.8700  -18.0590 O.2   295  TRP295     -0.2718
     70  CB        -5.7440   26.8330  -18.0030 C.3   295  TRP295      0.0564
     71  CG        -4.5580   27.6870  -18.3080 C.ar  295  TRP295      0.0003
     72  CD1       -3.5300   27.9890  -17.4640 C.ar  295  TRP295      0.0946
     73  CD2       -4.2570   28.3330  -19.5550 C.ar  295  TRP295      0.0152
     74  NE1       -2.6150   28.7950  -18.1010 N.ar  295  TRP295     -0.2442
     75  CE2       -3.0350   29.0180  -19.3870 C.ar  295  TRP295      0.0810
     76  CE3       -4.9040   28.4050  -20.7950 C.ar  295  TRP295      0.0012
     77  CZ2       -2.4430   29.7600  -20.4150 C.ar  295  TRP295      0.0191
     78  CZ3       -4.3140   29.1470  -21.8160 C.ar  295  TRP295      0.0001
     79  CH2       -3.0950   29.8120  -21.6190 C.ar  295  TRP295      0.0015
     80  N         -4.8990   23.8090  -16.8880 N.am  296  TYR296     -0.1976
     81  CA        -3.9630   22.9650  -16.1580 C.3   296  TYR296      0.1639
     82  C         -4.6840   21.9240  -15.3320 C.2   296  TYR296      0.2290
     83  O         -5.8530   22.1030  -14.9550 O.2   296  TYR296     -0.2864
     84  CB        -3.0660   23.8160  -15.2260 C.3   296  TYR296      0.0560
     85  CG        -3.8450   24.6320  -14.2070 C.ar  296  TYR296     -0.0198
     86  CD1       -4.3090   24.0530  -13.0270 C.ar  296  TYR296     -0.0009
     87  CD2       -4.1430   25.9710  -14.4380 C.ar  296  TYR296     -0.0009
     88  CE1       -5.0340   24.7840  -12.1090 C.ar  296  TYR296      0.0417
     89  CE2       -4.8650   26.7140  -13.5200 C.ar  296  TYR296      0.0417
     90  CZ        -5.3070   26.1110  -12.3570 C.ar  296  TYR296      0.1957
     91  OH        -6.0240   26.8320  -11.4360 O.3   296  TYR296     -0.2866
     92  N         -5.4790   25.9270  -26.3330 N.3   320  TYR320     -0.1241
     93  CA        -4.9300   24.7060  -25.7420 C.3   320  TYR320      0.1605
     94  C         -5.5110   23.4160  -26.3150 C.2   320  TYR320      0.2264
     95  O         -4.9940   22.3300  -26.0360 O.2   320  TYR320     -0.2867
     96  CB        -5.1570   24.7010  -24.2270 C.3   320  TYR320      0.0534
     97  CG        -4.0120   25.2850  -23.4180 C.ar  320  TYR320     -0.0201
     98  CD1       -3.1580   26.2440  -23.9620 C.ar  320  TYR320     -0.0009
     99  CD2       -3.7690   24.8490  -22.1150 C.ar  320  TYR320     -0.0009
    100  CE1       -2.0890   26.7760  -23.2150 C.ar  320  TYR320      0.0417
    101  CE2       -2.7100   25.3760  -21.3570 C.ar  320  TYR320      0.0417
    102  CZ        -1.8780   26.3370  -21.9130 C.ar  320  TYR320      0.1957
    103  OH        -0.8270   26.8370  -21.1660 O.3   320  TYR320     -0.2866
    104  N         -8.1180   32.8470  -18.2050 N.3   399  VAL399     -0.1231
    105  CA        -6.9810   32.6490  -17.2960 C.3   399  VAL399      0.1692
    106  C         -6.1330   33.8970  -17.0060 C.2   399  VAL399      0.2592
    107  O         -5.8370   34.1670  -15.8400 O.2   399  VAL399     -0.2718
    108  CB        -6.0480   31.5400  -17.8180 C.3   399  VAL399      0.0266
    109  CG1       -4.9370   31.2610  -16.8090 C.3   399  VAL399      0.0020
    110  CG2       -6.8540   30.2610  -18.1070 C.3   399  VAL399      0.0020
    111  N         -5.7270   34.6580  -18.0250 N.am  400  TYR400     -0.1976
    112  CA        -4.9270   35.8490  -17.7190 C.3   400  TYR400      0.1639
    113  C         -5.2300   37.0190  -18.6470 C.2   400  TYR400      0.2290
    114  O         -5.6330   36.8380  -19.7980 O.2   400  TYR400     -0.2864
    115  CB        -3.4170   35.5220  -17.7250 C.3   400  TYR400      0.0560
    116  CG        -2.8210   35.1160  -19.0630 C.ar  400  TYR400     -0.0198
    117  CD1       -2.7980   33.7820  -19.4600 C.ar  400  TYR400     -0.0009
    118  CD2       -2.2570   36.0660  -19.9160 C.ar  400  TYR400     -0.0009
    119  CE1       -2.2430   33.4010  -20.6890 C.ar  400  TYR400      0.0417
    120  CE2       -1.7010   35.7000  -21.1400 C.ar  400  TYR400      0.0417
    121  CZ        -1.6980   34.3640  -21.5200 C.ar  400  TYR400      0.1957
    122  OH        -1.1540   33.9910  -22.7310 O.3   400  TYR400     -0.2866
    123  N         -0.7660   40.3620  -20.5840 N.3   403  PRO403     -0.2116
    124  CA        -1.7370   40.8980  -21.5470 C.3   403  PRO403      0.1372
    125  C         -2.9300   39.9470  -21.7150 C.2   403  PRO403      0.2244
    126  O         -2.9070   38.8660  -21.1170 O.2   403  PRO403     -0.2868
    127  CB        -0.9210   40.9860  -22.8330 C.3   403  PRO403      0.0268
    128  CG        -0.0050   39.7940  -22.7380 C.3   403  PRO403      0.0207
    129  CD         0.3450   39.6690  -21.2630 C.3   403  PRO403      0.0892
@<TRIPOS>BOND
     1    92    93    1
     2    94    95    2
     3    94    93    1
     4     8     7   ar
     5    93    96    1
     6     9     7   ar
     7     7     6    1
     8    96    97    1
     9    98    97   ar
    10    98   100   ar
    11     6     5    1
    12    97    99   ar
    13   100   102   ar
    14     5     2    1
    15   127   128    1
    16   127   124    1
    17   128   129    1
    18   122   121    1
    19    99   101   ar
    20   102   101   ar
    21   102   103    1
    22    78    79   ar
    23    78    76   ar
    24     2     1    1
    25     2     3    1
    26   125   124    1
    27   125   126    2
    28    79    77   ar
    29   124   123    1
    30   121   120   ar
    31   121   119   ar
    32    10     3   am
    33    10    11    1
    34   129   123    1
    35   120   118   ar
    36    64    63    2
    37    14    11    1
    38     3     4    2
    39    76    73   ar
    40   119   117   ar
    41    77    75   ar
    42    63    62    1
    43    11    12    1
    44    65    62    1
    45   118   116   ar
    46   114   113    2
    47    73    75   ar
    48    73    71   ar
    49   117   116   ar
    50    75    74   ar
    51    62    61    1
    52    12    13    2
    53   116   115    1
    54   113   112    1
    55    67    66    1
    56    67    70    1
    57    67    68    1
    58    60    58   am
    59    45    44    1
    60    18    17    2
    61    71    70    1
    62    71    72   ar
    63    61    55   am
    64   104   105    1
    65   110   108    1
    66    74    72   ar
    67    69    68    2
    68   111   112    1
    69   111   106   am
    70    25    27   ar
    71    25    22   ar
    72    27    28   ar
    73   108   105    1
    74   108   109    1
    75    68    80   am
    76   115   112    1
    77    59    58    2
    78    58    57    1
    79    44    41    1
    80   105   106    1
    81    17    16    1
    82    19    16    1
    83    19    20    1
    84    16    15    1
    85    55    56    2
    86    55    54    1
    87   106   107    2
    88    80    81    1
    89    28    26   ar
    90    22    20   ar
    91    22    24   ar
    92    39    38   ar
    93    39    37   ar
    94    20    21   ar
    95    38    36   ar
    96    57    54    1
    97    81    82    1
    98    81    84    1
    99    40    41    1
   100    54    53    1
   101    41    42    1
   102    37    35   ar
   103    24    26   ar
   104    24    23   ar
   105    82    83    2
   106    84    85    1
   107    36    34   ar
   108    42    43    2
   109    21    23   ar
   110    49    48    2
   111    53    48   am
   112    35    34   ar
   113    87    85   ar
   114    87    89   ar
   115    34    33    1
   116    85    86   ar
   117    48    47    1
   118    89    90   ar
   119    52    50    1
   120    33    30    1
   121    86    88   ar
   122    47    50    1
   123    47    46    1
   124    50    51    1
   125    90    88   ar
   126    90    91    1
   127    29    30    1
   128    30    31    1
   129    31    32    2
