@<TRIPOS>MOLECULE
tmp/4xwlA07.pdb
 74 73 0 0 0
SMALL
GASTEIGER

@<TRIPOS>ATOM
      1  N        -20.3930   20.7400  -13.7360 N.3   276  VAL276     -0.1231
      2  CA       -20.2870   21.7110  -14.8190 C.3   276  VAL276      0.1692
      3  C        -21.6550   22.3510  -15.0250 C.2   276  VAL276      0.2593
      4  O        -22.6550   21.6500  -15.1840 O.2   276  VAL276     -0.2718
      5  CB       -19.7830   21.0600  -16.1260 C.3   276  VAL276      0.0266
      6  CG1      -19.5990   22.1230  -17.2170 C.3   276  VAL276      0.0020
      7  CG2      -18.4630   20.3060  -15.8660 C.3   276  VAL276      0.0020
      8  N        -21.7130   23.6770  -14.9830 N.am  277  GLY277     -0.1942
      9  CA       -22.9950   24.3640  -15.0220 C.3   277  GLY277      0.2014
     10  C        -23.4410   24.7990  -13.6370 C.2   277  GLY277      0.2638
     11  O        -23.3450   25.9740  -13.2820 O.2   277  GLY277     -0.2714
     12  N        -23.9180   23.8460  -12.8460 N.am  278  ASN278     -0.1972
     13  CA       -24.2850   24.0730  -11.4650 C.3   278  ASN278      0.1688
     14  C        -23.0570   24.0510  -10.5430 C.2   278  ASN278      0.2292
     15  O        -22.9300   23.1830   -9.6550 O.2   278  ASN278     -0.2864
     16  CB       -25.3000   23.0140  -11.0680 C.3   278  ASN278      0.1181
     17  CG       -25.8280   23.2000   -9.6860 C.2   278  ASN278      0.2629
     18  OD1      -25.6750   24.2560   -9.0700 O.2   278  ASN278     -0.2716
     19  ND2      -26.4640   22.1650   -9.1820 N.am  278  ASN278     -0.0877
     20  N        -23.2120   30.8160  -23.0240 N.3   388  THR388     -0.1218
     21  CA       -22.6260   29.6190  -22.4410 C.3   388  THR388      0.1862
     22  C        -22.3930   28.4660  -23.4170 C.2   388  THR388      0.2287
     23  O        -22.9560   28.4180  -24.5020 O.2   388  THR388     -0.2866
     24  CB       -23.4980   29.0830  -21.2690 C.3   388  THR388      0.1770
     25  OG1      -24.8140   28.8060  -21.7480 O.3   388  THR388     -0.2211
     26  CG2      -23.5670   30.1090  -20.1010 C.3   388  THR388      0.0375
     27  N        -22.2200   24.3600  -22.8840 N.3   390  TYR390     -0.1227
     28  CA       -22.4550   23.2650  -21.9370 C.3   390  TYR390      0.1736
     29  C        -22.4000   23.7650  -20.4920 C.2   390  TYR390      0.2596
     30  O        -21.8700   23.0960  -19.6040 O.2   390  TYR390     -0.2718
     31  CB       -21.4520   22.1280  -22.1820 C.3   390  TYR390      0.0548
     32  CG       -21.7700   21.3800  -23.4630 C.ar  390  TYR390     -0.0200
     33  CD1      -22.6380   20.2950  -23.4500 C.ar  390  TYR390     -0.0009
     34  CD2      -21.2460   21.7960  -24.6920 C.ar  390  TYR390     -0.0009
     35  CE1      -22.9600   19.6100  -24.6230 C.ar  390  TYR390      0.0417
     36  CE2      -21.5610   21.1160  -25.8760 C.ar  390  TYR390      0.0417
     37  CZ       -22.4200   20.0240  -25.8300 C.ar  390  TYR390      0.1957
     38  OH       -22.7430   19.3420  -26.9920 O.3   390  TYR390     -0.2866
     39  N        -22.9420   24.9620  -20.2760 N.am  391  GLY391     -0.1957
     40  CA       -23.0460   25.5220  -18.9400 C.3   391  GLY391      0.1869
     41  C        -21.8660   26.3820  -18.5170 C.2   391  GLY391      0.2309
     42  O        -21.9010   26.9960  -17.4570 O.2   391  GLY391     -0.2863
     43  N        -25.2100   31.4520  -27.4760 N.3   469  THR469     -0.1203
     44  CA       -25.1070   30.2740  -26.6200 C.3   469  THR469      0.1994
     45  C        -25.1950   29.0090  -27.4840 C.2   469  THR469      0.2618
     46  O        -25.9940   28.9370  -28.4270 O.2   469  THR469     -0.2717
     47  CB       -26.2020   30.2830  -25.5370 C.3   469  THR469      0.1784
     48  OG1      -25.8210   31.2100  -24.5140 O.3   469  THR469     -0.2211
     49  CG2      -26.3860   28.9080  -24.9250 C.3   469  THR469      0.0376
     50  N        -24.3450   28.0320  -27.1920 N.am  470  TRP470     -0.1961
     51  CA       -24.2640   26.8270  -28.0180 C.3   470  TRP470      0.1771
     52  C        -25.5110   25.9680  -27.8810 C.2   470  TRP470      0.2620
     53  O        -25.9050   25.5870  -26.7750 O.2   470  TRP470     -0.2715
     54  CB       -23.0140   26.0160  -27.6530 C.3   470  TRP470      0.0590
     55  CG       -22.8000   24.7970  -28.5150 C.ar  470  TRP470      0.0006
     56  CD1      -22.9770   23.4930  -28.1520 C.ar  470  TRP470      0.0946
     57  CD2      -22.3560   24.7760  -29.8820 C.ar  470  TRP470      0.0152
     58  NE1      -22.6680   22.6610  -29.2090 N.ar  470  TRP470     -0.2442
     59  CE2      -22.2830   23.4250  -30.2800 C.ar  470  TRP470      0.0810
     60  CE3      -22.0180   25.7730  -30.8070 C.ar  470  TRP470      0.0012
     61  CZ2      -21.8880   23.0410  -31.5660 C.ar  470  TRP470      0.0191
     62  CZ3      -21.6090   25.3870  -32.0840 C.ar  470  TRP470      0.0001
     63  CH2      -21.5550   24.0310  -32.4480 C.ar  470  TRP470      0.0015
     64  N        -26.1530   25.6850  -29.0090 N.am  471  THR471     -0.1937
     65  CA       -27.3180   24.8150  -29.0000 C.3   471  THR471      0.2028
     66  C        -27.1260   23.6070  -29.9180 C.2   471  THR471      0.2642
     67  O        -28.0590   22.8480  -30.1410 O.2   471  THR471     -0.2714
     68  CB       -28.5980   25.5760  -29.4270 C.3   471  THR471      0.1808
     69  OG1      -28.4290   26.0870  -30.7560 O.3   471  THR471     -0.2208
     70  CG2      -28.8720   26.7200  -28.4820 C.3   471  THR471      0.0379
     71  N        -25.9270   23.4330  -30.4630 N.am  472  GLY472     -0.1954
     72  CA       -25.6630   22.2640  -31.2890 C.3   472  GLY472      0.1869
     73  C        -25.1750   22.5410  -32.6970 C.2   472  GLY472      0.2309
     74  O        -24.7040   21.6410  -33.3900 O.2   472  GLY472     -0.2863
@<TRIPOS>BOND
     1    74    73    2
     2    73    72    1
     3    63    62   ar
     4    63    61   ar
     5    62    60   ar
     6    61    59   ar
     7    72    71    1
     8    60    57   ar
     9    69    68    1
    10    71    66   am
    11    59    57   ar
    12    59    58   ar
    13    67    66    2
    14    66    65    1
    15    57    55   ar
    16    68    65    1
    17    68    70    1
    18    58    56   ar
    19    64    65    1
    20    64    52   am
    21    55    56   ar
    22    55    54    1
    23    46    45    2
    24    51    52    1
    25    51    54    1
    26    51    50    1
    27    52    53    2
    28    45    50   am
    29    45    44    1
    30    43    44    1
    31    38    37    1
    32    44    47    1
    33    36    37   ar
    34    36    34   ar
    35    37    35   ar
    36    47    49    1
    37    47    48    1
    38    34    32   ar
    39    35    33   ar
    40    23    22    2
    41    32    33   ar
    42    32    31    1
    43    22    21    1
    44    20    21    1
    45    27    28    1
    46    21    24    1
    47    31    28    1
    48    28    29    1
    49    25    24    1
    50    24    26    1
    51    29    39   am
    52    29    30    2
    53    39    40    1
    54    40    41    1
    55    41    42    2
    56     6     5    1
    57     5     7    1
    58     5     2    1
    59     4     3    2
    60     3     8   am
    61     3     2    1
    62     9     8    1
    63     9    10    1
    64     2     1    1
    65    10    11    2
    66    10    12   am
    67    12    13    1
    68    13    16    1
    69    13    14    1
    70    16    17    1
    71    14    15    2
    72    17    19   am
    73    17    18    2
