@<TRIPOS>MOLECULE
tmp/4xwlA12.pdb
 191 187 0 0 0
SMALL
GASTEIGER

@<TRIPOS>ATOM
      1  N          5.0790   22.1430  -16.0450 N.3   154  TRP154     -0.1241
      2  CA         5.1420   23.0600  -17.1870 C.3   154  TRP154      0.1605
      3  C          6.4130   23.9080  -17.2500 C.2   154  TRP154      0.2264
      4  O          6.7820   24.3600  -18.3320 O.2   154  TRP154     -0.2867
      5  CB         3.9230   23.9940  -17.2070 C.3   154  TRP154      0.0550
      6  CG         4.0510   25.1800  -16.2810 C.ar  154  TRP154      0.0003
      7  CD1        3.8200   25.1990  -14.9360 C.ar  154  TRP154      0.0946
      8  CD2        4.4250   26.5230  -16.6430 C.ar  154  TRP154      0.0152
      9  NE1        4.0360   26.4680  -14.4350 N.ar  154  TRP154     -0.2442
     10  CE2        4.4040   27.2980  -15.4650 C.ar  154  TRP154      0.0810
     11  CE3        4.7860   27.1390  -17.8470 C.ar  154  TRP154      0.0012
     12  CZ2        4.7350   28.6570  -15.4510 C.ar  154  TRP154      0.0191
     13  CZ3        5.1070   28.4890  -17.8340 C.ar  154  TRP154      0.0001
     14  CH2        5.0680   29.2330  -16.6450 C.ar  154  TRP154      0.0015
     15  N          7.9380   27.1390  -10.1240 N.3   176  ASN176     -0.1240
     16  CA         6.6490   27.7750  -10.4140 C.3   176  ASN176      0.1653
     17  C          6.8330   29.2860  -10.4390 C.2   176  ASN176      0.2266
     18  O          7.6860   29.8110   -9.7160 O.2   176  ASN176     -0.2867
     19  CB         5.5860   27.4380   -9.3550 C.3   176  ASN176      0.1155
     20  CG         5.1140   25.9990   -9.4010 C.2   176  ASN176      0.2627
     21  OD1        4.5260   25.5510  -10.3840 O.2   176  ASN176     -0.2716
     22  ND2        5.3190   25.2810   -8.3010 N.am  176  ASN176     -0.0877
     23  N          3.7460   31.8930  -11.9570 N.3   178  PHE178     -0.1227
     24  CA         2.3500   32.3320  -11.8560 C.3   178  PHE178      0.1736
     25  C          1.5890   31.5800  -10.7770 C.2   178  PHE178      0.2595
     26  O          1.5970   30.3500  -10.7530 O.2   178  PHE178     -0.2718
     27  CB         1.6250   32.1560  -13.1960 C.3   178  PHE178      0.0547
     28  CG         2.2670   32.8900  -14.3270 C.ar  178  PHE178     -0.0202
     29  CD1        2.0180   34.2380  -14.5280 C.ar  178  PHE178     -0.0042
     30  CD2        3.1320   32.2330  -15.1940 C.ar  178  PHE178     -0.0042
     31  CE1        2.6140   34.9230  -15.5860 C.ar  178  PHE178     -0.0003
     32  CE2        3.7370   32.9100  -16.2400 C.ar  178  PHE178     -0.0003
     33  CZ         3.4770   34.2540  -16.4420 C.ar  178  PHE178     -0.0000
     34  N          0.9360   32.3270   -9.8860 N.am  179  GLN179     -0.1979
     35  CA         0.1520   31.7460   -8.7930 C.3   179  GLN179      0.1601
     36  C         -1.0030   32.6180   -8.3470 C.2   179  GLN179      0.2287
     37  O         -1.9210   32.1450   -7.6800 O.2   179  GLN179     -0.2864
     38  CB         1.0180   31.5060   -7.5590 C.3   179  GLN179      0.0394
     39  CG         1.9020   30.3240   -7.6040 C.3   179  GLN179      0.0908
     40  CD         1.2230   29.0870   -7.0780 C.2   179  GLN179      0.2608
     41  OE1        0.1320   28.7300   -7.5210 O.2   179  GLN179     -0.2717
     42  NE2        1.8510   28.4390   -6.0980 N.am  179  GLN179     -0.0878
     43  N         -3.4030   34.5910   -9.8450 N.3   181  GLY181     -0.1225
     44  CA        -4.6050   34.9190  -10.5760 C.3   181  GLY181      0.1811
     45  C         -4.4520   35.6760  -11.8760 C.2   181  GLY181      0.2280
     46  O         -3.3530   35.8850  -12.3950 O.2   181  GLY181     -0.2866
     47  N         -1.9490   38.7360  -12.5130 N.3   184  GLU184     -0.1245
     48  CA        -0.5250   38.5930  -12.2310 C.3   184  GLU184      0.1567
     49  C          0.2350   38.3550  -13.5280 C.2   184  GLU184      0.2260
     50  O          0.3280   37.2270  -13.9920 O.2   184  GLU184     -0.2867
     51  CB        -0.2570   37.4420  -11.2480 C.3   184  GLU184      0.0388
     52  CG         1.2020   37.4010  -10.7500 C.3   184  GLU184      0.1160
     53  CD         1.4940   36.2020   -9.8640 C.2   184  GLU184      0.3649
     54  OE1        1.1240   35.0720  -10.2500 O.co2 184  GLU184     -0.2457
     55  OE2        2.1090   36.3740   -8.7800 O.co2 184  GLU184     -0.2457
     56  N          0.7760   32.5870   -1.1350 N.3   210  PHE210     -0.1227
     57  CA        -0.2860   32.1310   -2.0390 C.3   210  PHE210      0.1736
     58  C         -1.4650   31.5080   -1.3120 C.2   210  PHE210      0.2596
     59  O         -2.6180   31.7120   -1.6910 O.2   210  PHE210     -0.2718
     60  CB         0.2970   31.1350   -3.0380 C.3   210  PHE210      0.0547
     61  CG         1.5870   31.5930   -3.6300 C.ar  210  PHE210     -0.0202
     62  CD1        1.6340   32.7510   -4.3990 C.ar  210  PHE210     -0.0042
     63  CD2        2.7540   30.9030   -3.3920 C.ar  210  PHE210     -0.0042
     64  CE1        2.8400   33.1970   -4.9260 C.ar  210  PHE210     -0.0003
     65  CE2        3.9610   31.3380   -3.9230 C.ar  210  PHE210     -0.0003
     66  CZ         3.9990   32.4850   -4.6890 C.ar  210  PHE210     -0.0000
     67  N         -1.1700   30.7680   -0.2490 N.am  211  THR211     -0.1953
     68  CA        -2.1910   30.0160    0.4680 C.3   211  THR211      0.1897
     69  C         -2.2530   30.4370    1.9280 C.2   211  THR211      0.2313
     70  O         -1.2250   30.5310    2.5990 O.2   211  THR211     -0.2863
     71  CB        -1.9240   28.5020    0.3730 C.3   211  THR211      0.1794
     72  OG1       -1.8760   28.1270   -1.0110 O.3   211  THR211     -0.2208
     73  CG2       -3.0220   27.7170    1.0690 C.3   211  THR211      0.0378
     74  N          6.2930   20.6620    1.2440 N.3   219  GLN219     -0.1245
     75  CA         5.3780   20.0550    0.2930 C.3   219  GLN219      0.1566
     76  C          5.8360   20.2740   -1.1370 C.2   219  GLN219      0.2260
     77  O          6.6520   21.1570   -1.4170 O.2   219  GLN219     -0.2867
     78  CB         3.9760   20.6370    0.4830 C.3   219  GLN219      0.0367
     79  CG         3.9460   22.1590    0.3940 C.3   219  GLN219      0.0905
     80  CD         2.5930   22.7330    0.7650 C.2   219  GLN219      0.2608
     81  OE1        1.7670   22.9930   -0.1000 O.2   219  GLN219     -0.2717
     82  NE2        2.3590   22.9230    2.0570 N.am  219  GLN219     -0.0878
     83  N          4.4120   20.6650   -5.3310 N.3   221  LYS221     -0.1245
     84  CA         3.3070   20.9470   -6.2350 C.3   221  LYS221      0.1561
     85  C          3.7950   21.0370   -7.6800 C.2   221  LYS221      0.2260
     86  O          4.7690   21.7400   -7.9740 O.2   221  LYS221     -0.2867
     87  CB         2.5990   22.2490   -5.8650 C.3   221  LYS221      0.0271
     88  CG         1.5790   22.6410   -6.9340 C.3   221  LYS221      0.0035
     89  CD         0.6700   23.7600   -6.4920 C.3   221  LYS221      0.0206
     90  CE         1.3610   25.0980   -6.5830 C.3   221  LYS221      0.1093
     91  NZ         0.3310   26.1530   -6.4660 N.3   221  LYS221     -0.1314
     92  N          2.3900   21.4940  -11.8490 N.3   223  THR223     -0.1218
     93  CA         1.2840   22.0310  -12.6200 C.3   223  THR223      0.1862
     94  C          1.4880   21.6860  -14.0940 C.2   223  THR223      0.2287
     95  O          2.4980   22.0540  -14.6940 O.2   223  THR223     -0.2866
     96  CB         1.1690   23.5640  -12.4430 C.3   223  THR223      0.1770
     97  OG1        0.9470   23.8700  -11.0660 O.3   223  THR223     -0.2211
     98  CG2        0.0130   24.1360  -13.2920 C.3   223  THR223      0.0375
     99  N        -11.8080   22.6440  -11.6260 N.3   271  LYS271     -0.1231
    100  CA       -10.7530   22.7730  -10.6160 C.3   271  LYS271      0.1693
    101  C        -11.0210   21.9910   -9.3320 C.2   271  LYS271      0.2592
    102  O        -10.1610   21.2360   -8.8650 O.2   271  LYS271     -0.2718
    103  CB       -10.5380   24.2460  -10.2680 C.3   271  LYS271      0.0285
    104  CG        -9.2850   24.4870   -9.4550 C.3   271  LYS271      0.0035
    105  CD        -9.0940   25.9750   -9.2270 C.3   271  LYS271      0.0206
    106  CE        -7.8610   26.2400   -8.3660 C.3   271  LYS271      0.1093
    107  NZ        -7.6410   27.7150   -8.2260 N.3   271  LYS271     -0.1314
    108  N        -12.2070   22.1590   -8.7600 N.am  272  TYR272     -0.1976
    109  CA       -12.5300   21.4340   -7.5340 C.3   272  TYR272      0.1639
    110  C        -13.6150   20.3920   -7.7550 C.2   272  TYR272      0.2290
    111  O        -14.4150   20.1090   -6.8590 O.2   272  TYR272     -0.2864
    112  CB       -12.9280   22.4200   -6.4350 C.3   272  TYR272      0.0560
    113  CG       -11.7310   23.2360   -6.0060 C.ar  272  TYR272     -0.0198
    114  CD1      -10.6990   22.6520   -5.2790 C.ar  272  TYR272     -0.0009
    115  CD2      -11.6050   24.5690   -6.3720 C.ar  272  TYR272     -0.0009
    116  CE1       -9.5810   23.3820   -4.9040 C.ar  272  TYR272      0.0417
    117  CE2      -10.4910   25.3150   -6.0000 C.ar  272  TYR272      0.0417
    118  CZ        -9.4850   24.7140   -5.2680 C.ar  272  TYR272      0.1957
    119  OH        -8.3800   25.4460   -4.8960 O.3   272  TYR272     -0.2866
    120  N         -6.8440   24.6970  -18.5750 N.3   295  TRP295     -0.1227
    121  CA        -5.5750   25.4260  -18.5780 C.3   295  TRP295      0.1737
    122  C         -4.4880   24.6740  -17.8110 C.2   295  TRP295      0.2595
    123  O         -3.3030   24.8700  -18.0590 O.2   295  TRP295     -0.2718
    124  CB        -5.7440   26.8330  -18.0030 C.3   295  TRP295      0.0564
    125  CG        -4.5580   27.6870  -18.3080 C.ar  295  TRP295      0.0003
    126  CD1       -3.5300   27.9890  -17.4640 C.ar  295  TRP295      0.0946
    127  CD2       -4.2570   28.3330  -19.5550 C.ar  295  TRP295      0.0152
    128  NE1       -2.6150   28.7950  -18.1010 N.ar  295  TRP295     -0.2442
    129  CE2       -3.0350   29.0180  -19.3870 C.ar  295  TRP295      0.0810
    130  CE3       -4.9040   28.4050  -20.7950 C.ar  295  TRP295      0.0012
    131  CZ2       -2.4430   29.7600  -20.4150 C.ar  295  TRP295      0.0191
    132  CZ3       -4.3140   29.1470  -21.8160 C.ar  295  TRP295      0.0001
    133  CH2       -3.0950   29.8120  -21.6190 C.ar  295  TRP295      0.0015
    134  N         -4.8990   23.8090  -16.8880 N.am  296  TYR296     -0.1976
    135  CA        -3.9630   22.9650  -16.1580 C.3   296  TYR296      0.1639
    136  C         -4.6840   21.9240  -15.3320 C.2   296  TYR296      0.2290
    137  O         -5.8530   22.1030  -14.9550 O.2   296  TYR296     -0.2864
    138  CB        -3.0660   23.8160  -15.2260 C.3   296  TYR296      0.0560
    139  CG        -3.8450   24.6320  -14.2070 C.ar  296  TYR296     -0.0198
    140  CD1       -4.3090   24.0530  -13.0270 C.ar  296  TYR296     -0.0009
    141  CD2       -4.1430   25.9710  -14.4380 C.ar  296  TYR296     -0.0009
    142  CE1       -5.0340   24.7840  -12.1090 C.ar  296  TYR296      0.0417
    143  CE2       -4.8650   26.7140  -13.5200 C.ar  296  TYR296      0.0417
    144  CZ        -5.3070   26.1110  -12.3570 C.ar  296  TYR296      0.1957
    145  OH        -6.0240   26.8320  -11.4360 O.3   296  TYR296     -0.2866
    146  N         -3.2490   20.0420  -11.6340 N.3   298  ALA298     -0.1245
    147  CA        -2.1060   20.2040  -10.7510 C.3   298  ALA298      0.1562
    148  C         -2.1890   19.1890   -9.6330 C.2   298  ALA298      0.2260
    149  O         -3.2720   18.6850   -9.3150 O.2   298  ALA298     -0.2867
    150  CB        -2.0400   21.6310  -10.1990 C.3   298  ALA298      0.0290
    151  N         -2.9300   15.8880   -2.9030 N.3   309  TRP309     -0.1241
    152  CA        -4.1310   16.5150   -3.4330 C.3   309  TRP309      0.1605
    153  C         -4.0300   16.6520   -4.9460 C.2   309  TRP309      0.2264
    154  O         -2.9310   16.5890   -5.5110 O.2   309  TRP309     -0.2867
    155  CB        -4.3470   17.8840   -2.7800 C.3   309  TRP309      0.0550
    156  CG        -3.1680   18.7950   -2.9620 C.ar  309  TRP309      0.0003
    157  CD1       -2.1110   18.9580   -2.1100 C.ar  309  TRP309      0.0946
    158  CD2       -2.9140   19.6410   -4.0870 C.ar  309  TRP309      0.0152
    159  NE1       -1.2150   19.8680   -2.6340 N.ar  309  TRP309     -0.2442
    160  CE2       -1.6880   20.3020   -3.8460 C.ar  309  TRP309      0.0810
    161  CE3       -3.6090   19.9120   -5.2710 C.ar  309  TRP309      0.0012
    162  CZ2       -1.1380   21.2070   -4.7510 C.ar  309  TRP309      0.0191
    163  CZ3       -3.0600   20.8130   -6.1730 C.ar  309  TRP309      0.0001
    164  CH2       -1.8370   21.4490   -5.9060 C.ar  309  TRP309      0.0015
    165  N         -6.0710   18.8710   -8.3610 N.3   311  ILE311     -0.1245
    166  CA        -7.0990   19.7530   -8.9040 C.3   311  ILE311      0.1561
    167  C         -7.0680   19.7490  -10.4210 C.2   311  ILE311      0.2260
    168  O         -6.0330   19.4760  -11.0340 O.2   311  ILE311     -0.2867
    169  CB        -6.9280   21.2050   -8.4410 C.3   311  ILE311      0.0252
    170  CG1       -5.5690   21.7500   -8.8960 C.3   311  ILE311      0.0019
    171  CG2       -7.1200   21.3260   -6.9170 C.3   311  ILE311      0.0019
    172  CD1       -5.3180   23.2270   -8.4920 C.3   311  ILE311      0.0001
    173  N         -8.1180   32.8470  -18.2050 N.3   399  VAL399     -0.1231
    174  CA        -6.9810   32.6490  -17.2960 C.3   399  VAL399      0.1692
    175  C         -6.1330   33.8970  -17.0060 C.2   399  VAL399      0.2592
    176  O         -5.8370   34.1670  -15.8400 O.2   399  VAL399     -0.2718
    177  CB        -6.0480   31.5400  -17.8180 C.3   399  VAL399      0.0266
    178  CG1       -4.9370   31.2610  -16.8090 C.3   399  VAL399      0.0020
    179  CG2       -6.8540   30.2610  -18.1070 C.3   399  VAL399      0.0020
    180  N         -5.7270   34.6580  -18.0250 N.am  400  TYR400     -0.1976
    181  CA        -4.9270   35.8490  -17.7190 C.3   400  TYR400      0.1639
    182  C         -5.2300   37.0190  -18.6470 C.2   400  TYR400      0.2290
    183  O         -5.6330   36.8380  -19.7980 O.2   400  TYR400     -0.2864
    184  CB        -3.4170   35.5220  -17.7250 C.3   400  TYR400      0.0560
    185  CG        -2.8210   35.1160  -19.0630 C.ar  400  TYR400     -0.0198
    186  CD1       -2.7980   33.7820  -19.4600 C.ar  400  TYR400     -0.0009
    187  CD2       -2.2570   36.0660  -19.9160 C.ar  400  TYR400     -0.0009
    188  CE1       -2.2430   33.4010  -20.6890 C.ar  400  TYR400      0.0417
    189  CE2       -1.7010   35.7000  -21.1400 C.ar  400  TYR400      0.0417
    190  CZ        -1.6980   34.3640  -21.5200 C.ar  400  TYR400      0.1957
    191  OH        -1.1540   33.9910  -22.7310 O.3   400  TYR400     -0.2866
@<TRIPOS>BOND
     1   191   190    1
     2   132   133   ar
     3   132   130   ar
     4   133   131   ar
     5   190   189   ar
     6   190   188   ar
     7   189   187   ar
     8   130   127   ar
     9   188   186   ar
    10   131   129   ar
    11   187   185   ar
    12   183   182    2
    13   127   129   ar
    14   127   125   ar
    15   186   185   ar
    16   129   128   ar
    17   185   184    1
    18   182   181    1
    19   121   120    1
    20   121   124    1
    21   121   122    1
    22     4     3    2
    23   125   124    1
    24   125   126   ar
    25   173   174    1
    26   179   177    1
    27   128   126   ar
    28   123   122    2
    29   180   181    1
    30   180   175   am
    31    11    13   ar
    32    11     8   ar
    33    13    14   ar
    34   177   174    1
    35   177   178    1
    36   122   134   am
    37   184   181    1
    38   174   175    1
    39     3     2    1
    40     5     2    1
    41     5     6    1
    42     2     1    1
    43   175   176    2
    44   134   135    1
    45    14    12   ar
    46     8     6   ar
    47     8    10   ar
    48    33    32   ar
    49    33    31   ar
    50     6     7   ar
    51    32    30   ar
    52   135   136    1
    53   135   138    1
    54    31    29   ar
    55    10    12   ar
    56    10     9   ar
    57   136   137    2
    58   138   139    1
    59    30    28   ar
    60     7     9   ar
    61    95    94    2
    62    29    28   ar
    63   141   139   ar
    64   141   143   ar
    65    28    27    1
    66   139   140   ar
    67    94    93    1
    68    50    49    2
    69    49    48    1
    70   143   144   ar
    71    98    96    1
    72    27    24    1
    73   140   142   ar
    74    93    96    1
    75    93    92    1
    76    47    48    1
    77    96    97    1
    78    46    45    2
    79   144   142   ar
    80   144   145    1
    81    48    51    1
    82    23    24    1
    83    45    44    1
    84    24    25    1
    85   146   147    1
    86    99   100    1
    87    51    52    1
    88   168   167    2
    89    25    26    2
    90    25    34   am
    91   147   150    1
    92   147   148    1
    93    52    53    1
    94   100   103    1
    95   100   101    1
    96    44    43    1
    97    17    16    1
    98    17    18    2
    99   167   166    1
   100    16    15    1
   101    16    19    1
   102    21    20    2
   103   103   104    1
   104    54    53   ar
   105    34    35    1
   106    53    55   ar
   107   148   149    2
   108   104   105    1
   109    20    19    1
   110    20    22   am
   111   101   102    2
   112   101   108   am
   113   105   106    1
   114   166   169    1
   115   166   165    1
   116   170   172    1
   117   170   169    1
   118    35    36    1
   119    35    38    1
   120   108   109    1
   121   169   171    1
   122   106   107    1
   123    36    37    2
   124    86    85    2
   125   110   109    1
   126   110   111    2
   127    85    84    1
   128    39    38    1
   129    39    40    1
   130   109   112    1
   131    41    40    2
   132    40    42   am
   133    88    89    1
   134    88    87    1
   135    90    89    1
   136    90    91    1
   137   112   113    1
   138   115   113   ar
   139   115   117   ar
   140    84    87    1
   141    84    83    1
   142   163   164   ar
   143   163   161   ar
   144   113   114   ar
   145   117   118   ar
   146   164   162   ar
   147   154   153    2
   148   114   116   ar
   149   161   158   ar
   150   118   116   ar
   151   118   119    1
   152   153   152    1
   153    64    66   ar
   154    64    62   ar
   155   162   160   ar
   156    66    65   ar
   157    62    61   ar
   158   158   160   ar
   159   158   156   ar
   160    65    63   ar
   161   160   159   ar
   162    61    63   ar
   163    61    60    1
   164   152   151    1
   165   152   155    1
   166    60    57    1
   167   156   155    1
   168   156   157   ar
   169   159   157   ar
   170    57    58    1
   171    57    56    1
   172    59    58    2
   173    77    76    2
   174    58    67   am
   175    76    75    1
   176    72    71    1
   177    67    68    1
   178    81    80    2
   179    75    78    1
   180    75    74    1
   181    71    68    1
   182    71    73    1
   183    79    78    1
   184    79    80    1
   185    68    69    1
   186    80    82   am
   187    69    70    2
