@<TRIPOS>MOLECULE
tmp/4xwlA06.pdb
 139 137 0 0 0
SMALL
GASTEIGER

@<TRIPOS>ATOM
      1  N         10.9190    2.9150  -47.7330 N.3     2  PRO2       -0.2102
      2  CA        10.1230    4.0760  -48.1530 C.3     2  PRO2        0.1504
      3  C         10.9000    5.0300  -49.0620 C.2     2  PRO2        0.2576
      4  O         12.1050    5.2130  -48.8730 O.2     2  PRO2       -0.2718
      5  CB         9.7790    4.7710  -46.8300 C.3     2  PRO2        0.0282
      6  CG        10.0130    3.7630  -45.7700 C.3     2  PRO2        0.0208
      7  CD        11.0940    2.8650  -46.2710 C.3     2  PRO2        0.0893
      8  N         10.2200    5.6300  -50.0330 N.am    3  VAL3       -0.1966
      9  CA        10.8450    6.6560  -50.8600 C.3     3  VAL3        0.1727
     10  C         10.5940    8.0380  -50.2490 C.2     3  VAL3        0.2616
     11  O          9.4560    8.4920  -50.1380 O.2     3  VAL3       -0.2715
     12  CB        10.3390    6.6080  -52.3230 C.3     3  VAL3        0.0290
     13  CG1        8.8170    6.4920  -52.3780 C.3     3  VAL3        0.0023
     14  CG2       10.8330    7.8190  -53.1030 C.3     3  VAL3        0.0023
     15  N         11.6740    8.6860  -49.8270 N.am    4  VAL4       -0.1964
     16  CA        11.5980    9.9940  -49.1930 C.3     4  VAL4        0.1712
     17  C         11.6690   11.0990  -50.2450 C.2     4  VAL4        0.2458
     18  O         12.5690   11.0970  -51.0830 O.2     4  VAL4       -0.2730
     19  CB        12.7310   10.1710  -48.1610 C.3     4  VAL4        0.0289
     20  CG1       12.7720   11.5930  -47.6240 C.3     4  VAL4        0.0023
     21  CG2       12.5680    9.1670  -47.0380 C.3     4  VAL4        0.0023
     22  N         10.7200   12.0490  -50.1980 N.am    5  PRO5       -0.2727
     23  CA        10.6690   13.1350  -51.1830 C.3     5  PRO5        0.1402
     24  C         11.9670   13.9140  -51.2210 C.2     5  PRO5        0.2269
     25  O         12.5330   14.2480  -50.1800 O.2     5  PRO5       -0.2865
     26  CB         9.5260   14.0310  -50.6810 C.3     5  PRO5        0.0296
     27  CG         8.7530   13.1960  -49.7340 C.3     5  PRO5        0.0237
     28  CD         9.7100   12.2180  -49.1370 C.3     5  PRO5        0.0939
     29  N         10.8480   10.5750  -39.7990 N.3    69  LYS69      -0.1231
     30  CA        10.0450   10.3970  -41.0030 C.3    69  LYS69       0.1693
     31  C         10.9120   10.5340  -42.2590 C.2    69  LYS69       0.2591
     32  O         10.8770    9.6830  -43.1520 O.2    69  LYS69      -0.2718
     33  CB         8.9000   11.4100  -41.0100 C.3    69  LYS69       0.0285
     34  CG         8.3150   11.7620  -42.3820 C.3    69  LYS69       0.0035
     35  CD         7.2910   10.7630  -42.8170 C.3    69  LYS69       0.0206
     36  CE         6.4740   11.2890  -43.9950 C.3    69  LYS69       0.1093
     37  NZ         5.6020   10.2160  -44.5270 N.3    69  LYS69      -0.1314
     38  N         11.7260   11.5830  -42.2950 N.am   70  LEU70      -0.1980
     39  CA        12.5000   11.9000  -43.4850 C.3    70  LEU70       0.1596
     40  C         13.7830   11.0760  -43.6100 C.2    70  LEU70       0.2287
     41  O         14.3050   10.9280  -44.7100 O.2    70  LEU70      -0.2864
     42  CB        12.8270   13.4010  -43.5070 C.3    70  LEU70       0.0297
     43  CG        11.5880   14.2900  -43.6340 C.3    70  LEU70       0.0022
     44  CD1       11.9420   15.7660  -43.4720 C.3    70  LEU70       0.0001
     45  CD2       10.9380   14.0550  -44.9980 C.3    70  LEU70       0.0001
     46  N          2.8890   10.8130  -35.1190 N.3   238  TYR238     -0.1241
     47  CA         3.6070   11.0750  -36.3640 C.3   238  TYR238      0.1605
     48  C          4.8380   10.1690  -36.4670 C.2   238  TYR238      0.2264
     49  O          5.1240    9.6070  -37.5320 O.2   238  TYR238     -0.2867
     50  CB         4.0170   12.5490  -36.4530 C.3   238  TYR238      0.0534
     51  CG         4.3720   12.9980  -37.8540 C.ar  238  TYR238     -0.0201
     52  CD1        3.3760   13.3570  -38.7640 C.ar  238  TYR238     -0.0009
     53  CD2        5.7010   13.0810  -38.2670 C.ar  238  TYR238     -0.0009
     54  CE1        3.6970   13.7750  -40.0660 C.ar  238  TYR238      0.0417
     55  CE2        6.0290   13.5050  -39.5610 C.ar  238  TYR238      0.0417
     56  CZ         5.0200   13.8490  -40.4500 C.ar  238  TYR238      0.1957
     57  OH         5.3390   14.2590  -41.7270 O.3   238  TYR238     -0.2866
     58  N          3.6550    6.4480  -37.2350 N.3   241  LEU241     -0.1231
     59  CA         3.3220    6.3150  -38.6520 C.3   241  LEU241      0.1693
     60  C          4.5910    6.0750  -39.4650 C.2   241  LEU241      0.2591
     61  O          4.6400    5.1870  -40.3190 O.2   241  LEU241     -0.2718
     62  CB         2.6050    7.5690  -39.1770 C.3   241  LEU241      0.0284
     63  CG         1.1490    7.8100  -38.7600 C.3   241  LEU241      0.0019
     64  CD1        0.6350    9.0990  -39.3850 C.3   241  LEU241      0.0001
     65  CD2        0.2840    6.6270  -39.1740 C.3   241  LEU241      0.0001
     66  N          5.6170    6.8780  -39.2010 N.am  242  ALA242     -0.1980
     67  CA         6.8910    6.7150  -39.8890 C.3   242  ALA242      0.1597
     68  C          7.5540    5.3850  -39.5140 C.2   242  ALA242      0.2287
     69  O          8.1370    4.7090  -40.3640 O.2   242  ALA242     -0.2864
     70  CB         7.8220    7.8870  -39.5720 C.3   242  ALA242      0.0319
     71  N          6.2570    2.4480  -41.4330 N.3   245  GLU245     -0.1231
     72  CA         6.7200    2.4400  -42.8140 C.3   245  GLU245      0.1699
     73  C          8.2040    2.0920  -42.9380 C.2   245  GLU245      0.2592
     74  O          8.6090    1.4400  -43.9000 O.2   245  GLU245     -0.2718
     75  CB         6.4610    3.7930  -43.4730 C.3   245  GLU245      0.0402
     76  CG         5.0280    4.0150  -43.8970 C.3   245  GLU245      0.1161
     77  CD         4.8870    5.2070  -44.8290 C.2   245  GLU245      0.3649
     78  OE1        5.4770    5.1780  -45.9350 O.co2 245  GLU245     -0.2457
     79  OE2        4.1940    6.1770  -44.4530 O.co2 245  GLU245     -0.2457
     80  N          9.0150    2.5410  -41.9830 N.am  246  TRP246     -0.1976
     81  CA        10.4530    2.2590  -42.0120 C.3   246  TRP246      0.1640
     82  C         10.7630    0.8820  -41.4370 C.2   246  TRP246      0.2290
     83  O         11.8600    0.3590  -41.6190 O.2   246  TRP246     -0.2864
     84  CB        11.2430    3.3280  -41.2340 C.3   246  TRP246      0.0576
     85  CG        11.4590    4.6010  -42.0020 C.ar  246  TRP246      0.0006
     86  CD1       10.8080    5.7960  -41.8220 C.ar  246  TRP246      0.0946
     87  CD2       12.3870    4.8070  -43.0760 C.ar  246  TRP246      0.0152
     88  NE1       11.2830    6.7290  -42.7190 N.ar  246  TRP246     -0.2442
     89  CE2       12.2460    6.1470  -43.5020 C.ar  246  TRP246      0.0810
     90  CE3       13.3330    3.9910  -43.7120 C.ar  246  TRP246      0.0012
     91  CZ2       13.0120    6.6880  -44.5420 C.ar  246  TRP246      0.0191
     92  CZ3       14.0950    4.5320  -44.7440 C.ar  246  TRP246      0.0001
     93  CH2       13.9280    5.8660  -45.1460 C.ar  246  TRP246      0.0015
     94  N         -7.2650   16.5720  -41.8880 N.3   424  TYR424     -0.1241
     95  CA        -6.5540   15.7990  -42.9020 C.3   424  TYR424      0.1605
     96  C         -6.5530   14.3110  -42.5610 C.2   424  TYR424      0.2264
     97  O         -6.7630   13.4620  -43.4260 O.2   424  TYR424     -0.2867
     98  CB        -5.1180   16.3130  -43.0370 C.3   424  TYR424      0.0534
     99  CG        -4.1500   15.3340  -43.6580 C.ar  424  TYR424     -0.0201
    100  CD1       -4.0450   15.1970  -45.0390 C.ar  424  TYR424     -0.0009
    101  CD2       -3.3260   14.5620  -42.8580 C.ar  424  TYR424     -0.0009
    102  CE1       -3.1330   14.2950  -45.6030 C.ar  424  TYR424      0.0417
    103  CE2       -2.4270   13.6780  -43.3990 C.ar  424  TYR424      0.0417
    104  CZ        -2.3270   13.5460  -44.7660 C.ar  424  TYR424      0.1957
    105  OH        -1.4150   12.6440  -45.2620 O.3   424  TYR424     -0.2866
    106  N         -1.8120   21.5010  -44.1010 N.3   503  TYR503     -0.1241
    107  CA        -2.6760   20.3520  -43.8150 C.3   503  TYR503      0.1605
    108  C         -4.0970   20.6320  -44.3120 C.2   503  TYR503      0.2264
    109  O         -4.7710   19.7400  -44.8270 O.2   503  TYR503     -0.2867
    110  CB        -2.6880   20.0060  -42.3200 C.3   503  TYR503      0.0534
    111  CG        -1.6070   19.0200  -41.9540 C.ar  503  TYR503     -0.0201
    112  CD1       -1.6860   17.6960  -42.3700 C.ar  503  TYR503     -0.0009
    113  CD2       -0.4930   19.4150  -41.2270 C.ar  503  TYR503     -0.0009
    114  CE1       -0.6930   16.7900  -42.0560 C.ar  503  TYR503      0.0417
    115  CE2        0.5130   18.5080  -40.9030 C.ar  503  TYR503      0.0417
    116  CZ         0.4050   17.2020  -41.3340 C.ar  503  TYR503      0.1957
    117  OH         1.3930   16.3000  -41.0310 O.3   503  TYR503     -0.2866
    118  N          6.4160   17.0770  -47.5160 N.3   630  THR630     -0.1203
    119  CA         5.9230   15.6900  -47.5070 C.3   630  THR630      0.1994
    120  C          4.4860   15.5610  -48.0080 C.2   630  THR630      0.2617
    121  O          4.1150   14.5220  -48.5510 O.2   630  THR630     -0.2717
    122  CB         5.9910   15.0540  -46.0940 C.3   630  THR630      0.1784
    123  OG1        5.4050   15.9440  -45.1370 O.3   630  THR630     -0.2211
    124  CG2        7.4290   14.7680  -45.7000 C.3   630  THR630      0.0376
    125  N          3.6770   16.6030  -47.8270 N.am  631  LEU631     -0.1979
    126  CA         2.2840   16.5690  -48.2910 C.3   631  LEU631      0.1596
    127  C          2.1730   16.8700  -49.7740 C.2   631  LEU631      0.2287
    128  O          1.2770   16.3680  -50.4480 O.2   631  LEU631     -0.2864
    129  CB         1.4160   17.5710  -47.5190 C.3   631  LEU631      0.0297
    130  CG         1.2560   17.3220  -46.0120 C.3   631  LEU631      0.0022
    131  CD1        0.2680   18.3250  -45.4200 C.3   631  LEU631      0.0001
    132  CD2        0.8110   15.8920  -45.7070 C.3   631  LEU631      0.0001
    133  N          4.4370   16.4770  -52.7230 N.3   633  THR633     -0.1218
    134  CA         5.6170   15.9920  -53.4090 C.3   633  THR633      0.1862
    135  C          5.4850   16.3490  -54.8890 C.2   633  THR633      0.2287
    136  O          5.2390   15.4900  -55.7350 O.2   633  THR633     -0.2866
    137  CB         5.7890   14.4900  -53.2040 C.3   633  THR633      0.1770
    138  OG1        4.6490   13.8100  -53.7410 O.3   633  THR633     -0.2211
    139  CG2        5.8910   14.1900  -51.7070 C.3   633  THR633      0.0375
@<TRIPOS>BOND
     1   136   135    2
     2   135   134    1
     3   138   137    1
     4   134   137    1
     5   134   133    1
     6   137   139    1
     7    14    12    1
     8    13    12    1
     9    12     9    1
    10    24    23    1
    11    24    25    2
    12    23    26    1
    13    23    22    1
    14    18    17    2
    15     9    10    1
    16     9     8    1
    17    26    27    1
    18   128   127    2
    19    10    11    2
    20    10    15   am
    21    17    22   am
    22    17    16    1
    23    22    28    1
    24     8     3   am
    25    15    16    1
    26   127   126    1
    27    27    28    1
    28    16    19    1
    29     3     4    2
    30     3     2    1
    31   121   120    2
    32   126   125    1
    33   126   129    1
    34    19    20    1
    35    19    21    1
    36     2     1    1
    37     2     5    1
    38   120   125   am
    39   120   119    1
    40     1     7    1
    41   129   130    1
    42   118   119    1
    43   119   122    1
    44     5     6    1
    45     7     6    1
    46   122   124    1
    47   122   123    1
    48   130   132    1
    49   130   131    1
    50    78    77   ar
    51   102   100   ar
    52   102   104   ar
    53   105   104    1
    54    93    92   ar
    55    93    91   ar
    56   100    99   ar
    57    45    43    1
    58    77    79   ar
    59    77    76    1
    60   109   108    2
    61   104   103   ar
    62    92    90   ar
    63    41    40    2
    64    91    89   ar
    65    37    36    1
    66   108   107    1
    67   106   107    1
    68    36    35    1
    69    74    73    2
    70    76    75    1
    71   107   110    1
    72    90    87   ar
    73    99    98    1
    74    99   101   ar
    75    43    42    1
    76    43    44    1
    77    40    39    1
    78    42    39    1
    79    89    87   ar
    80    89    88   ar
    81    39    38    1
    82    75    72    1
    83    97    96    2
    84   103   101   ar
    85    32    31    2
    86    87    85   ar
    87    98    95    1
    88    73    72    1
    89    73    80   am
    90    95    96    1
    91    95    94    1
    92    35    34    1
    93    72    71    1
    94    88    86   ar
    95    34    33    1
    96   112   114   ar
    97   112   111   ar
    98   110   111    1
    99    38    31   am
   100    31    30    1
   101   114   116   ar
   102    81    80    1
   103    81    82    1
   104    81    84    1
   105    85    86   ar
   106    85    84    1
   107   111   113   ar
   108    57    56    1
   109    83    82    2
   110   116   117    1
   111   116   115   ar
   112   113   115   ar
   113    33    30    1
   114    30    29    1
   115    56    54   ar
   116    56    55   ar
   117    69    68    2
   118    61    60    2
   119    54    52   ar
   120    67    70    1
   121    67    68    1
   122    67    66    1
   123    55    53   ar
   124    60    66   am
   125    60    59    1
   126    64    63    1
   127    62    63    1
   128    62    59    1
   129    65    63    1
   130    52    51   ar
   131    59    58    1
   132    53    51   ar
   133    51    50    1
   134    49    48    2
   135    48    47    1
   136    50    47    1
   137    47    46    1
