@<TRIPOS>MOLECULE
tmp/4xwlA11.pdb
 102 101 0 0 0
SMALL
GASTEIGER

@<TRIPOS>ATOM
      1  N        -11.9620   13.3290   -1.3030 N.3   107  LYS107     -0.1231
      2  CA       -11.5550   14.6440   -0.8100 C.3   107  LYS107      0.1678
      3  C        -10.2830   15.0740   -1.5240 C.2   107  LYS107      0.2434
      4  O         -9.2160   15.1030   -0.9240 O.2   107  LYS107     -0.2733
      5  CB       -11.3230   14.6310    0.7060 C.3   107  LYS107      0.0284
      6  CG       -12.5250   14.2250    1.5470 C.3   107  LYS107      0.0035
      7  CD       -12.1850   14.3190    3.0350 C.3   107  LYS107      0.0206
      8  CE       -13.3260   13.8430    3.9240 C.3   107  LYS107      0.1093
      9  NZ       -14.5340   14.7070    3.8000 N.3   107  LYS107     -0.1314
     10  N        -10.3960   15.3960   -2.8180 N.am  108  PRO108     -0.2718
     11  CA        -9.2220   15.6160   -3.6650 C.3   108  PRO108      0.1535
     12  C         -8.3770   16.8150   -3.2470 C.2   108  PRO108      0.2598
     13  O         -7.1780   16.7830   -3.4740 O.2   108  PRO108     -0.2715
     14  CB        -9.8290   15.8700   -5.0570 C.3   108  PRO108      0.0310
     15  CG       -11.2260   15.3600   -4.9790 C.3   108  PRO108      0.0237
     16  CD       -11.6550   15.5620   -3.5660 C.3   108  PRO108      0.0939
     17  N         -8.9920   17.8540   -2.6840 N.am  109  ALA109     -0.1964
     18  CA        -8.2800   19.0950   -2.3900 C.3   109  ALA109      0.1728
     19  C         -9.1160   19.9360   -1.4470 C.2   109  ALA109      0.2616
     20  O        -10.2520   19.5880   -1.1630 O.2   109  ALA109     -0.2715
     21  CB        -7.9880   19.8710   -3.6800 C.3   109  ALA109      0.0334
     22  N         -8.5610   21.0440   -0.9750 N.am  110  THR110     -0.1951
     23  CA        -9.3150   22.0050   -0.1790 C.3   110  THR110      0.1897
     24  C         -9.5350   23.2710   -1.0000 C.2   110  THR110      0.2313
     25  O         -8.5910   23.8040   -1.5810 O.2   110  THR110     -0.2863
     26  CB        -8.5850   22.3570    1.1200 C.3   110  THR110      0.1794
     27  OG1       -8.3410   21.1590    1.8650 O.3   110  THR110     -0.2208
     28  CG2       -9.4210   23.3290    1.9630 C.3   110  THR110      0.0378
     29  N         -9.9030   26.9710   -2.2700 N.3   112  ALA112     -0.1245
     30  CA        -9.5170   28.3710   -2.0550 C.3   112  ALA112      0.1562
     31  C         -9.9430   29.1800   -3.2830 C.2   112  ALA112      0.2260
     32  O         -9.9170   28.6670   -4.4060 O.2   112  ALA112     -0.2867
     33  CB        -8.0130   28.5020   -1.8090 C.3   112  ALA112      0.0290
     34  N         -7.6340   28.9840    2.7690 N.3   125  LEU125     -0.1245
     35  CA        -8.2660   27.6750    2.5970 C.3   125  LEU125      0.1561
     36  C         -9.6320   27.6700    3.2660 C.2   125  LEU125      0.2260
     37  O         -9.7860   28.1390    4.3870 O.2   125  LEU125     -0.2867
     38  CB        -7.4040   26.5480    3.1780 C.3   125  LEU125      0.0270
     39  CG        -6.0960   26.2820    2.4380 C.3   125  LEU125      0.0019
     40  CD1       -5.3140   25.1620    3.1150 C.3   125  LEU125      0.0001
     41  CD2       -6.3730   25.9610    0.9620 C.3   125  LEU125      0.0001
     42  N         -1.1700   30.7680   -0.2490 N.3   211  THR211     -0.1218
     43  CA        -2.1910   30.0160    0.4680 C.3   211  THR211      0.1862
     44  C         -2.2530   30.4370    1.9280 C.2   211  THR211      0.2287
     45  O         -1.2250   30.5310    2.5990 O.2   211  THR211     -0.2866
     46  CB        -1.9240   28.5020    0.3730 C.3   211  THR211      0.1770
     47  OG1       -1.8760   28.1270   -1.0110 O.3   211  THR211     -0.2211
     48  CG2       -3.0220   27.7170    1.0690 C.3   211  THR211      0.0375
     49  N        -12.2070   22.1590   -8.7600 N.3   272  TYR272     -0.1241
     50  CA       -12.5300   21.4340   -7.5340 C.3   272  TYR272      0.1605
     51  C        -13.6150   20.3920   -7.7550 C.2   272  TYR272      0.2264
     52  O        -14.4150   20.1090   -6.8590 O.2   272  TYR272     -0.2867
     53  CB       -12.9280   22.4200   -6.4350 C.3   272  TYR272      0.0534
     54  CG       -11.7310   23.2360   -6.0060 C.ar  272  TYR272     -0.0201
     55  CD1      -10.6990   22.6520   -5.2790 C.ar  272  TYR272     -0.0009
     56  CD2      -11.6050   24.5690   -6.3720 C.ar  272  TYR272     -0.0009
     57  CE1       -9.5810   23.3820   -4.9040 C.ar  272  TYR272      0.0417
     58  CE2      -10.4910   25.3150   -6.0000 C.ar  272  TYR272      0.0417
     59  CZ        -9.4850   24.7140   -5.2680 C.ar  272  TYR272      0.1957
     60  OH        -8.3800   25.4460   -4.8960 O.3   272  TYR272     -0.2866
     61  N          0.6100   12.9670    2.5410 N.3   307  TRP307     -0.1227
     62  CA        -0.7120   13.4530    2.1440 C.3   307  TRP307      0.1737
     63  C         -0.5880   13.9950    0.7360 C.2   307  TRP307      0.2596
     64  O          0.5050   14.3570    0.3250 O.2   307  TRP307     -0.2718
     65  CB        -1.2190   14.5420    3.1050 C.3   307  TRP307      0.0564
     66  CG        -0.2090   15.6370    3.3550 C.ar  307  TRP307      0.0003
     67  CD1        0.7930   15.6360    4.2870 C.ar  307  TRP307      0.0946
     68  CD2       -0.1180   16.8970    2.6690 C.ar  307  TRP307      0.0152
     69  NE1        1.5030   16.8120    4.2200 N.ar  307  TRP307     -0.2442
     70  CE2        0.9620   17.6040    3.2370 C.ar  307  TRP307      0.0810
     71  CE3       -0.8450   17.4920    1.6310 C.ar  307  TRP307      0.0012
     72  CZ2        1.3390   18.8740    2.7980 C.ar  307  TRP307      0.0191
     73  CZ3       -0.4710   18.7620    1.1950 C.ar  307  TRP307      0.0001
     74  CH2        0.6110   19.4370    1.7780 C.ar  307  TRP307      0.0015
     75  N         -1.6850   14.0480   -0.0150 N.am  308  SER308     -0.1938
     76  CA        -1.6140   14.5730   -1.3710 C.3   308  SER308      0.2055
     77  C         -2.9580   15.1140   -1.8220 C.2   308  SER308      0.2643
     78  O         -3.9920   14.8220   -1.2200 O.2   308  SER308     -0.2714
     79  CB        -1.1210   13.4940   -2.3630 C.3   308  SER308      0.2130
     80  OG        -1.9580   12.3390   -2.3340 O.3   308  SER308     -0.2179
     81  N         -2.9300   15.8880   -2.9030 N.am  309  TRP309     -0.1973
     82  CA        -4.1310   16.5150   -3.4330 C.3   309  TRP309      0.1640
     83  C         -4.0300   16.6520   -4.9460 C.2   309  TRP309      0.2290
     84  O         -2.9310   16.5890   -5.5110 O.2   309  TRP309     -0.2864
     85  CB        -4.3470   17.8840   -2.7800 C.3   309  TRP309      0.0576
     86  CG        -3.1680   18.7950   -2.9620 C.ar  309  TRP309      0.0006
     87  CD1       -2.1110   18.9580   -2.1100 C.ar  309  TRP309      0.0946
     88  CD2       -2.9140   19.6410   -4.0870 C.ar  309  TRP309      0.0152
     89  NE1       -1.2150   19.8680   -2.6340 N.ar  309  TRP309     -0.2442
     90  CE2       -1.6880   20.3020   -3.8460 C.ar  309  TRP309      0.0810
     91  CE3       -3.6090   19.9120   -5.2710 C.ar  309  TRP309      0.0012
     92  CZ2       -1.1380   21.2070   -4.7510 C.ar  309  TRP309      0.0191
     93  CZ3       -3.0600   20.8130   -6.1730 C.ar  309  TRP309      0.0001
     94  CH2       -1.8370   21.4490   -5.9060 C.ar  309  TRP309      0.0015
     95  N         -6.0710   18.8710   -8.3610 N.3   311  ILE311     -0.1245
     96  CA        -7.0990   19.7530   -8.9040 C.3   311  ILE311      0.1561
     97  C         -7.0680   19.7490  -10.4210 C.2   311  ILE311      0.2260
     98  O         -6.0330   19.4760  -11.0340 O.2   311  ILE311     -0.2867
     99  CB        -6.9280   21.2050   -8.4410 C.3   311  ILE311      0.0252
    100  CG1       -5.5690   21.7500   -8.8960 C.3   311  ILE311      0.0019
    101  CG2       -7.1200   21.3260   -6.9170 C.3   311  ILE311      0.0019
    102  CD1       -5.3180   23.2270   -8.4920 C.3   311  ILE311      0.0001
@<TRIPOS>BOND
     1    98    97    2
     2    97    96    1
     3    96    99    1
     4    96    95    1
     5   100   102    1
     6   100    99    1
     7    49    50    1
     8    99   101    1
     9    51    50    1
    10    51    52    2
    11    50    53    1
    12    53    54    1
    13    56    54   ar
    14    56    58   ar
    15    93    94   ar
    16    93    91   ar
    17    54    55   ar
    18    58    59   ar
    19    94    92   ar
    20    84    83    2
    21    55    57   ar
    22    91    88   ar
    23    59    57   ar
    24    59    60    1
    25    14    15    1
    26    14    11    1
    27    15    16    1
    28    83    82    1
    29    92    90   ar
    30    32    31    2
    31    88    90   ar
    32    88    86   ar
    33    90    89   ar
    34    21    18    1
    35    11    12    1
    36    11    10    1
    37    16    10    1
    38    13    12    2
    39    82    81    1
    40    82    85    1
    41    31    30    1
    42    12    17   am
    43    86    85    1
    44    86    87   ar
    45    81    77   am
    46    10     3   am
    47    17    18    1
    48    89    87   ar
    49    18    19    1
    50    79    80    1
    51    79    76    1
    52    29    30    1
    53    30    33    1
    54    77    76    1
    55    77    78    2
    56    25    24    2
    57     3     4    2
    58     3     2    1
    59    19    20    2
    60    19    22   am
    61    76    75    1
    62     1     2    1
    63    47    46    1
    64    24    23    1
    65    22    23    1
    66     2     5    1
    67    42    43    1
    68    23    26    1
    69    75    63   am
    70    64    63    2
    71    46    43    1
    72    46    48    1
    73    43    44    1
    74     5     6    1
    75    63    62    1
    76    41    39    1
    77    26    27    1
    78    26    28    1
    79    73    71   ar
    80    73    74   ar
    81     6     7    1
    82    71    68   ar
    83    74    72   ar
    84    44    45    2
    85    62    61    1
    86    62    65    1
    87    39    40    1
    88    39    38    1
    89    35    34    1
    90    35    38    1
    91    35    36    1
    92    68    70   ar
    93    68    66   ar
    94    72    70   ar
    95     7     8    1
    96    65    66    1
    97    70    69   ar
    98    36    37    2
    99    66    67   ar
   100     9     8    1
   101    69    67   ar
