@<TRIPOS>MOLECULE
tmp/4xwmA00.pdb
 174 169 0 0 0
SMALL
GASTEIGER

@<TRIPOS>ATOM
      1  N         14.1870   27.5100  -23.5420 N.3    33  HIS33      -0.1241
      2  CA        13.1000   28.2760  -24.1540 C.3    33  HIS33       0.1621
      3  C         13.5990   29.0520  -25.3850 C.2    33  HIS33       0.2264
      4  O         12.9380   29.0800  -26.4300 O.2    33  HIS33      -0.2867
      5  CB        12.4790   29.2380  -23.1440 C.3    33  HIS33       0.0745
      6  CG        11.4120   30.1080  -23.7330 C.ar   33  HIS33       0.0817
      7  ND1       10.1800   29.6110  -24.1090 N.ar   33  HIS33      -0.2268
      8  CD2       11.3890   31.4300  -24.0200 C.ar   33  HIS33       0.1154
      9  CE1        9.4430   30.5930  -24.5990 C.ar   33  HIS33       0.1986
     10  NE2       10.1540   31.7090  -24.5580 N.ar   33  HIS33      -0.2212
     11  N          8.5000   36.5180  -21.1050 N.3    41  GLU41      -0.1231
     12  CA         7.2020   36.5480  -21.8090 C.3    41  GLU41       0.1699
     13  C          6.1370   35.5710  -21.2990 C.2    41  GLU41       0.2592
     14  O          4.9400   35.8800  -21.3290 O.2    41  GLU41      -0.2718
     15  CB         7.4320   36.3390  -23.3160 C.3    41  GLU41       0.0402
     16  CG         8.1080   35.0530  -23.6940 C.3    41  GLU41       0.1161
     17  CD         8.6130   35.0890  -25.1340 C.2    41  GLU41       0.3649
     18  OE1        8.7710   36.2020  -25.6900 O.co2  41  GLU41      -0.2457
     19  OE2        8.8370   34.0120  -25.7160 O.co2  41  GLU41      -0.2457
     20  N          6.5680   34.3830  -20.8960 N.am   42  ALA42      -0.1966
     21  CA         5.7470   33.4450  -20.1450 C.3    42  ALA42       0.1713
     22  C          6.7380   32.7830  -19.1710 C.2    42  ALA42       0.2458
     23  O          6.5780   32.9300  -17.9600 O.2    42  ALA42      -0.2730
     24  CB         4.9800   32.4400  -21.0580 C.3    42  ALA42       0.0333
     25  N          7.7860   32.0970  -19.6870 N.am   43  PRO43      -0.2727
     26  CA         8.9670   31.9290  -18.8350 C.3    43  PRO43       0.1402
     27  C          9.5770   33.3060  -18.6280 C.2    43  PRO43       0.2269
     28  O          9.3640   34.1740  -19.4730 O.2    43  PRO43      -0.2865
     29  CB         9.9230   31.0590  -19.6600 C.3    43  PRO43       0.0296
     30  CG         9.2180   30.7090  -20.8910 C.3    43  PRO43       0.0237
     31  CD         8.0110   31.5490  -21.0390 C.3    43  PRO43       0.0939
     32  N         10.3030   24.8890  -20.9060 N.3    50  THR50      -0.1218
     33  CA         8.9030   24.5970  -20.6540 C.3    50  THR50       0.1862
     34  C          8.5680   23.2060  -21.1260 C.2    50  THR50       0.2287
     35  O          9.2700   22.6500  -21.9660 O.2    50  THR50      -0.2866
     36  CB         7.9930   25.5580  -21.4130 C.3    50  THR50       0.1770
     37  OG1        8.3110   25.4510  -22.8050 O.3    50  THR50      -0.2211
     38  CG2        8.2160   27.0090  -20.9550 C.3    50  THR50       0.0375
     39  N          6.2030   22.8050  -22.9660 N.3    52  GLU52      -0.1245
     40  CA         5.9730   23.1970  -24.3540 C.3    52  GLU52       0.1567
     41  C          7.2020   22.9300  -25.2240 C.2    52  GLU52       0.2260
     42  O          7.0920   22.3110  -26.2990 O.2    52  GLU52      -0.2867
     43  CB         5.5720   24.6710  -24.3880 C.3    52  GLU52       0.0388
     44  CG         5.7220   25.4050  -25.7050 C.3    52  GLU52       0.1160
     45  CD         5.4400   26.8800  -25.4740 C.2    52  GLU52       0.3649
     46  OE1        6.3820   27.7010  -25.5640 O.co2  52  GLU52      -0.2457
     47  OE2        4.2720   27.2110  -25.1490 O.co2  52  GLU52      -0.2457
     48  N         -1.8860   21.8780  -22.9710 N.3   224  ASP224     -0.1239
     49  CA        -1.6300   22.0060  -24.3980 C.3   224  ASP224      0.1674
     50  C         -0.2900   21.3670  -24.7710 C.2   224  ASP224      0.2266
     51  O         -0.1390   20.8400  -25.8760 O.2   224  ASP224     -0.2867
     52  CB        -1.7000   23.4830  -24.8470 C.3   224  ASP224      0.1410
     53  CG        -0.6680   24.3760  -24.1700 C.2   224  ASP224      0.3668
     54  OD1       -0.3540   24.1640  -22.9720 O.co2 224  ASP224     -0.2456
     55  OD2       -0.1890   25.3270  -24.8440 O.co2 224  ASP224     -0.2456
     56  N         -6.9010   24.9910  -18.3900 N.3   292  TRP292     -0.1241
     57  CA        -5.6610   25.7620  -18.3250 C.3   292  TRP292      0.1605
     58  C         -4.5500   25.0140  -17.6130 C.2   292  TRP292      0.2264
     59  O         -3.3630   25.2500  -17.8780 O.2   292  TRP292     -0.2867
     60  CB        -5.8890   27.0900  -17.6190 C.3   292  TRP292      0.0550
     61  CG        -4.7790   28.0820  -17.8640 C.ar  292  TRP292      0.0003
     62  CD1       -3.8130   28.4580  -16.9830 C.ar  292  TRP292      0.0946
     63  CD2       -4.5470   28.8420  -19.0610 C.ar  292  TRP292      0.0152
     64  NE1       -2.9860   29.4030  -17.5500 N.ar  292  TRP292     -0.2442
     65  CE2       -3.4170   29.6580  -18.8260 C.ar  292  TRP292      0.0810
     66  CE3       -5.1840   28.9140  -20.3030 C.ar  292  TRP292      0.0012
     67  CZ2       -2.9130   30.5400  -19.7870 C.ar  292  TRP292      0.0191
     68  CZ3       -4.6740   29.7960  -21.2670 C.ar  292  TRP292      0.0001
     69  CH2       -3.5530   30.5930  -20.9970 C.ar  292  TRP292      0.0015
     70  N         -1.1620   40.6830  -20.2190 N.3   400  PRO400     -0.2116
     71  CA        -2.2300   41.1730  -21.0950 C.3   400  PRO400      0.1372
     72  C         -3.3210   40.1190  -21.2270 C.2   400  PRO400      0.2244
     73  O         -3.1430   39.0110  -20.7090 O.2   400  PRO400     -0.2868
     74  CB        -1.5260   41.3760  -22.4450 C.3   400  PRO400      0.0268
     75  CG        -0.1290   40.7520  -22.2880 C.3   400  PRO400      0.0207
     76  CD        -0.1140   39.9990  -20.9930 C.3   400  PRO400      0.0892
     77  N         -2.8670   37.5590  -28.2120 N.3   405  TRP405     -0.1241
     78  CA        -1.8110   36.9970  -29.0660 C.3   405  TRP405      0.1605
     79  C         -2.3510   36.1740  -30.2300 C.2   405  TRP405      0.2264
     80  O         -3.0600   35.1830  -30.0240 O.2   405  TRP405     -0.2867
     81  CB        -0.8910   36.1210  -28.2220 C.3   405  TRP405      0.0550
     82  CG         0.3180   35.5760  -28.9290 C.ar  405  TRP405      0.0003
     83  CD1        1.2250   36.2690  -29.6690 C.ar  405  TRP405      0.0946
     84  CD2        0.7820   34.2220  -28.8810 C.ar  405  TRP405      0.0152
     85  NE1        2.2290   35.4190  -30.1050 N.ar  405  TRP405     -0.2442
     86  CE2        1.9770   34.1620  -29.6250 C.ar  405  TRP405      0.0810
     87  CE3        0.2940   33.0530  -28.2850 C.ar  405  TRP405      0.0012
     88  CZ2        2.6880   32.9750  -29.7980 C.ar  405  TRP405      0.0191
     89  CZ3        1.0010   31.8720  -28.4610 C.ar  405  TRP405      0.0001
     90  CH2        2.1850   31.8490  -29.2060 C.ar  405  TRP405      0.0015
     91  N         -2.0820   32.0010  -30.6180 N.3   408  MET408     -0.1245
     92  CA        -3.0590   30.9780  -30.2350 C.3   408  MET408      0.1570
     93  C         -3.8750   30.5220  -31.4470 C.2   408  MET408      0.2261
     94  O         -4.2710   29.3500  -31.5420 O.2   408  MET408     -0.2867
     95  CB        -4.0120   31.4970  -29.1460 C.3   408  MET408      0.0387
     96  CG        -3.3790   31.6990  -27.7730 C.3   408  MET408      0.0595
     97  SD        -2.7630   30.1330  -27.1370 S.3   408  MET408     -0.1393
     98  CE        -2.3400   30.6220  -25.4630 C.3   408  MET408      0.0692
     99  N         -1.4450   28.1690  -33.5740 N.3   411  TRP411     -0.1241
    100  CA        -1.1500   26.9320  -32.8540 C.3   411  TRP411      0.1605
    101  C         -2.3490   26.0040  -32.7930 C.2   411  TRP411      0.2264
    102  O         -2.2570   24.7890  -33.0270 O.2   411  TRP411     -0.2867
    103  CB        -0.7110   27.2600  -31.4310 C.3   411  TRP411      0.0550
    104  CG         0.7120   27.6330  -31.3100 C.ar  411  TRP411      0.0003
    105  CD1        1.6120   27.8590  -32.3140 C.ar  411  TRP411      0.0946
    106  CD2        1.4090   27.8430  -30.0850 C.ar  411  TRP411      0.0152
    107  NE1        2.8420   28.1950  -31.7770 N.ar  411  TRP411     -0.2442
    108  CE2        2.7410   28.1760  -30.4090 C.ar  411  TRP411      0.0810
    109  CE3        1.0370   27.7610  -28.7390 C.ar  411  TRP411      0.0012
    110  CZ2        3.7020   28.4340  -29.4350 C.ar  411  TRP411      0.0191
    111  CZ3        1.9910   28.0180  -27.7680 C.ar  411  TRP411      0.0001
    112  CH2        3.3120   28.3500  -28.1180 C.ar  411  TRP411      0.0015
    113  N         -1.4660   41.3960  -32.6130 N.3   457  LYS457     -0.1245
    114  CA        -2.3890   41.6330  -31.5070 C.3   457  LYS457      0.1561
    115  C         -3.8360   41.7240  -31.9760 C.2   457  LYS457      0.2260
    116  O         -4.1480   42.3900  -32.9670 O.2   457  LYS457     -0.2867
    117  CB        -2.0130   42.9130  -30.7650 C.3   457  LYS457      0.0271
    118  CG        -0.7160   42.8230  -29.9690 C.3   457  LYS457      0.0035
    119  CD        -0.4860   44.1050  -29.1800 C.3   457  LYS457      0.0206
    120  CE         0.7310   44.0050  -28.2760 C.3   457  LYS457      0.1093
    121  NZ         0.9000   45.2350  -27.4540 N.3   457  LYS457     -0.1314
    122  N          6.2640   37.8630  -36.3850 N.3   487  ASP487     -0.1239
    123  CA         6.5490   36.7540  -35.4860 C.3   487  ASP487      0.1674
    124  C          6.7420   35.5280  -36.3580 C.2   487  ASP487      0.2266
    125  O          5.7770   34.9330  -36.8190 O.2   487  ASP487     -0.2867
    126  CB         5.4170   36.5430  -34.4790 C.3   487  ASP487      0.1410
    127  CG         5.7770   35.5360  -33.4090 C.2   487  ASP487      0.3668
    128  OD1        6.4370   34.5280  -33.7460 O.co2 487  ASP487     -0.2456
    129  OD2        5.4280   35.7630  -32.2300 O.co2 487  ASP487     -0.2456
    130  N         12.7990   42.1230  -33.0750 N.3   545  GLU545     -0.1245
    131  CA        11.4980   42.4990  -32.5430 C.3   545  GLU545      0.1567
    132  C         11.7220   43.5770  -31.4970 C.2   545  GLU545      0.2260
    133  O         12.7600   43.5950  -30.8350 O.2   545  GLU545     -0.2867
    134  CB        10.7590   41.2890  -31.9600 C.3   545  GLU545      0.0388
    135  CG        11.3560   40.7070  -30.6810 C.3   545  GLU545      0.1160
    136  CD        10.6720   39.4070  -30.2660 C.2   545  GLU545      0.3649
    137  OE1       10.7580   38.4220  -31.0330 O.co2 545  GLU545     -0.2457
    138  OE2       10.0460   39.3650  -29.1820 O.co2 545  GLU545     -0.2457
    139  N         10.7280   45.2230  -27.9870 N.3   547  ARG547     -0.1245
    140  CA        10.0460   44.8560  -26.7530 C.3   547  ARG547      0.1563
    141  C          9.8180   46.0820  -25.8760 C.2   547  ARG547      0.2260
    142  O         10.5950   46.3590  -24.9610 O.2   547  ARG547     -0.2867
    143  CB        10.8400   43.7910  -25.9990 C.3   547  ARG547      0.0307
    144  CG        10.9660   42.4730  -26.7620 C.3   547  ARG547      0.0489
    145  CD         9.6020   41.8420  -27.0440 C.3   547  ARG547      0.2205
    146  NE         8.8930   41.4760  -25.8210 N.pl3 547  ARG547     -0.0865
    147  CZ         8.8290   40.2420  -25.3230 C.cat 547  ARG547      0.5346
    148  NH1        9.4380   39.2270  -25.9380 N.pl3 547  ARG547      0.1354
    149  NH2        8.1610   40.0220  -24.1940 N.pl3 547  ARG547      0.1354
    150  N         13.7110   31.3690  -30.4540 N.3   611  ARG611     -0.1245
    151  CA        12.9210   30.5480  -29.5420 C.3   611  ARG611      0.1563
    152  C         12.9200   29.1170  -30.0410 C.2   611  ARG611      0.2260
    153  O         12.7190   28.8830  -31.2300 O.2   611  ARG611     -0.2867
    154  CB        11.4920   31.0660  -29.4740 C.3   611  ARG611      0.0307
    155  CG        11.3880   32.4760  -28.9220 C.3   611  ARG611      0.0489
    156  CD         9.9560   32.9830  -29.0060 C.3   611  ARG611      0.2205
    157  NE         9.8040   34.2860  -28.3590 N.pl3 611  ARG611     -0.0865
    158  CZ         9.9830   35.4590  -28.9640 C.cat 611  ARG611      0.5346
    159  NH1       10.3300   35.5220  -30.2470 N.pl3 611  ARG611      0.1354
    160  NH2        9.8120   36.5790  -28.2790 N.pl3 611  ARG611      0.1354
    161  N         10.7260   26.7410  -29.6740 N.3   613  TRP613     -0.1241
    162  CA         9.4530   26.3720  -30.2920 C.3   613  TRP613      0.1605
    163  C          9.2880   27.0530  -31.6490 C.2   613  TRP613      0.2264
    164  O          8.7110   26.4790  -32.5780 O.2   613  TRP613     -0.2867
    165  CB         8.2680   26.6940  -29.3740 C.3   613  TRP613      0.0550
    166  CG         7.8760   28.1320  -29.2060 C.ar  613  TRP613      0.0003
    167  CD1        8.1080   28.9230  -28.1150 C.ar  613  TRP613      0.0946
    168  CD2        7.1100   28.9310  -30.1230 C.ar  613  TRP613      0.0152
    169  NE1        7.5570   30.1700  -28.3050 N.ar  613  TRP613     -0.2442
    170  CE2        6.9390   30.1990  -29.5320 C.ar  613  TRP613      0.0810
    171  CE3        6.5560   28.6920  -31.3890 C.ar  613  TRP613      0.0012
    172  CZ2        6.2440   31.2310  -30.1620 C.ar  613  TRP613      0.0191
    173  CZ3        5.8730   29.7220  -32.0200 C.ar  613  TRP613      0.0001
    174  CH2        5.7160   30.9740  -31.4080 C.ar  613  TRP613      0.0015
@<TRIPOS>BOND
     1   125   124    2
     2   122   123    1
     3   124   123    1
     4   123   126    1
     5   126   127    1
     6   128   127   ar
     7    99   100    1
     8   127   129   ar
     9   130   131    1
    10   102   101    2
    11   116   115    2
    12   100   101    1
    13   100   103    1
    14   113   114    1
    15   164   163    2
    16   131   134    1
    17   131   132    1
    18   105   107   ar
    19   105   104   ar
    20   173   174   ar
    21   173   171   ar
    22   115   114    1
    23   134   135    1
    24   107   108   ar
    25   163   162    1
    26    94    93    2
    27   114   117    1
    28   132   133    2
    29    93    92    1
    30   103   104    1
    31   174   172   ar
    32   171   168   ar
    33   104   106   ar
    34   153   152    2
    35   137   136   ar
    36   117   118    1
    37   135   136    1
    38    91    92    1
    39   150   151    1
    40   108   106   ar
    41   108   110   ar
    42   162   161    1
    43   162   165    1
    44   136   138   ar
    45   159   158    1
    46    92    95    1
    47    79    80    2
    48    79    78    1
    49   172   170   ar
    50   168   170   ar
    51   168   166   ar
    52    85    83   ar
    53    85    86   ar
    54   106   109   ar
    55   152   151    1
    56   118   119    1
    57    88    86   ar
    58    88    90   ar
    59    83    82   ar
    60    86    84   ar
    61   151   154    1
    62   170   169   ar
    63   154   155    1
    64   110   112   ar
    65   165   166    1
    66    90    89   ar
    67   166   167   ar
    68   119   120    1
    69    95    96    1
    70    78    81    1
    71    78    77    1
    72   156   155    1
    73   156   157    1
    74   158   157    2
    75   158   160    1
    76    82    84   ar
    77    82    81    1
    78    84    87   ar
    79   109   111   ar
    80    89    87   ar
    81   169   167   ar
    82   120   121    1
    83   112   111   ar
    84   139   140    1
    85    96    97    1
    86    97    98    1
    87   145   144    1
    88   145   146    1
    89   144   143    1
    90   140   143    1
    91   140   141    1
    92     4     3    2
    93    42    41    2
    94   148   147    1
    95    51    50    2
    96   141   142    2
    97   146   147    2
    98    19    17   ar
    99    44    45    1
   100    44    43    1
   101    18    17   ar
   102    46    45   ar
   103    45    47   ar
   104     3     2    1
   105   147   149    1
   106    41    40    1
   107    17    16    1
   108    52    49    1
   109    52    53    1
   110    55    53   ar
   111    50    49    1
   112     9    10   ar
   113     9     7   ar
   114    10     8   ar
   115    49    48    1
   116    43    40    1
   117    40    39    1
   118    53    54   ar
   119     2     1    1
   120     2     5    1
   121     7     6   ar
   122     8     6   ar
   123     6     5    1
   124    16    15    1
   125    15    12    1
   126    37    36    1
   127    74    75    1
   128    74    71    1
   129    75    76    1
   130    35    34    2
   131    12    13    1
   132    12    11    1
   133    36    38    1
   134    36    33    1
   135    14    13    2
   136    13    20   am
   137    68    69   ar
   138    68    66   ar
   139    72    71    1
   140    72    73    2
   141    34    33    1
   142    71    70    1
   143    24    21    1
   144    31    30    1
   145    31    25    1
   146    69    67   ar
   147    76    70    1
   148    32    33    1
   149    20    21    1
   150    30    29    1
   151    66    63   ar
   152    21    22    1
   153    67    65   ar
   154    25    22   am
   155    25    26    1
   156    29    26    1
   157    28    27    2
   158    22    23    2
   159    63    65   ar
   160    63    61   ar
   161    26    27    1
   162    65    64   ar
   163    56    57    1
   164    57    60    1
   165    57    58    1
   166    59    58    2
   167    61    60    1
   168    61    62   ar
   169    64    62   ar
