@<TRIPOS>MOLECULE
tmp/4xwmA01.pdb
 182 176 0 0 0
SMALL
GASTEIGER

@<TRIPOS>ATOM
      1  N          6.5680   34.3830  -20.8960 N.3    42  ALA42      -0.1245
      2  CA         5.7470   33.4450  -20.1450 C.3    42  ALA42       0.1562
      3  C          6.7380   32.7830  -19.1710 C.2    42  ALA42       0.2260
      4  O          6.5780   32.9300  -17.9600 O.2    42  ALA42      -0.2867
      5  CB         4.9800   32.4400  -21.0580 C.3    42  ALA42       0.0290
      6  N          6.2030   22.8050  -22.9660 N.3    52  GLU52      -0.1245
      7  CA         5.9730   23.1970  -24.3540 C.3    52  GLU52       0.1567
      8  C          7.2020   22.9300  -25.2240 C.2    52  GLU52       0.2260
      9  O          7.0920   22.3110  -26.2990 O.2    52  GLU52      -0.2867
     10  CB         5.5720   24.6710  -24.3880 C.3    52  GLU52       0.0388
     11  CG         5.7220   25.4050  -25.7050 C.3    52  GLU52       0.1160
     12  CD         5.4400   26.8800  -25.4740 C.2    52  GLU52       0.3649
     13  OE1        6.3820   27.7010  -25.5640 O.co2  52  GLU52      -0.2457
     14  OE2        4.2720   27.2110  -25.1490 O.co2  52  GLU52      -0.2457
     15  N         -9.7980   32.3030   -6.1060 N.3   111  GLU111     -0.1245
     16  CA        -8.8960   33.1420   -6.8960 C.3   111  GLU111      0.1567
     17  C         -9.3530   34.5890   -6.7180 C.2   111  GLU111      0.2260
     18  O        -10.5200   34.8350   -6.3880 O.2   111  GLU111     -0.2867
     19  CB        -8.9190   32.7280   -8.3730 C.3   111  GLU111      0.0388
     20  CG        -8.5100   31.2720   -8.5650 C.3   111  GLU111      0.1160
     21  CD        -8.7580   30.7370   -9.9790 C.2   111  GLU111      0.3649
     22  OE1       -9.1310   31.5230  -10.8720 O.co2 111  GLU111     -0.2457
     23  OE2       -8.5850   29.5170  -10.1890 O.co2 111  GLU111     -0.2457
     24  N          5.2170   22.3250  -15.9450 N.3   151  TRP151     -0.1241
     25  CA         5.2970   23.2380  -17.0860 C.3   151  TRP151      0.1605
     26  C          6.6020   24.0300  -17.2140 C.2   151  TRP151      0.2264
     27  O          6.9320   24.4680  -18.3090 O.2   151  TRP151     -0.2867
     28  CB         4.1210   24.2270  -17.0700 C.3   151  TRP151      0.0550
     29  CG         4.3210   25.4720  -16.2330 C.ar  151  TRP151      0.0003
     30  CD1        4.1350   25.6010  -14.8900 C.ar  151  TRP151      0.0946
     31  CD2        4.6990   26.7710  -16.7150 C.ar  151  TRP151      0.0152
     32  NE1        4.3790   26.9060  -14.4990 N.ar  151  TRP151     -0.2442
     33  CE2        4.7390   27.6390  -15.5970 C.ar  151  TRP151      0.0810
     34  CE3        5.0260   27.2750  -17.9750 C.ar  151  TRP151      0.0012
     35  CZ2        5.0790   28.9940  -15.7100 C.ar  151  TRP151      0.0191
     36  CZ3        5.3630   28.6250  -18.0910 C.ar  151  TRP151      0.0001
     37  CH2        5.3860   29.4620  -16.9620 C.ar  151  TRP151      0.0015
     38  N          8.1430   27.2830  -10.1600 N.3   173  ASN173     -0.1240
     39  CA         6.9010   27.7900  -10.7060 C.3   173  ASN173      0.1653
     40  C          6.9540   29.3120  -10.5120 C.2   173  ASN173      0.2266
     41  O          7.8010   29.8240   -9.7510 O.2   173  ASN173     -0.2867
     42  CB         5.7210   27.0990  -10.0080 C.3   173  ASN173      0.1155
     43  CG         4.3520   27.4310  -10.6250 C.2   173  ASN173      0.2627
     44  OD1        4.2410   27.9120  -11.7620 O.2   173  ASN173     -0.2716
     45  ND2        3.2980   27.0540   -9.9120 N.am  173  ASN173     -0.0877
     46  N          3.7550   31.9150  -11.7920 N.3   175  PHE175     -0.1227
     47  CA         2.3590   32.3420  -11.6340 C.3   175  PHE175      0.1736
     48  C          1.6240   31.6300  -10.5030 C.2   175  PHE175      0.2595
     49  O          1.5850   30.3940  -10.4470 O.2   175  PHE175     -0.2718
     50  CB         1.5800   32.1210  -12.9440 C.3   175  PHE175      0.0547
     51  CG         2.1770   32.8340  -14.1240 C.ar  175  PHE175     -0.0202
     52  CD1        1.9910   34.2030  -14.2900 C.ar  175  PHE175     -0.0042
     53  CD2        2.9100   32.1410  -15.0780 C.ar  175  PHE175     -0.0042
     54  CE1        2.5360   34.8730  -15.3780 C.ar  175  PHE175     -0.0003
     55  CE2        3.4670   32.8070  -16.1700 C.ar  175  PHE175     -0.0003
     56  CZ         3.2820   34.1730  -16.3190 C.ar  175  PHE175     -0.0000
     57  N          1.0350   32.4300   -9.6130 N.am  176  GLN176     -0.1979
     58  CA         0.2690   31.9150   -8.4800 C.3   176  GLN176      0.1601
     59  C         -0.8940   32.8080   -8.0730 C.2   176  GLN176      0.2287
     60  O         -1.8210   32.3560   -7.3850 O.2   176  GLN176     -0.2864
     61  CB         1.1660   31.7470   -7.2580 C.3   176  GLN176      0.0394
     62  CG         2.0760   30.5580   -7.2780 C.3   176  GLN176      0.0908
     63  CD         1.3700   29.2870   -6.8620 C.2   176  GLN176      0.2608
     64  OE1        0.2820   28.9760   -7.3570 O.2   176  GLN176     -0.2717
     65  NE2        1.9790   28.5450   -5.9360 N.am  176  GLN176     -0.0878
     66  N         -3.3060   34.8340   -9.6300 N.3   178  GLY178     -0.1225
     67  CA        -4.5220   35.1690  -10.3420 C.3   178  GLY178      0.1811
     68  C         -4.4040   35.9690  -11.6210 C.2   178  GLY178      0.2280
     69  O         -3.3230   36.1460  -12.1790 O.2   178  GLY178     -0.2866
     70  N          4.6780   20.8860   -5.2500 N.3   218  LYS218     -0.1245
     71  CA         3.5500   21.2590   -6.0960 C.3   218  LYS218      0.1561
     72  C          3.9880   21.3130   -7.5440 C.2   218  LYS218      0.2260
     73  O          4.9830   21.9780   -7.8400 O.2   218  LYS218     -0.2867
     74  CB         3.0080   22.6220   -5.6700 C.3   218  LYS218      0.0271
     75  CG         1.9140   23.2190   -6.4840 C.3   218  LYS218      0.0035
     76  CD         1.4570   24.4880   -5.7590 C.3   218  LYS218      0.0206
     77  CE         0.5490   25.3490   -6.5730 C.3   218  LYS218      0.1093
     78  NZ         0.1920   24.8970   -7.9430 N.3   218  LYS218     -0.1314
     79  N          2.4780   21.7480  -11.7580 N.3   220  THR220     -0.1203
     80  CA         1.3660   22.2870  -12.5320 C.3   220  THR220      0.1994
     81  C          1.5560   21.9150  -13.9900 C.2   220  THR220      0.2618
     82  O          2.5960   22.2250  -14.5730 O.2   220  THR220     -0.2717
     83  CB         1.2640   23.8190  -12.4010 C.3   220  THR220      0.1784
     84  OG1        1.1890   24.1640  -11.0100 O.3   220  THR220     -0.2211
     85  CG2       -0.0110   24.3240  -13.0880 C.3   220  THR220      0.0376
     86  N          0.5570   21.2380  -14.5540 N.am  221  ASN221     -0.1960
     87  CA         0.5760   20.8270  -15.9530 C.3   221  ASN221      0.1819
     88  C          0.2210   21.9670  -16.9020 C.2   221  ASN221      0.2621
     89  O         -0.5450   22.8600  -16.5440 O.2   221  ASN221     -0.2715
     90  CB        -0.4410   19.6920  -16.1420 C.3   221  ASN221      0.1195
     91  CG        -0.2690   18.9360  -17.4500 C.2   221  ASN221      0.2630
     92  OD1       -1.0450   19.1150  -18.4030 O.2   221  ASN221     -0.2716
     93  ND2        0.6970   18.0140  -17.4700 N.am  221  ASN221     -0.0877
     94  N          0.7660   21.9170  -18.1200 N.am  222  ALA222     -0.1977
     95  CA         0.2700   22.7480  -19.2180 C.3   222  ALA222      0.1597
     96  C         -0.3480   21.7890  -20.2200 C.2   222  ALA222      0.2287
     97  O          0.3730   21.1480  -20.9900 O.2   222  ALA222     -0.2864
     98  CB         1.4040   23.5570  -19.8710 C.3   222  ALA222      0.0319
     99  N         -1.8860   21.8780  -22.9710 N.3   224  ASP224     -0.1239
    100  CA        -1.6300   22.0060  -24.3980 C.3   224  ASP224      0.1674
    101  C         -0.2900   21.3670  -24.7710 C.2   224  ASP224      0.2266
    102  O         -0.1390   20.8400  -25.8760 O.2   224  ASP224     -0.2867
    103  CB        -1.7000   23.4830  -24.8470 C.3   224  ASP224      0.1410
    104  CG        -0.6680   24.3760  -24.1700 C.2   224  ASP224      0.3668
    105  OD1       -0.3540   24.1640  -22.9720 O.co2 224  ASP224     -0.2456
    106  OD2       -0.1890   25.3270  -24.8440 O.co2 224  ASP224     -0.2456
    107  N        -11.7760   22.8660  -11.3490 N.3   268  LYS268     -0.1245
    108  CA       -10.6920   22.9900  -10.3730 C.3   268  LYS268      0.1561
    109  C        -10.9170   22.1650   -9.1100 C.2   268  LYS268      0.2260
    110  O        -10.0250   21.4310   -8.6600 O.2   268  LYS268     -0.2867
    111  CB       -10.5090   24.4580   -9.9950 C.3   268  LYS268      0.0271
    112  CG        -9.2360   24.7190   -9.1920 C.3   268  LYS268      0.0035
    113  CD        -9.0270   26.2280   -9.0240 C.3   268  LYS268      0.0206
    114  CE        -7.6620   26.4990   -8.3880 C.3   268  LYS268      0.1093
    115  NZ        -7.4840   27.9700   -8.1370 N.3   268  LYS268     -0.1314
    116  N         -6.9010   24.9910  -18.3900 N.3   292  TRP292     -0.1227
    117  CA        -5.6610   25.7620  -18.3250 C.3   292  TRP292      0.1737
    118  C         -4.5500   25.0140  -17.6130 C.2   292  TRP292      0.2595
    119  O         -3.3630   25.2500  -17.8780 O.2   292  TRP292     -0.2718
    120  CB        -5.8890   27.0900  -17.6190 C.3   292  TRP292      0.0564
    121  CG        -4.7790   28.0820  -17.8640 C.ar  292  TRP292      0.0003
    122  CD1       -3.8130   28.4580  -16.9830 C.ar  292  TRP292      0.0946
    123  CD2       -4.5470   28.8420  -19.0610 C.ar  292  TRP292      0.0152
    124  NE1       -2.9860   29.4030  -17.5500 N.ar  292  TRP292     -0.2442
    125  CE2       -3.4170   29.6580  -18.8260 C.ar  292  TRP292      0.0810
    126  CE3       -5.1840   28.9140  -20.3030 C.ar  292  TRP292      0.0012
    127  CZ2       -2.9130   30.5400  -19.7870 C.ar  292  TRP292      0.0191
    128  CZ3       -4.6740   29.7960  -21.2670 C.ar  292  TRP292      0.0001
    129  CH2       -3.5530   30.5930  -20.9970 C.ar  292  TRP292      0.0015
    130  N         -4.9390   24.1250  -16.7030 N.am  293  TYR293     -0.1976
    131  CA        -3.9800   23.2720  -15.9900 C.3   293  TYR293      0.1639
    132  C         -4.6910   22.2240  -15.1710 C.2   293  TYR293      0.2290
    133  O         -5.8640   22.3980  -14.7940 O.2   293  TYR293     -0.2864
    134  CB        -3.0990   24.0970  -15.0300 C.3   293  TYR293      0.0560
    135  CG        -3.9050   24.9160  -14.0240 C.ar  293  TYR293     -0.0198
    136  CD1       -4.3080   24.3650  -12.8070 C.ar  293  TYR293     -0.0009
    137  CD2       -4.2850   26.2170  -14.3020 C.ar  293  TYR293     -0.0009
    138  CE1       -5.0510   25.1020  -11.8940 C.ar  293  TYR293      0.0417
    139  CE2       -5.0390   26.9600  -13.3890 C.ar  293  TYR293      0.0417
    140  CZ        -5.4130   26.3960  -12.1940 C.ar  293  TYR293      0.1957
    141  OH        -6.1470   27.1400  -11.2830 O.3   293  TYR293     -0.2866
    142  N        -11.0910   26.9040  -15.9340 N.3   312  HIS312     -0.1241
    143  CA       -10.9310   27.8190  -17.0650 C.3   312  HIS312      0.1621
    144  C        -10.4490   27.1010  -18.3230 C.2   312  HIS312      0.2264
    145  O         -9.6130   26.2110  -18.2330 O.2   312  HIS312     -0.2867
    146  CB        -9.9460   28.9380  -16.7120 C.3   312  HIS312      0.0745
    147  CG       -10.2070   29.5900  -15.3870 C.ar  312  HIS312      0.0817
    148  ND1      -11.4600   30.0180  -14.9940 N.ar  312  HIS312     -0.2268
    149  CD2       -9.3660   29.9010  -14.3710 C.ar  312  HIS312      0.1154
    150  CE1      -11.3810   30.5550  -13.7880 C.ar  312  HIS312      0.1986
    151  NE2      -10.1200   30.4990  -13.3880 N.ar  312  HIS312     -0.2212
    152  N         -5.6680   26.1930  -26.3000 N.3   317  TYR317     -0.1241
    153  CA        -5.0650   24.9840  -25.7300 C.3   317  TYR317      0.1605
    154  C         -5.6020   23.6980  -26.3400 C.2   317  TYR317      0.2264
    155  O         -5.0220   22.6300  -26.1470 O.2   317  TYR317     -0.2867
    156  CB        -5.3230   24.9200  -24.2250 C.3   317  TYR317      0.0534
    157  CG        -4.3180   25.6580  -23.3810 C.ar  317  TYR317     -0.0201
    158  CD1       -3.6770   26.7950  -23.8580 C.ar  317  TYR317     -0.0009
    159  CD2       -4.0320   25.2250  -22.0860 C.ar  317  TYR317     -0.0009
    160  CE1       -2.7630   27.4800  -23.0640 C.ar  317  TYR317      0.0417
    161  CE2       -3.1340   25.9100  -21.2810 C.ar  317  TYR317      0.0417
    162  CZ        -2.4980   27.0290  -21.7820 C.ar  317  TYR317      0.1957
    163  OH        -1.5860   27.7030  -20.9940 O.3   317  TYR317     -0.2866
    164  N         -8.3790   33.2150  -17.8550 N.3   396  VAL396     -0.1231
    165  CA        -7.3030   33.1090  -16.8640 C.3   396  VAL396      0.1692
    166  C         -6.5340   34.4210  -16.6340 C.2   396  VAL396      0.2592
    167  O         -6.3930   34.8450  -15.4820 O.2   396  VAL396     -0.2718
    168  CB        -6.3040   31.9890  -17.2200 C.3   396  VAL396      0.0266
    169  CG1       -5.3830   31.7390  -16.0470 C.3   396  VAL396      0.0020
    170  CG2       -7.0450   30.6920  -17.5710 C.3   396  VAL396      0.0020
    171  N         -6.0490   35.0550  -17.7070 N.am  397  TYR397     -0.1976
    172  CA        -5.1850   36.2420  -17.5740 C.3   397  TYR397      0.1639
    173  C         -5.6560   37.4600  -18.3490 C.2   397  TYR397      0.2290
    174  O         -6.1430   37.3460  -19.4700 O.2   397  TYR397     -0.2864
    175  CB        -3.7600   35.9250  -18.0250 C.3   397  TYR397      0.0560
    176  CG        -3.0770   34.9460  -17.1190 C.ar  397  TYR397     -0.0198
    177  CD1       -2.7220   35.3020  -15.8200 C.ar  397  TYR397     -0.0009
    178  CD2       -2.8010   33.6620  -17.5460 C.ar  397  TYR397     -0.0009
    179  CE1       -2.0990   34.4010  -14.9790 C.ar  397  TYR397      0.0417
    180  CE2       -2.1840   32.7590  -16.7160 C.ar  397  TYR397      0.0417
    181  CZ        -1.8340   33.1300  -15.4330 C.ar  397  TYR397      0.1957
    182  OH        -1.2300   32.2160  -14.6050 O.3   397  TYR397     -0.2866
@<TRIPOS>BOND
     1   154   155    2
     2   154   153    1
     3   152   153    1
     4     9     8    2
     5   102   101    2
     6   153   156    1
     7    11    12    1
     8    11    10    1
     9    13    12   ar
    10    12    14   ar
    11     8     7    1
    12   103   100    1
    13   103   104    1
    14   106   104   ar
    15   101   100    1
    16   100    99    1
    17    10     7    1
    18     7     6    1
    19   156   157    1
    20   104   105   ar
    21   158   157   ar
    22   158   160   ar
    23   157   159   ar
    24   160   162   ar
    25   159   161   ar
    26   162   161   ar
    27   162   163    1
    28   128   129   ar
    29   128   126   ar
    30     5     2    1
    31   129   127   ar
    32    97    96    2
    33     1     2    1
    34   126   123   ar
    35    96    95    1
    36     2     3    1
    37    98    95    1
    38   127   125   ar
    39   174   173    2
    40    95    94    1
    41     3     4    2
    42   123   125   ar
    43   123   121   ar
    44   125   124   ar
    45    92    91    2
    46   116   117    1
    47   173   172    1
    48   117   120    1
    49   117   118    1
    50   144   145    2
    51   144   143    1
    52    27    26    2
    53    94    88   am
    54    36    34   ar
    55    36    37   ar
    56   175   172    1
    57   175   176    1
    58    34    31   ar
    59   119   118    2
    60   121   120    1
    61   121   122   ar
    62   164   165    1
    63   171   172    1
    64   171   166   am
    65   118   130   am
    66   170   168    1
    67   124   122   ar
    68   178   176   ar
    69   178   180   ar
    70    93    91   am
    71    91    90    1
    72   168   165    1
    73   168   169    1
    74    26    25    1
    75   176   177   ar
    76    25    28    1
    77    25    24    1
    78    28    29    1
    79   143   146    1
    80   143   142    1
    81    37    35   ar
    82    88    89    2
    83    88    87    1
    84   165   166    1
    85   180   181   ar
    86    31    29   ar
    87    31    33   ar
    88   146   147    1
    89   130   131    1
    90   166   167    2
    91    56    55   ar
    92    56    54   ar
    93    29    30   ar
    94    55    53   ar
    95    90    87    1
    96   131   132    1
    97   131   134    1
    98    87    86    1
    99   177   179   ar
   100    35    33   ar
   101    33    32   ar
   102   181   179   ar
   103   181   182    1
   104   147   148   ar
   105   147   149   ar
   106    54    52   ar
   107   132   133    2
   108    53    51   ar
   109   134   135    1
   110   148   150   ar
   111    30    32   ar
   112    82    81    2
   113    86    81   am
   114   149   151   ar
   115   137   135   ar
   116   137   139   ar
   117    52    51   ar
   118    51    50    1
   119   135   136   ar
   120    81    80    1
   121   150   151   ar
   122   139   140   ar
   123    85    83    1
   124    50    47    1
   125   136   138   ar
   126    80    83    1
   127    80    79    1
   128    83    84    1
   129   140   138   ar
   130   140   141    1
   131    69    68    2
   132    46    47    1
   133    44    43    2
   134    47    48    1
   135    68    67    1
   136   107   108    1
   137    22    21   ar
   138    39    40    1
   139    39    38    1
   140    39    42    1
   141    43    42    1
   142    43    45   am
   143    40    41    2
   144    48    49    2
   145    48    57   am
   146   108   111    1
   147   108   109    1
   148    67    66    1
   149    23    21   ar
   150   111   112    1
   151    21    20    1
   152    57    58    1
   153   112   113    1
   154   109   110    2
   155   113   114    1
   156    20    19    1
   157    58    59    1
   158    58    61    1
   159   114   115    1
   160    19    16    1
   161    59    60    2
   162    78    77    1
   163    73    72    2
   164    72    71    1
   165    64    63    2
   166    62    61    1
   167    62    63    1
   168    16    17    1
   169    16    15    1
   170    63    65   am
   171    17    18    2
   172    77    76    1
   173    75    76    1
   174    75    74    1
   175    71    74    1
   176    71    70    1
