@<TRIPOS>MOLECULE
tmp/4xwmA02.pdb
 161 155 0 0 0
SMALL
GASTEIGER

@<TRIPOS>ATOM
      1  N         -8.7750   18.1040   -2.6110 N.3   106  ALA106     -0.1231
      2  CA        -8.0500   19.3280   -2.2970 C.3   106  ALA106      0.1694
      3  C         -8.8980   20.1990   -1.3910 C.2   106  ALA106      0.2592
      4  O        -10.0400   19.8630   -1.1090 O.2   106  ALA106     -0.2718
      5  CB        -7.6840   20.0840   -3.5730 C.3   106  ALA106      0.0304
      6  N         -8.3200   21.2950   -0.9130 N.am  107  THR107     -0.1953
      7  CA        -9.0610   22.2660   -0.1100 C.3   107  THR107      0.1897
      8  C         -9.2920   23.5380   -0.9110 C.2   107  THR107      0.2313
      9  O         -8.3480   24.1000   -1.4800 O.2   107  THR107     -0.2863
     10  CB        -8.2960   22.6190    1.1760 C.3   107  THR107      0.1794
     11  OG1       -8.0710   21.4240    1.9330 O.3   107  THR107     -0.2208
     12  CG2       -9.0780   23.6260    2.0110 C.3   107  THR107      0.0378
     13  N         -7.3040   29.2110    2.8080 N.3   122  LEU122     -0.1245
     14  CA        -7.9020   27.8870    2.6240 C.3   122  LEU122      0.1561
     15  C         -9.2130   27.8230    3.3800 C.2   122  LEU122      0.2260
     16  O         -9.2780   28.2170    4.5450 O.2   122  LEU122     -0.2867
     17  CB        -6.9780   26.7730    3.1210 C.3   122  LEU122      0.0270
     18  CG        -5.6830   26.5600    2.3600 C.3   122  LEU122      0.0019
     19  CD1       -4.8900   25.4240    2.9900 C.3   122  LEU122      0.0001
     20  CD2       -5.9680   26.2810    0.8780 C.3   122  LEU122      0.0001
     21  N        -11.6210   25.1820    4.6630 N.3   124  PHE124     -0.1241
     22  CA       -11.7530   23.7390    4.8300 C.3   124  PHE124      0.1605
     23  C        -13.1990   23.2460    4.7990 C.2   124  PHE124      0.2264
     24  O        -13.4470   22.0590    4.5730 O.2   124  PHE124     -0.2867
     25  CB       -11.0410   23.3010    6.1160 C.3   124  PHE124      0.0534
     26  CG        -9.5460   23.4500    6.0310 C.ar  124  PHE124     -0.0203
     27  CD1       -8.7650   22.4370    5.4940 C.ar  124  PHE124     -0.0042
     28  CD2       -8.9270   24.6120    6.4540 C.ar  124  PHE124     -0.0042
     29  CE1       -7.3890   22.5770    5.3960 C.ar  124  PHE124     -0.0003
     30  CE2       -7.5470   24.7540    6.3600 C.ar  124  PHE124     -0.0003
     31  CZ        -6.7850   23.7400    5.8290 C.ar  124  PHE124     -0.0000
     32  N          1.0350   32.4300   -9.6130 N.3   176  GLN176     -0.1245
     33  CA         0.2690   31.9150   -8.4800 C.3   176  GLN176      0.1566
     34  C         -0.8940   32.8080   -8.0730 C.2   176  GLN176      0.2260
     35  O         -1.8210   32.3560   -7.3850 O.2   176  GLN176     -0.2867
     36  CB         1.1660   31.7470   -7.2580 C.3   176  GLN176      0.0367
     37  CG         2.0760   30.5580   -7.2780 C.3   176  GLN176      0.0905
     38  CD         1.3700   29.2870   -6.8620 C.2   176  GLN176      0.2608
     39  OE1        0.2820   28.9760   -7.3570 O.2   176  GLN176     -0.2717
     40  NE2        1.9790   28.5450   -5.9360 N.am  176  GLN176     -0.0878
     41  N          5.4190   29.7580    0.7130 N.3   204  LEU204     -0.1245
     42  CA         4.0590   29.2290    0.7330 C.3   204  LEU204      0.1561
     43  C          2.9990   30.2530    1.1470 C.2   204  LEU204      0.2260
     44  O          1.9070   30.2970    0.5550 O.2   204  LEU204     -0.2867
     45  CB         3.9920   28.0250    1.6790 C.3   204  LEU204      0.0270
     46  CG         4.9020   26.8510    1.3010 C.3   204  LEU204      0.0019
     47  CD1        5.0340   25.8900    2.4850 C.3   204  LEU204      0.0001
     48  CD2        4.3640   26.1040    0.0900 C.3   204  LEU204      0.0001
     49  N         -1.0480   30.9660   -0.2180 N.3   208  THR208     -0.1218
     50  CA        -2.1710   30.3560    0.4900 C.3   208  THR208      0.1862
     51  C         -2.1320   30.6960    1.9700 C.2   208  THR208      0.2287
     52  O         -1.0740   30.7900    2.5910 O.2   208  THR208     -0.2866
     53  CB        -2.1980   28.8250    0.3330 C.3   208  THR208      0.1770
     54  OG1       -1.0330   28.2630    0.9420 O.3   208  THR208     -0.2211
     55  CG2       -2.2430   28.4370   -1.1390 C.3   208  THR208      0.0375
     56  N         -3.0760   29.7680    5.7760 N.3   210  ASP210     -0.1239
     57  CA        -3.3590   28.6570    6.6830 C.3   210  ASP210      0.1674
     58  C         -2.7140   28.9850    8.0320 C.2   210  ASP210      0.2266
     59  O         -1.9290   29.9300    8.1290 O.2   210  ASP210     -0.2867
     60  CB        -2.8210   27.3450    6.1100 C.3   210  ASP210      0.1410
     61  CG        -3.5040   26.1150    6.6930 C.2   210  ASP210      0.3668
     62  OD1       -4.3050   26.2520    7.6440 O.co2 210  ASP210     -0.2456
     63  OD2       -3.2270   25.0060    6.1850 O.co2 210  ASP210     -0.2456
     64  N         -0.7650   26.9820    9.7520 N.3   212  GLN212     -0.1231
     65  CA         0.5870   26.4350    9.7740 C.3   212  GLN212      0.1698
     66  C          0.9740   25.9370    8.3910 C.2   212  GLN212      0.2592
     67  O          0.1210   25.7690    7.5130 O.2   212  GLN212     -0.2718
     68  CB         0.7160   25.2900   10.7800 C.3   212  GLN212      0.0381
     69  CG         0.1810   23.9630   10.2730 C.3   212  GLN212      0.0905
     70  CD        -1.3280   23.9260   10.2170 C.2   212  GLN212      0.2608
     71  OE1       -2.0060   24.5370   11.0460 O.2   212  GLN212     -0.2717
     72  NE2       -1.8670   23.2150    9.2320 N.am  212  GLN212     -0.0878
     73  N          2.2660   25.7020    8.2000 N.am  213  TYR213     -0.1962
     74  CA         2.7850   25.3540    6.8860 C.3   213  TYR213      0.1771
     75  C          3.8030   24.2470    7.0300 C.2   213  TYR213      0.2619
     76  O          4.6480   24.2940    7.9310 O.2   213  TYR213     -0.2715
     77  CB         3.4380   26.5710    6.2190 C.3   213  TYR213      0.0574
     78  CG         2.4620   27.6870    5.9380 C.ar  213  TYR213     -0.0198
     79  CD1        1.7740   27.7340    4.7360 C.ar  213  TYR213     -0.0009
     80  CD2        2.2200   28.6740    6.8790 C.ar  213  TYR213     -0.0009
     81  CE1        0.8650   28.7480    4.4730 C.ar  213  TYR213      0.0417
     82  CE2        1.3080   29.6980    6.6290 C.ar  213  TYR213      0.0417
     83  CZ         0.6380   29.7200    5.4270 C.ar  213  TYR213      0.1957
     84  OH        -0.2590   30.7320    5.1690 O.3   213  TYR213     -0.2866
     85  N          3.7230   23.2500    6.1580 N.am  214  ALA214     -0.1977
     86  CA         4.6990   22.1640    6.1670 C.3   214  ALA214      0.1597
     87  C          5.4340   22.0920    4.8330 C.2   214  ALA214      0.2287
     88  O          4.9230   22.5560    3.8100 O.2   214  ALA214     -0.2864
     89  CB         4.0160   20.8400    6.4620 C.3   214  ALA214      0.0319
     90  N          6.6060   20.8310    1.3100 N.3   216  GLN216     -0.1245
     91  CA         5.6720   20.2340    0.3580 C.3   216  GLN216      0.1566
     92  C          6.1090   20.4460   -1.0710 C.2   216  GLN216      0.2260
     93  O          6.9370   21.3120   -1.3520 O.2   216  GLN216     -0.2867
     94  CB         4.2720   20.8270    0.5540 C.3   216  GLN216      0.0367
     95  CG         4.2470   22.3550    0.4730 C.3   216  GLN216      0.0905
     96  CD         2.8890   22.9310    0.8140 C.2   216  GLN216      0.2608
     97  OE1        2.0880   23.2090   -0.0850 O.2   216  GLN216     -0.2717
     98  NE2        2.6230   23.1260    2.1010 N.am  216  GLN216     -0.0878
     99  N          4.6780   20.8860   -5.2500 N.3   218  LYS218     -0.1245
    100  CA         3.5500   21.2590   -6.0960 C.3   218  LYS218      0.1561
    101  C          3.9880   21.3130   -7.5440 C.2   218  LYS218      0.2260
    102  O          4.9830   21.9780   -7.8400 O.2   218  LYS218     -0.2867
    103  CB         3.0080   22.6220   -5.6700 C.3   218  LYS218      0.0271
    104  CG         1.9140   23.2190   -6.4840 C.3   218  LYS218      0.0035
    105  CD         1.4570   24.4880   -5.7590 C.3   218  LYS218      0.0206
    106  CE         0.5490   25.3490   -6.5730 C.3   218  LYS218      0.1093
    107  NZ         0.1920   24.8970   -7.9430 N.3   218  LYS218     -0.1314
    108  N        -12.1010   22.3150   -8.5190 N.3   269  TYR269     -0.1241
    109  CA       -12.4310   21.6080   -7.2850 C.3   269  TYR269      0.1605
    110  C        -13.5350   20.5920   -7.5210 C.2   269  TYR269      0.2264
    111  O        -14.3330   20.3010   -6.6130 O.2   269  TYR269     -0.2867
    112  CB       -12.8140   22.6060   -6.1790 C.3   269  TYR269      0.0534
    113  CG       -11.6100   23.4220   -5.7730 C.ar  269  TYR269     -0.0201
    114  CD1      -10.5770   22.8380   -5.0470 C.ar  269  TYR269     -0.0009
    115  CD2      -11.4780   24.7540   -6.1570 C.ar  269  TYR269     -0.0009
    116  CE1       -9.4520   23.5590   -4.6940 C.ar  269  TYR269      0.0417
    117  CE2      -10.3500   25.4830   -5.8070 C.ar  269  TYR269      0.0417
    118  CZ        -9.3440   24.8810   -5.0780 C.ar  269  TYR269      0.1957
    119  OH        -8.2180   25.6010   -4.7280 O.3   269  TYR269     -0.2866
    120  N          0.8390   13.1380    2.6000 N.3   304  TRP304     -0.1227
    121  CA        -0.4790   13.6440    2.2240 C.3   304  TRP304      0.1737
    122  C         -0.3840   14.2090    0.8210 C.2   304  TRP304      0.2596
    123  O          0.7030   14.5780    0.3560 O.2   304  TRP304     -0.2718
    124  CB        -0.9580   14.7400    3.1900 C.3   304  TRP304      0.0564
    125  CG         0.0710   15.8330    3.4410 C.ar  304  TRP304      0.0003
    126  CD1        1.0860   15.8120    4.3520 C.ar  304  TRP304      0.0946
    127  CD2        0.1680   17.1030    2.7650 C.ar  304  TRP304      0.0152
    128  NE1        1.8100   16.9860    4.2890 N.ar  304  TRP304     -0.2442
    129  CE2        1.2640   17.7930    3.3260 C.ar  304  TRP304      0.0810
    130  CE3       -0.5680   17.7210    1.7510 C.ar  304  TRP304      0.0012
    131  CZ2        1.6530   19.0680    2.8920 C.ar  304  TRP304      0.0191
    132  CZ3       -0.1860   18.9940    1.3250 C.ar  304  TRP304      0.0001
    133  CH2        0.9120   19.6510    1.9000 C.ar  304  TRP304      0.0015
    134  N         -1.5100   14.2810    0.1230 N.am  305  SER305     -0.1938
    135  CA        -1.4580   14.8160   -1.2380 C.3   305  SER305      0.2055
    136  C         -2.8060   15.3450   -1.6830 C.2   305  SER305      0.2643
    137  O         -3.8370   15.0610   -1.0610 O.2   305  SER305     -0.2714
    138  CB        -0.9450   13.7620   -2.2360 C.3   305  SER305      0.2130
    139  OG        -1.7590   12.5990   -2.2530 O.3   305  SER305     -0.2179
    140  N         -2.7810   16.1140   -2.7680 N.am  306  TRP306     -0.1973
    141  CA        -3.9790   16.7550   -3.2840 C.3   306  TRP306      0.1640
    142  C         -3.8570   16.8970   -4.8000 C.2   306  TRP306      0.2290
    143  O         -2.7460   16.8480   -5.3590 O.2   306  TRP306     -0.2864
    144  CB        -4.1690   18.1420   -2.6280 C.3   306  TRP306      0.0576
    145  CG        -2.9530   19.0360   -2.8140 C.ar  306  TRP306      0.0006
    146  CD1       -1.8920   19.1790   -1.9510 C.ar  306  TRP306      0.0946
    147  CD2       -2.6750   19.8950   -3.9340 C.ar  306  TRP306      0.0152
    148  NE1       -0.9760   20.0720   -2.4710 N.ar  306  TRP306     -0.2442
    149  CE2       -1.4320   20.5210   -3.6850 C.ar  306  TRP306      0.0810
    150  CE3       -3.3530   20.1850   -5.1250 C.ar  306  TRP306      0.0012
    151  CZ2       -0.8530   21.4220   -4.5860 C.ar  306  TRP306      0.0191
    152  CZ3       -2.7750   21.0810   -6.0190 C.ar  306  TRP306      0.0001
    153  CH2       -1.5430   21.6940   -5.7380 C.ar  306  TRP306      0.0015
    154  N         -5.8840   19.1770   -8.2000 N.3   308  ILE308     -0.1245
    155  CA        -6.9240   20.0700   -8.7090 C.3   308  ILE308      0.1561
    156  C         -6.9460   20.0400  -10.2340 C.2   308  ILE308      0.2260
    157  O         -5.9380   19.7400  -10.8860 O.2   308  ILE308     -0.2867
    158  CB        -6.7320   21.5290   -8.2480 C.3   308  ILE308      0.0252
    159  CG1       -5.3980   22.0880   -8.7620 C.3   308  ILE308      0.0019
    160  CG2       -6.8290   21.6440   -6.7210 C.3   308  ILE308      0.0019
    161  CD1       -5.1210   23.5070   -8.2750 C.3   308  ILE308      0.0001
@<TRIPOS>BOND
     1   157   156    2
     2   156   155    1
     3    32    33    1
     4   159   161    1
     5   159   158    1
     6   155   158    1
     7   155   154    1
     8   108   109    1
     9    33    34    1
    10    33    36    1
    11   158   160    1
    12    34    35    2
    13   107   106    1
    14   102   101    2
    15   101   100    1
    16   110   109    1
    17   110   111    2
    18    39    38    2
    19   109   112    1
    20    37    36    1
    21    37    38    1
    22    38    40   am
    23   106   105    1
    24   104   105    1
    25   104   103    1
    26   112   113    1
    27   115   117   ar
    28   115   113   ar
    29   100   103    1
    30   100    99    1
    31   152   153   ar
    32   152   150   ar
    33   117   118   ar
    34   113   114   ar
    35   153   151   ar
    36   143   142    2
    37   150   147   ar
    38   118   119    1
    39   118   116   ar
    40   114   116   ar
    41   142   141    1
    42   151   149   ar
    43   147   149   ar
    44   147   145   ar
    45   149   148   ar
    46     5     2    1
    47   141   140    1
    48   141   144    1
    49   145   144    1
    50   145   146   ar
    51   140   136   am
    52     1     2    1
    53   148   146   ar
    54     2     3    1
    55   139   138    1
    56   138   135    1
    57   136   135    1
    58   136   137    2
    59     9     8    2
    60     3     4    2
    61     3     6   am
    62    93    92    2
    63   135   134    1
    64    55    53    1
    65    92    91    1
    66     6     7    1
    67     8     7    1
    68    49    50    1
    69     7    10    1
    70    97    96    2
    71    48    46    1
    72   134   122   am
    73    53    50    1
    74    53    54    1
    75   123   122    2
    76    91    94    1
    77    91    90    1
    78    95    94    1
    79    95    96    1
    80    50    51    1
    81    44    43    2
    82    41    42    1
    83    42    43    1
    84    42    45    1
    85    96    98   am
    86   122   121    1
    87    20    18    1
    88    10    11    1
    89    10    12    1
    90    46    45    1
    91    46    47    1
    92   132   130   ar
    93   132   133   ar
    94   130   127   ar
    95   133   131   ar
    96    51    52    2
    97   121   120    1
    98   121   124    1
    99    18    19    1
   100    18    17    1
   101    14    13    1
   102    14    17    1
   103    14    15    1
   104   127   129   ar
   105   127   125   ar
   106   131   129   ar
   107   124   125    1
   108   129   128   ar
   109    15    16    2
   110   125   126   ar
   111    88    87    2
   112   128   126   ar
   113    81    79   ar
   114    81    83   ar
   115    24    23    2
   116    21    22    1
   117    79    78   ar
   118    23    22    1
   119    22    25    1
   120    87    86    1
   121    84    83    1
   122    29    27   ar
   123    29    31   ar
   124    83    82   ar
   125    27    26   ar
   126    56    57    1
   127    31    30   ar
   128    78    77    1
   129    78    80   ar
   130    26    25    1
   131    26    28   ar
   132    60    57    1
   133    60    61    1
   134    85    86    1
   135    85    75   am
   136    86    89    1
   137    63    61   ar
   138    77    74    1
   139    30    28   ar
   140    82    80   ar
   141    57    58    1
   142    61    62   ar
   143    74    75    1
   144    74    73    1
   145    75    76    2
   146    67    66    2
   147    58    59    2
   148    73    66   am
   149    66    65    1
   150    72    70   am
   151    64    65    1
   152    65    68    1
   153    70    69    1
   154    70    71    2
   155    69    68    1
