@<TRIPOS>MOLECULE
tmp/4xwnA04.pdb
 137 132 0 0 0
SMALL
GASTEIGER

@<TRIPOS>ATOM
      1  N        -10.0950   27.2380   -2.1270 N.3   111  ALA111     -0.1245
      2  CA        -9.6810   28.6200   -1.8870 C.3   111  ALA111      0.1562
      3  C        -10.0930   29.4690   -3.0830 C.2   111  ALA111      0.2260
      4  O        -10.0420   29.0120   -4.2290 O.2   111  ALA111     -0.2867
      5  CB        -8.1820   28.7190   -1.6470 C.3   111  ALA111      0.0290
      6  N         -9.9850   32.3580   -5.9800 N.3   113  GLU113     -0.1245
      7  CA        -9.0680   33.1790   -6.7540 C.3   113  GLU113      0.1567
      8  C         -9.5210   34.6370   -6.6060 C.2   113  GLU113      0.2260
      9  O        -10.7020   34.8940   -6.3670 O.2   113  GLU113     -0.2867
     10  CB        -9.0540   32.7520   -8.2180 C.3   113  GLU113      0.0388
     11  CG        -8.6550   31.3070   -8.4460 C.3   113  GLU113      0.1160
     12  CD        -8.9020   30.8310   -9.8800 C.2   113  GLU113      0.3649
     13  OE1       -9.2620   31.6620  -10.7490 O.co2 113  GLU113     -0.2457
     14  OE2       -8.6970   29.6270  -10.1480 O.co2 113  GLU113     -0.2457
     15  N          8.0590   27.0660  -10.0910 N.3   175  ASN175     -0.1240
     16  CA         6.8050   27.6070  -10.5800 C.3   175  ASN175      0.1653
     17  C          6.7920   29.1250  -10.4140 C.2   175  ASN175      0.2266
     18  O          7.6230   29.6690   -9.6830 O.2   175  ASN175     -0.2867
     19  CB         5.6250   26.9400   -9.8710 C.3   175  ASN175      0.1155
     20  CG         4.2970   27.3760  -10.4360 C.2   175  ASN175      0.2627
     21  OD1        4.0730   27.2610  -11.6390 O.2   175  ASN175     -0.2716
     22  ND2        3.4000   27.8490   -9.5820 N.am  175  ASN175     -0.0877
     23  N          3.4830   31.7080  -11.6220 N.3   177  PHE177     -0.1227
     24  CA         2.1060   32.1650  -11.4400 C.3   177  PHE177      0.1736
     25  C          1.4150   31.4960  -10.2630 C.2   177  PHE177      0.2595
     26  O          1.3800   30.2680  -10.1750 O.2   177  PHE177     -0.2718
     27  CB         1.3020   31.9110  -12.7140 C.3   177  PHE177      0.0547
     28  CG         1.8800   32.5700  -13.9310 C.ar  177  PHE177     -0.0202
     29  CD1        1.7100   33.9280  -14.1440 C.ar  177  PHE177     -0.0042
     30  CD2        2.6230   31.8420  -14.8450 C.ar  177  PHE177     -0.0042
     31  CE1        2.2550   34.5420  -15.2600 C.ar  177  PHE177     -0.0003
     32  CE2        3.1710   32.4480  -15.9620 C.ar  177  PHE177     -0.0003
     33  CZ         2.9900   33.8020  -16.1700 C.ar  177  PHE177     -0.0000
     34  N          0.8530   32.3090   -9.3640 N.am  178  GLN178     -0.1979
     35  CA         0.1480   31.7770   -8.2020 C.3   178  GLN178      0.1601
     36  C         -1.0260   32.6540   -7.7700 C.2   178  GLN178      0.2287
     37  O         -1.8990   32.2080   -7.0270 O.2   178  GLN178     -0.2864
     38  CB         1.1090   31.6530   -7.0240 C.3   178  GLN178      0.0394
     39  CG         2.0400   30.4660   -7.0760 C.3   178  GLN178      0.0908
     40  CD         1.4020   29.1760   -6.6310 C.2   178  GLN178      0.2608
     41  OE1        1.5220   28.1590   -7.3140 O.2   178  GLN178     -0.2717
     42  NE2        0.7340   29.1960   -5.4790 N.am  178  GLN178     -0.0878
     43  N         -1.0980   30.8520   -0.1760 N.3   210  THR210     -0.1218
     44  CA        -2.1850   30.1660    0.5110 C.3   210  THR210      0.1862
     45  C         -2.1890   30.4800    2.0020 C.2   210  THR210      0.2287
     46  O         -1.1430   30.5030    2.6470 O.2   210  THR210     -0.2866
     47  CB        -2.0740   28.6360    0.3120 C.3   210  THR210      0.1770
     48  OG1       -2.2240   28.3210   -1.0770 O.3   210  THR210     -0.2211
     49  CG2       -3.1350   27.9000    1.0960 C.3   210  THR210      0.0375
     50  N          4.5060   20.6160   -5.1250 N.3   220  LYS220     -0.1231
     51  CA         3.3140   20.9490   -5.9010 C.3   220  LYS220      0.1693
     52  C          3.7710   21.1130   -7.3590 C.2   220  LYS220      0.2592
     53  O          4.7310   21.8450   -7.6500 O.2   220  LYS220     -0.2718
     54  CB         2.5960   22.1330   -5.2260 C.3   220  LYS220      0.0285
     55  CG         3.5220   22.8690   -4.2840 C.3   220  LYS220      0.0035
     56  CD         3.0650   24.1550   -3.6270 C.3   220  LYS220      0.0206
     57  CE         2.2370   25.1120   -4.3890 C.3   220  LYS220      0.1093
     58  NZ         1.4660   25.8260   -3.3250 N.3   220  LYS220     -0.1314
     59  N          3.0840   20.4440   -8.2780 N.am  221  TYR221     -0.1962
     60  CA         3.3700   20.5030   -9.7150 C.3   221  TYR221      0.1771
     61  C          2.1530   20.9040  -10.5160 C.2   221  TYR221      0.2620
     62  O          1.0220   20.6250  -10.1140 O.2   221  TYR221     -0.2715
     63  CB         3.8960   19.1470  -10.1850 C.3   221  TYR221      0.0574
     64  CG         5.1240   18.7210   -9.4180 C.ar  221  TYR221     -0.0198
     65  CD1        5.0430   17.7490   -8.4220 C.ar  221  TYR221     -0.0009
     66  CD2        6.3420   19.3550   -9.6140 C.ar  221  TYR221     -0.0009
     67  CE1        6.1500   17.3790   -7.6840 C.ar  221  TYR221      0.0417
     68  CE2        7.4570   18.9950   -8.8760 C.ar  221  TYR221      0.0417
     69  CZ         7.3530   18.0080   -7.9120 C.ar  221  TYR221      0.1957
     70  OH         8.4560   17.6530   -7.1720 O.3   221  TYR221     -0.2866
     71  N          2.3910   21.5450  -11.6510 N.am  222  THR222     -0.1951
     72  CA         1.3040   22.0270  -12.4730 C.3   222  THR222      0.1897
     73  C          1.5040   21.6600  -13.9510 C.2   222  THR222      0.2313
     74  O          2.5210   21.9960  -14.5610 O.2   222  THR222     -0.2863
     75  CB         1.1690   23.5440  -12.3750 C.3   222  THR222      0.1794
     76  OG1        1.0840   23.9410  -10.9990 O.3   222  THR222     -0.2208
     77  CG2       -0.0420   23.9960  -13.1360 C.3   222  THR222      0.0378
     78  N        -12.0100   22.7690  -11.4010 N.3   270  LYS270     -0.1231
     79  CA       -10.9460   22.8890  -10.4040 C.3   270  LYS270      0.1693
     80  C        -11.1880   22.0930   -9.1340 C.2   270  LYS270      0.2592
     81  O        -10.3410   21.3150   -8.7280 O.2   270  LYS270     -0.2718
     82  CB       -10.7510   24.3600  -10.0320 C.3   270  LYS270      0.0285
     83  CG        -9.5220   24.6520   -9.1820 C.3   270  LYS270      0.0035
     84  CD        -9.3330   26.1500   -9.0660 C.3   270  LYS270      0.0206
     85  CE        -8.0390   26.5040   -8.3880 C.3   270  LYS270      0.1093
     86  NZ        -7.9000   27.9730   -8.2020 N.3   270  LYS270     -0.1314
     87  N        -12.3560   22.2560   -8.5290 N.am  271  TYR271     -0.1976
     88  CA       -12.6460   21.5410   -7.2960 C.3   271  TYR271      0.1639
     89  C        -13.7580   20.5340   -7.5000 C.2   271  TYR271      0.2290
     90  O        -14.5080   20.2320   -6.5730 O.2   271  TYR271     -0.2864
     91  CB       -12.9900   22.5130   -6.1790 C.3   271  TYR271      0.0560
     92  CG       -11.8110   23.3700   -5.7820 C.ar  271  TYR271     -0.0198
     93  CD1      -11.7430   24.7050   -6.1600 C.ar  271  TYR271     -0.0009
     94  CD2      -10.7450   22.8340   -5.0680 C.ar  271  TYR271     -0.0009
     95  CE1      -10.6660   25.4920   -5.8100 C.ar  271  TYR271      0.0417
     96  CE2       -9.6650   23.6140   -4.7150 C.ar  271  TYR271      0.0417
     97  CZ        -9.6300   24.9440   -5.0920 C.ar  271  TYR271      0.1957
     98  OH        -8.5570   25.7330   -4.7480 O.3   271  TYR271     -0.2866
     99  N         -5.0560   23.9680  -16.7050 N.3   295  TYR295     -0.1241
    100  CA        -4.0940   23.1270  -16.0080 C.3   295  TYR295      0.1605
    101  C         -4.7850   22.0710  -15.1680 C.2   295  TYR295      0.2264
    102  O         -5.9530   22.2280  -14.7990 O.2   295  TYR295     -0.2867
    103  CB        -3.2200   23.9800  -15.0830 C.3   295  TYR295      0.0534
    104  CG        -4.0150   24.7880  -14.0730 C.ar  295  TYR295     -0.0201
    105  CD1       -4.3540   24.2520  -12.8340 C.ar  295  TYR295     -0.0009
    106  CD2       -4.4720   26.0600  -14.3780 C.ar  295  TYR295     -0.0009
    107  CE1       -5.0900   24.9770  -11.9190 C.ar  295  TYR295      0.0417
    108  CE2       -5.2090   26.7880  -13.4730 C.ar  295  TYR295      0.0417
    109  CZ        -5.5190   26.2460  -12.2440 C.ar  295  TYR295      0.1957
    110  OH        -6.2540   26.9870  -11.3400 O.3   295  TYR295     -0.2866
    111  N         -3.2740   20.2850  -11.4680 N.3   297  ALA297     -0.1245
    112  CA        -2.1370   20.4030  -10.5780 C.3   297  ALA297      0.1562
    113  C         -2.2750   19.3770   -9.4850 C.2   297  ALA297      0.2260
    114  O         -3.3730   18.8940   -9.2010 O.2   297  ALA297     -0.2867
    115  CB        -2.0380   21.7930  -10.0010 C.3   297  ALA297      0.0290
    116  N         -3.0680   16.0850   -2.6300 N.3   308  TRP308     -0.1241
    117  CA        -4.2500   16.7510   -3.1550 C.3   308  TRP308      0.1605
    118  C         -4.1130   16.8730   -4.6660 C.2   308  TRP308      0.2264
    119  O         -2.9950   16.8370   -5.2090 O.2   308  TRP308     -0.2867
    120  CB        -4.4210   18.1320   -2.5290 C.3   308  TRP308      0.0550
    121  CG        -3.1980   18.9980   -2.7110 C.ar  308  TRP308      0.0003
    122  CD1       -2.1490   19.1240   -1.8460 C.ar  308  TRP308      0.0946
    123  CD2       -2.8970   19.8480   -3.8300 C.ar  308  TRP308      0.0152
    124  NE1       -1.2150   19.9940   -2.3550 N.ar  308  TRP308     -0.2442
    125  CE2       -1.6500   20.4530   -3.5710 C.ar  308  TRP308      0.0810
    126  CE3       -3.5600   20.1590   -5.0210 C.ar  308  TRP308      0.0012
    127  CZ2       -1.0540   21.3510   -4.4590 C.ar  308  TRP308      0.0191
    128  CZ3       -2.9600   21.0460   -5.9090 C.ar  308  TRP308      0.0001
    129  CH2       -1.7230   21.6310   -5.6220 C.ar  308  TRP308      0.0015
    130  N         -6.0610   19.1140   -8.1560 N.3   310  ILE310     -0.1245
    131  CA        -7.0950   19.9860   -8.6990 C.3   310  ILE310      0.1561
    132  C         -7.1060   19.9640  -10.2290 C.2   310  ILE310      0.2260
    133  O         -6.0790   19.7160  -10.8660 O.2   310  ILE310     -0.2867
    134  CB        -6.9200   21.4420   -8.2220 C.3   310  ILE310      0.0252
    135  CG1       -5.5750   22.0020   -8.7020 C.3   310  ILE310      0.0019
    136  CG2       -7.0650   21.5280   -6.7080 C.3   310  ILE310      0.0019
    137  CD1       -5.2680   23.4160   -8.2280 C.3   310  ILE310      0.0001
@<TRIPOS>BOND
     1    99   100    1
     2    33    32   ar
     3    33    31   ar
     4   100   101    1
     5   100   103    1
     6    32    30   ar
     7    31    29   ar
     8   101   102    2
     9   103   104    1
    10    30    28   ar
    11    74    73    2
    12   106   104   ar
    13   106   108   ar
    14    29    28   ar
    15   104   105   ar
    16    73    72    1
    17    28    27    1
    18   108   109   ar
    19    77    75    1
    20   105   107   ar
    21    27    24    1
    22    72    75    1
    23    72    71    1
    24    75    76    1
    25   109   107   ar
    26   109   110    1
    27    71    61   am
    28    21    20    2
    29    23    24    1
    30   111   112    1
    31    24    25    1
    32    78    79    1
    33   133   132    2
    34    13    12   ar
    35    16    17    1
    36    16    15    1
    37    16    19    1
    38   112   115    1
    39   112   113    1
    40    61    62    2
    41    61    60    1
    42    20    19    1
    43    20    22   am
    44    17    18    2
    45    79    82    1
    46    79    80    1
    47    25    26    2
    48    25    34   am
    49   132   131    1
    50    63    60    1
    51    63    64    1
    52    14    12   ar
    53    82    83    1
    54    12    11    1
    55    60    59    1
    56    66    64   ar
    57    66    68   ar
    58   113   114    2
    59    64    65   ar
    60    34    35    1
    61    83    84    1
    62    80    81    2
    63    80    87   am
    64    84    85    1
    65    68    69   ar
    66   135   137    1
    67   135   134    1
    68   131   134    1
    69   131   130    1
    70    87    88    1
    71    11    10    1
    72    65    67   ar
    73    85    86    1
    74    59    52   am
    75   134   136    1
    76    10     7    1
    77    35    36    1
    78    35    38    1
    79    69    67   ar
    80    69    70    1
    81    36    37    2
    82    53    52    2
    83    89    88    1
    84    89    90    2
    85    52    51    1
    86    41    40    2
    87    88    91    1
    88    39    38    1
    89    39    40    1
    90     7     8    1
    91     7     6    1
    92    40    42   am
    93     8     9    2
    94    91    92    1
    95    93    95   ar
    96    93    92   ar
    97   128   129   ar
    98   128   126   ar
    99    51    54    1
   100    51    50    1
   101    95    97   ar
   102    92    94   ar
   103   129   127   ar
   104    54    55    1
   105   119   118    2
   106    97    98    1
   107    97    96   ar
   108    94    96   ar
   109   126   123   ar
   110   118   117    1
   111   127   125   ar
   112    57    56    1
   113    57    58    1
   114    55    56    1
   115     4     3    2
   116   123   125   ar
   117   123   121   ar
   118   125   124   ar
   119   117   116    1
   120   117   120    1
   121     3     2    1
   122   121   120    1
   123   121   122   ar
   124   124   122   ar
   125     1     2    1
   126     2     5    1
   127    48    47    1
   128    43    44    1
   129    47    44    1
   130    47    49    1
   131    44    45    1
   132    45    46    2
