@<TRIPOS>MOLECULE
tmp/4xwnA00.pdb
 97 93 0 0 0
SMALL
GASTEIGER

@<TRIPOS>ATOM
      1  N          8.3180   36.3610  -21.0410 N.3    43  GLU43      -0.1231
      2  CA         7.0300   36.3780  -21.7410 C.3    43  GLU43       0.1699
      3  C          6.0130   35.3870  -21.1780 C.2    43  GLU43       0.2592
      4  O          4.8230   35.6940  -21.1120 O.2    43  GLU43      -0.2718
      5  CB         7.2470   36.1430  -23.2360 C.3    43  GLU43       0.0402
      6  CG         7.9070   34.8360  -23.5710 C.3    43  GLU43       0.1161
      7  CD         8.4010   34.8080  -25.0010 C.2    43  GLU43       0.3649
      8  OE1        8.5570   35.9030  -25.5890 O.co2  43  GLU43      -0.2457
      9  OE2        8.6760   33.7020  -25.5180 O.co2  43  GLU43      -0.2457
     10  N          6.4750   34.2140  -20.7680 N.am   44  ALA44      -0.1980
     11  CA         5.6740   33.2900  -19.9630 C.3    44  ALA44       0.1597
     12  C          6.6830   32.6440  -19.0040 C.2    44  ALA44       0.2287
     13  O          6.5590   32.7970  -17.7830 O.2    44  ALA44      -0.2864
     14  CB         4.8960   32.2800  -20.8170 C.3    44  ALA44       0.0319
     15  N         -1.3660   40.5630  -20.0710 N.3   402  PRO402     -0.2116
     16  CA        -2.4010   41.0460  -20.9880 C.3   402  PRO402      0.1372
     17  C         -3.4900   39.9930  -21.1630 C.2   402  PRO402      0.2244
     18  O         -3.3560   38.9030  -20.5970 O.2   402  PRO402     -0.2868
     19  CB        -1.6410   41.2560  -22.3060 C.3   402  PRO402      0.0268
     20  CG        -0.2510   40.6620  -22.0930 C.3   402  PRO402      0.0207
     21  CD        -0.2760   39.9030  -20.8030 C.3   402  PRO402      0.0892
     22  N         -2.9470   37.5050  -28.0670 N.3   407  TRP407     -0.1241
     23  CA        -1.8890   36.9570  -28.9260 C.3   407  TRP407      0.1605
     24  C         -2.3900   36.1160  -30.1090 C.2   407  TRP407      0.2264
     25  O         -3.0550   35.0970  -29.9240 O.2   407  TRP407     -0.2867
     26  CB        -0.9420   36.1150  -28.0840 C.3   407  TRP407      0.0550
     27  CG         0.2420   35.5980  -28.8390 C.ar  407  TRP407      0.0003
     28  CD1        1.1030   36.3150  -29.6220 C.ar  407  TRP407      0.0946
     29  CD2        0.7200   34.2520  -28.8430 C.ar  407  TRP407      0.0152
     30  NE1        2.0770   35.4860  -30.1310 N.ar  407  TRP407     -0.2442
     31  CE2        1.8620   34.2160  -29.6650 C.ar  407  TRP407      0.0810
     32  CE3        0.2830   33.0690  -28.2420 C.ar  407  TRP407      0.0012
     33  CZ2        2.5760   33.0480  -29.8900 C.ar  407  TRP407      0.0191
     34  CZ3        0.9920   31.9110  -28.4700 C.ar  407  TRP407      0.0001
     35  CH2        2.1250   31.9060  -29.2860 C.ar  407  TRP407      0.0015
     36  N         -1.3940   41.3550  -32.4870 N.3   459  LYS459     -0.1245
     37  CA        -2.2790   41.5720  -31.3280 C.3   459  LYS459      0.1561
     38  C         -3.7190   41.6560  -31.8210 C.2   459  LYS459      0.2260
     39  O         -4.0270   42.3440  -32.8070 O.2   459  LYS459     -0.2867
     40  CB        -1.9180   42.8690  -30.5600 C.3   459  LYS459      0.0271
     41  CG        -0.5710   42.8430  -29.7870 C.3   459  LYS459      0.0035
     42  CD        -0.1360   41.4150  -29.4680 C.3   459  LYS459      0.0206
     43  CE         1.2590   41.2930  -28.8210 C.3   459  LYS459      0.1093
     44  NZ         1.5410   39.8530  -28.4880 N.3   459  LYS459     -0.1314
     45  N          6.2990   37.7550  -36.2870 N.3   489  ASP489     -0.1239
     46  CA         6.5870   36.6480  -35.3910 C.3   489  ASP489      0.1674
     47  C          6.7530   35.4070  -36.2440 C.2   489  ASP489      0.2266
     48  O          5.7670   34.7870  -36.6490 O.2   489  ASP489     -0.2867
     49  CB         5.4690   36.4750  -34.3730 C.3   489  ASP489      0.1410
     50  CG         5.8120   35.4820  -33.2940 C.2   489  ASP489      0.3668
     51  OD1        6.4470   34.4410  -33.5890 O.co2 489  ASP489     -0.2456
     52  OD2        5.4380   35.7580  -32.1300 O.co2 489  ASP489     -0.2456
     53  N         12.7080   41.9350  -32.9920 N.3   547  GLU547     -0.1245
     54  CA        11.3920   42.3020  -32.4870 C.3   547  GLU547      0.1567
     55  C         11.5610   43.3690  -31.4150 C.2   547  GLU547      0.2260
     56  O         12.5870   43.4040  -30.7090 O.2   547  GLU547     -0.2867
     57  CB        10.6480   41.0850  -31.9240 C.3   547  GLU547      0.0388
     58  CG        11.2260   40.5450  -30.6250 C.3   547  GLU547      0.1160
     59  CD        10.5900   39.2330  -30.1750 C.2   547  GLU547      0.3649
     60  OE1       10.7260   38.2110  -30.8920 O.co2 547  GLU547     -0.2457
     61  OE2        9.9370   39.2320  -29.1090 O.co2 547  GLU547     -0.2457
     62  N         10.4340   45.0140  -27.9440 N.3   549  ARG549     -0.1245
     63  CA         9.8120   44.6710  -26.6790 C.3   549  ARG549      0.1563
     64  C          9.6150   45.9110  -25.8020 C.2   549  ARG549      0.2260
     65  O         10.5260   46.2850  -25.0470 O.2   549  ARG549     -0.2867
     66  CB        10.6460   43.6210  -25.9440 C.3   549  ARG549      0.0307
     67  CG        10.7530   42.3060  -26.6980 C.3   549  ARG549      0.0489
     68  CD         9.3930   41.6730  -26.9300 C.3   549  ARG549      0.2205
     69  NE         8.7090   41.3070  -25.6970 N.pl3 549  ARG549     -0.0865
     70  CZ         8.6570   40.0720  -25.2080 C.cat 549  ARG549      0.5346
     71  NH1        9.2620   39.0790  -25.8500 N.pl3 549  ARG549      0.1354
     72  NH2        8.0100   39.8350  -24.0710 N.pl3 549  ARG549      0.1354
     73  N         13.7000   31.2090  -30.3030 N.3   613  ARG613     -0.1245
     74  CA        12.9160   30.3630  -29.4220 C.3   613  ARG613      0.1563
     75  C         12.9080   28.9290  -29.9470 C.2   613  ARG613      0.2260
     76  O         12.6930   28.7110  -31.1480 O.2   613  ARG613     -0.2867
     77  CB        11.4890   30.8870  -29.3450 C.3   613  ARG613      0.0307
     78  CG        11.3890   32.2680  -28.7700 C.3   613  ARG613      0.0489
     79  CD         9.9770   32.7420  -28.8640 C.3   613  ARG613      0.2205
     80  NE         9.7810   34.0160  -28.1930 N.pl3 613  ARG613     -0.0865
     81  CZ         9.9430   35.1970  -28.7810 C.cat 613  ARG613      0.5346
     82  NH1       10.2970   35.2730  -30.0580 N.pl3 613  ARG613      0.1354
     83  NH2        9.7410   36.3070  -28.0930 N.pl3 613  ARG613      0.1354
     84  N         10.7030   26.5480  -29.6020 N.3   615  TRP615     -0.1241
     85  CA         9.4180   26.2130  -30.2130 C.3   615  TRP615      0.1605
     86  C          9.2620   26.9310  -31.5550 C.2   615  TRP615      0.2264
     87  O          8.6980   26.3700  -32.4770 O.2   615  TRP615     -0.2867
     88  CB         8.2340   26.5170  -29.2730 C.3   615  TRP615      0.0550
     89  CG         7.8470   27.9670  -29.0710 C.ar  615  TRP615      0.0003
     90  CD1        8.0990   28.7310  -27.9670 C.ar  615  TRP615      0.0946
     91  CD2        7.1040   28.8030  -29.9680 C.ar  615  TRP615      0.0152
     92  NE1        7.5760   29.9920  -28.1270 N.ar  615  TRP615     -0.2442
     93  CE2        6.9620   30.0630  -29.3470 C.ar  615  TRP615      0.0810
     94  CE3        6.5590   28.6150  -31.2400 C.ar  615  TRP615      0.0012
     95  CZ2        6.3010   31.1250  -29.9540 C.ar  615  TRP615      0.0191
     96  CZ3        5.9010   29.6700  -31.8430 C.ar  615  TRP615      0.0001
     97  CH2        5.7770   30.9100  -31.2000 C.ar  615  TRP615      0.0015
@<TRIPOS>BOND
     1    48    47    2
     2    45    46    1
     3    47    46    1
     4    46    49    1
     5    49    50    1
     6    51    50   ar
     7    50    52   ar
     8    53    54    1
     9    39    38    2
    10    36    37    1
    11    54    57    1
    12    54    55    1
    13    87    86    2
    14    57    58    1
    15    96    94   ar
    16    96    97   ar
    17    38    37    1
    18    86    85    1
    19    55    56    2
    20    37    40    1
    21    94    91   ar
    22    97    95   ar
    23    76    75    2
    24    60    59   ar
    25    58    59    1
    26    40    41    1
    27    73    74    1
    28    85    84    1
    29    85    88    1
    30    59    61   ar
    31    30    31   ar
    32    30    28   ar
    33    24    25    2
    34    24    23    1
    35    82    81    1
    36    91    93   ar
    37    91    89   ar
    38    95    93   ar
    39    75    74    1
    40    33    31   ar
    41    33    35   ar
    42    41    42    1
    43    31    29   ar
    44    28    27   ar
    45    42    43    1
    46    74    77    1
    47    93    92   ar
    48    77    78    1
    49    35    34   ar
    50    88    89    1
    51    89    90   ar
    52    23    26    1
    53    23    22    1
    54    79    78    1
    55    79    80    1
    56    29    27   ar
    57    29    32   ar
    58    27    26    1
    59    43    44    1
    60    81    80    2
    61    81    83    1
    62    34    32   ar
    63    92    90   ar
    64    62    63    1
    65    68    67    1
    66    68    69    1
    67    67    66    1
    68    63    66    1
    69    63    64    1
    70    71    70    1
    71    64    65    2
    72    69    70    2
    73     8     7   ar
    74     9     7   ar
    75    70    72    1
    76     7     6    1
    77     6     5    1
    78     5     2    1
    79    19    20    1
    80    19    16    1
    81    20    21    1
    82     2     3    1
    83     2     1    1
    84     3     4    2
    85     3    10   am
    86    17    16    1
    87    17    18    2
    88    16    15    1
    89    14    11    1
    90    21    15    1
    91    10    11    1
    92    11    12    1
    93    12    13    2
