@<TRIPOS>MOLECULE
tmp/4xwnA05.pdb
 102 95 0 0 0
SMALL
GASTEIGER

@<TRIPOS>ATOM
      1  N         -9.1530   18.0970   -2.5690 N.3   108  ALA108     -0.1231
      2  CA        -8.4480   19.3270   -2.2330 C.3   108  ALA108      0.1694
      3  C         -9.3060   20.1940   -1.3380 C.2   108  ALA108      0.2592
      4  O        -10.4700   19.8860   -1.0960 O.2   108  ALA108     -0.2718
      5  CB        -8.0600   20.0910   -3.4930 C.3   108  ALA108      0.0304
      6  N         -8.7280   21.2860   -0.8590 N.am  109  THR109     -0.1953
      7  CA        -9.4670   22.2480   -0.0610 C.3   109  THR109      0.1897
      8  C         -9.7020   23.5290   -0.8530 C.2   109  THR109      0.2313
      9  O         -8.7730   24.0720   -1.4520 O.2   109  THR109     -0.2863
     10  CB        -8.7230   22.5800    1.2320 C.3   109  THR109      0.1794
     11  OG1       -8.5240   21.3790    1.9880 O.3   109  THR109     -0.2208
     12  CG2       -9.5150   23.5820    2.0600 C.3   109  THR109      0.0378
     13  N        -10.0950   27.2380   -2.1270 N.3   111  ALA111     -0.1245
     14  CA        -9.6810   28.6200   -1.8870 C.3   111  ALA111      0.1562
     15  C        -10.0930   29.4690   -3.0830 C.2   111  ALA111      0.2260
     16  O        -10.0420   29.0120   -4.2290 O.2   111  ALA111     -0.2867
     17  CB        -8.1820   28.7190   -1.6470 C.3   111  ALA111      0.0290
     18  N         -7.7650   29.1530    2.8330 N.3   124  LEU124     -0.1245
     19  CA        -8.3770   27.8450    2.6480 C.3   124  LEU124      0.1561
     20  C         -9.7010   27.8020    3.3960 C.2   124  LEU124      0.2260
     21  O         -9.7620   28.1710    4.5660 O.2   124  LEU124     -0.2867
     22  CB        -7.4610   26.7340    3.1620 C.3   124  LEU124      0.0270
     23  CG        -6.1540   26.5190    2.4130 C.3   124  LEU124      0.0019
     24  CD1       -5.3560   25.3880    3.0320 C.3   124  LEU124      0.0001
     25  CD2       -6.4690   26.2220    0.9670 C.3   124  LEU124      0.0001
     26  N          0.8530   32.3090   -9.3640 N.3   178  GLN178     -0.1245
     27  CA         0.1480   31.7770   -8.2020 C.3   178  GLN178      0.1566
     28  C         -1.0260   32.6540   -7.7700 C.2   178  GLN178      0.2260
     29  O         -1.8990   32.2080   -7.0270 O.2   178  GLN178     -0.2867
     30  CB         1.1090   31.6530   -7.0240 C.3   178  GLN178      0.0367
     31  CG         2.0400   30.4660   -7.0760 C.3   178  GLN178      0.0905
     32  CD         1.4020   29.1760   -6.6310 C.2   178  GLN178      0.2608
     33  OE1        1.5220   28.1590   -7.3140 O.2   178  GLN178     -0.2717
     34  NE2        0.7340   29.1960   -5.4790 N.am  178  GLN178     -0.0878
     35  N         -1.0980   30.8520   -0.1760 N.3   210  THR210     -0.1218
     36  CA        -2.1850   30.1660    0.5110 C.3   210  THR210      0.1862
     37  C         -2.1890   30.4800    2.0020 C.2   210  THR210      0.2287
     38  O         -1.1430   30.5030    2.6470 O.2   210  THR210     -0.2866
     39  CB        -2.0740   28.6360    0.3120 C.3   210  THR210      0.1770
     40  OG1       -2.2240   28.3210   -1.0770 O.3   210  THR210     -0.2211
     41  CG2       -3.1350   27.9000    1.0960 C.3   210  THR210      0.0375
     42  N          6.5490   20.6540    1.3820 N.3   218  GLN218     -0.1245
     43  CA         5.6440   20.0400    0.4220 C.3   218  GLN218      0.1566
     44  C          6.0650   20.1900   -1.0350 C.2   218  GLN218      0.2260
     45  O          6.8890   21.0450   -1.3680 O.2   218  GLN218     -0.2867
     46  CB         4.2470   20.6430    0.5780 C.3   218  GLN218      0.0367
     47  CG         4.2070   22.1690    0.4640 C.3   218  GLN218      0.0905
     48  CD         2.8390   22.7540    0.7960 C.2   218  GLN218      0.2608
     49  OE1        2.0270   23.0090   -0.0950 O.2   218  GLN218     -0.2717
     50  NE2        2.5840   22.9720    2.0790 N.am  218  GLN218     -0.0878
     51  N          4.5060   20.6160   -5.1250 N.3   220  LYS220     -0.1245
     52  CA         3.3140   20.9490   -5.9010 C.3   220  LYS220      0.1561
     53  C          3.7710   21.1130   -7.3590 C.2   220  LYS220      0.2260
     54  O          4.7310   21.8450   -7.6500 O.2   220  LYS220     -0.2867
     55  CB         2.5960   22.1330   -5.2260 C.3   220  LYS220      0.0271
     56  CG         3.5220   22.8690   -4.2840 C.3   220  LYS220      0.0035
     57  CD         3.0650   24.1550   -3.6270 C.3   220  LYS220      0.0206
     58  CE         2.2370   25.1120   -4.3890 C.3   220  LYS220      0.1093
     59  NZ         1.4660   25.8260   -3.3250 N.3   220  LYS220     -0.1314
     60  N        -12.0100   22.7690  -11.4010 N.3   270  LYS270     -0.1231
     61  CA       -10.9460   22.8890  -10.4040 C.3   270  LYS270      0.1693
     62  C        -11.1880   22.0930   -9.1340 C.2   270  LYS270      0.2592
     63  O        -10.3410   21.3150   -8.7280 O.2   270  LYS270     -0.2718
     64  CB       -10.7510   24.3600  -10.0320 C.3   270  LYS270      0.0285
     65  CG        -9.5220   24.6520   -9.1820 C.3   270  LYS270      0.0035
     66  CD        -9.3330   26.1500   -9.0660 C.3   270  LYS270      0.0206
     67  CE        -8.0390   26.5040   -8.3880 C.3   270  LYS270      0.1093
     68  NZ        -7.9000   27.9730   -8.2020 N.3   270  LYS270     -0.1314
     69  N        -12.3560   22.2560   -8.5290 N.am  271  TYR271     -0.1976
     70  CA       -12.6460   21.5410   -7.2960 C.3   271  TYR271      0.1639
     71  C        -13.7580   20.5340   -7.5000 C.2   271  TYR271      0.2290
     72  O        -14.5080   20.2320   -6.5730 O.2   271  TYR271     -0.2864
     73  CB       -12.9900   22.5130   -6.1790 C.3   271  TYR271      0.0560
     74  CG       -11.8110   23.3700   -5.7820 C.ar  271  TYR271     -0.0198
     75  CD1      -11.7430   24.7050   -6.1600 C.ar  271  TYR271     -0.0009
     76  CD2      -10.7450   22.8340   -5.0680 C.ar  271  TYR271     -0.0009
     77  CE1      -10.6660   25.4920   -5.8100 C.ar  271  TYR271      0.0417
     78  CE2       -9.6650   23.6140   -4.7150 C.ar  271  TYR271      0.0417
     79  CZ        -9.6300   24.9440   -5.0920 C.ar  271  TYR271      0.1957
     80  OH        -8.5570   25.7330   -4.7480 O.3   271  TYR271     -0.2866
     81  N         -3.0680   16.0850   -2.6300 N.3   308  TRP308     -0.1241
     82  CA        -4.2500   16.7510   -3.1550 C.3   308  TRP308      0.1605
     83  C         -4.1130   16.8730   -4.6660 C.2   308  TRP308      0.2264
     84  O         -2.9950   16.8370   -5.2090 O.2   308  TRP308     -0.2867
     85  CB        -4.4210   18.1320   -2.5290 C.3   308  TRP308      0.0550
     86  CG        -3.1980   18.9980   -2.7110 C.ar  308  TRP308      0.0003
     87  CD1       -2.1490   19.1240   -1.8460 C.ar  308  TRP308      0.0946
     88  CD2       -2.8970   19.8480   -3.8300 C.ar  308  TRP308      0.0152
     89  NE1       -1.2150   19.9940   -2.3550 N.ar  308  TRP308     -0.2442
     90  CE2       -1.6500   20.4530   -3.5710 C.ar  308  TRP308      0.0810
     91  CE3       -3.5600   20.1590   -5.0210 C.ar  308  TRP308      0.0012
     92  CZ2       -1.0540   21.3510   -4.4590 C.ar  308  TRP308      0.0191
     93  CZ3       -2.9600   21.0460   -5.9090 C.ar  308  TRP308      0.0001
     94  CH2       -1.7230   21.6310   -5.6220 C.ar  308  TRP308      0.0015
     95  N         -6.0610   19.1140   -8.1560 N.3   310  ILE310     -0.1245
     96  CA        -7.0950   19.9860   -8.6990 C.3   310  ILE310      0.1561
     97  C         -7.1060   19.9640  -10.2290 C.2   310  ILE310      0.2260
     98  O         -6.0790   19.7160  -10.8660 O.2   310  ILE310     -0.2867
     99  CB        -6.9200   21.4420   -8.2220 C.3   310  ILE310      0.0252
    100  CG1       -5.5750   22.0020   -8.7020 C.3   310  ILE310      0.0019
    101  CG2       -7.0650   21.5280   -6.7080 C.3   310  ILE310      0.0019
    102  CD1       -5.2680   23.4160   -8.2280 C.3   310  ILE310      0.0001
@<TRIPOS>BOND
     1    60    61    1
     2    98    97    2
     3    61    64    1
     4    61    62    1
     5    97    96    1
     6    64    65    1
     7    26    27    1
     8    65    66    1
     9    62    63    2
    10    62    69   am
    11    66    67    1
    12   100   102    1
    13   100    99    1
    14    96    99    1
    15    96    95    1
    16    69    70    1
    17    67    68    1
    18    99   101    1
    19    27    28    1
    20    27    30    1
    21    28    29    2
    22    54    53    2
    23    71    70    1
    24    71    72    2
    25    53    52    1
    26    33    32    2
    27    70    73    1
    28    31    30    1
    29    31    32    1
    30    32    34   am
    31    73    74    1
    32    75    77   ar
    33    75    74   ar
    34    93    94   ar
    35    93    91   ar
    36    52    55    1
    37    52    51    1
    38    77    79   ar
    39    74    76   ar
    40    94    92   ar
    41    55    56    1
    42    84    83    2
    43    79    80    1
    44    79    78   ar
    45    76    78   ar
    46    91    88   ar
    47    83    82    1
    48    92    90   ar
    49    58    57    1
    50    58    59    1
    51    56    57    1
    52    16    15    2
    53    88    90   ar
    54    88    86   ar
    55    90    89   ar
    56     5     2    1
    57    82    81    1
    58    82    85    1
    59    15    14    1
    60    86    85    1
    61    86    87   ar
    62     1     2    1
    63    89    87   ar
    64     2     3    1
    65    13    14    1
    66    14    17    1
    67     9     8    2
    68    45    44    2
    69     3     4    2
    70     3     6   am
    71    40    39    1
    72    44    43    1
    73     6     7    1
    74     8     7    1
    75    35    36    1
    76    49    48    2
    77     7    10    1
    78    39    36    1
    79    39    41    1
    80    43    46    1
    81    43    42    1
    82    47    46    1
    83    47    48    1
    84    36    37    1
    85    48    50   am
    86    25    23    1
    87    10    11    1
    88    10    12    1
    89    37    38    2
    90    23    24    1
    91    23    22    1
    92    19    18    1
    93    19    22    1
    94    19    20    1
    95    20    21    2
