@<TRIPOS>MOLECULE
tmp/4xwnA02.pdb
 125 123 0 0 0
SMALL
GASTEIGER

@<TRIPOS>ATOM
      1  N          6.4750   34.2140  -20.7680 N.3    44  ALA44      -0.1245
      2  CA         5.6740   33.2900  -19.9630 C.3    44  ALA44       0.1562
      3  C          6.6830   32.6440  -19.0040 C.2    44  ALA44       0.2260
      4  O          6.5590   32.7970  -17.7830 O.2    44  ALA44      -0.2867
      5  CB         4.8960   32.2800  -20.8170 C.3    44  ALA44       0.0290
      6  N          6.1940   22.5740  -22.9490 N.3    54  GLU54      -0.1245
      7  CA         5.9710   23.0020  -24.3210 C.3    54  GLU54       0.1567
      8  C          7.2050   22.7540  -25.1930 C.2    54  GLU54       0.2260
      9  O          7.1100   22.1670  -26.2780 O.2    54  GLU54      -0.2867
     10  CB         5.5600   24.4740  -24.3020 C.3    54  GLU54       0.0388
     11  CG         5.7140   25.2510  -25.5760 C.3    54  GLU54       0.1160
     12  CD         5.4310   26.7340  -25.3510 C.2    54  GLU54       0.3649
     13  OE1        4.2550   27.0750  -25.1090 O.co2  54  GLU54      -0.2457
     14  OE2        6.3780   27.5550  -25.3920 O.co2  54  GLU54      -0.2457
     15  N          5.1330   22.1200  -15.9240 N.3   153  TRP153     -0.1241
     16  CA         5.2220   23.0550  -17.0370 C.3   153  TRP153      0.1605
     17  C          6.5350   23.8300  -17.1080 C.2   153  TRP153      0.2264
     18  O          6.9120   24.2820  -18.1840 O.2   153  TRP153     -0.2867
     19  CB         4.0630   24.0490  -16.9960 C.3   153  TRP153      0.0550
     20  CG         4.3080   25.2550  -16.1570 C.ar  153  TRP153      0.0003
     21  CD1        4.1730   25.3550  -14.8050 C.ar  153  TRP153      0.0946
     22  CD2        4.6900   26.5580  -16.6210 C.ar  153  TRP153      0.0152
     23  NE1        4.4670   26.6340  -14.3930 N.ar  153  TRP153     -0.2442
     24  CE2        4.7840   27.3940  -15.4880 C.ar  153  TRP153      0.0810
     25  CE3        4.9730   27.0950  -17.8820 C.ar  153  TRP153      0.0012
     26  CZ2        5.1420   28.7380  -15.5750 C.ar  153  TRP153      0.0191
     27  CZ3        5.3300   28.4330  -17.9680 C.ar  153  TRP153      0.0001
     28  CH2        5.4090   29.2380  -16.8190 C.ar  153  TRP153      0.0015
     29  N          8.0590   27.0660  -10.0910 N.3   175  ASN175     -0.1240
     30  CA         6.8050   27.6070  -10.5800 C.3   175  ASN175      0.1653
     31  C          6.7920   29.1250  -10.4140 C.2   175  ASN175      0.2266
     32  O          7.6230   29.6690   -9.6830 O.2   175  ASN175     -0.2867
     33  CB         5.6250   26.9400   -9.8710 C.3   175  ASN175      0.1155
     34  CG         4.2970   27.3760  -10.4360 C.2   175  ASN175      0.2627
     35  OD1        4.0730   27.2610  -11.6390 O.2   175  ASN175     -0.2716
     36  ND2        3.4000   27.8490   -9.5820 N.am  175  ASN175     -0.0877
     37  N          3.4830   31.7080  -11.6220 N.3   177  PHE177     -0.1241
     38  CA         2.1060   32.1650  -11.4400 C.3   177  PHE177      0.1605
     39  C          1.4150   31.4960  -10.2630 C.2   177  PHE177      0.2264
     40  O          1.3800   30.2680  -10.1750 O.2   177  PHE177     -0.2867
     41  CB         1.3020   31.9110  -12.7140 C.3   177  PHE177      0.0534
     42  CG         1.8800   32.5700  -13.9310 C.ar  177  PHE177     -0.0203
     43  CD1        1.7100   33.9280  -14.1440 C.ar  177  PHE177     -0.0042
     44  CD2        2.6230   31.8420  -14.8450 C.ar  177  PHE177     -0.0042
     45  CE1        2.2550   34.5420  -15.2600 C.ar  177  PHE177     -0.0003
     46  CE2        3.1710   32.4480  -15.9620 C.ar  177  PHE177     -0.0003
     47  CZ         2.9900   33.8020  -16.1700 C.ar  177  PHE177     -0.0000
     48  N          2.3910   21.5450  -11.6510 N.3   222  THR222     -0.1203
     49  CA         1.3040   22.0270  -12.4730 C.3   222  THR222      0.1994
     50  C          1.5040   21.6600  -13.9510 C.2   222  THR222      0.2618
     51  O          2.5210   21.9960  -14.5610 O.2   222  THR222     -0.2717
     52  CB         1.1690   23.5440  -12.3750 C.3   222  THR222      0.1784
     53  OG1        1.0840   23.9410  -10.9990 O.3   222  THR222     -0.2211
     54  CG2       -0.0420   23.9960  -13.1360 C.3   222  THR222      0.0376
     55  N          0.5120   20.9730  -14.5110 N.am  223  ASN223     -0.1960
     56  CA         0.5340   20.5490  -15.9000 C.3   223  ASN223      0.1819
     57  C          0.1660   21.6820  -16.8460 C.2   223  ASN223      0.2621
     58  O         -0.5930   22.5660  -16.4830 O.2   223  ASN223     -0.2715
     59  CB        -0.4460   19.3820  -16.0770 C.3   223  ASN223      0.1195
     60  CG        -0.2520   18.6260  -17.3830 C.2   223  ASN223      0.2630
     61  OD1       -1.0360   18.7860  -18.3230 O.2   223  ASN223     -0.2716
     62  ND2        0.7680   17.7680  -17.4350 N.am  223  ASN223     -0.0877
     63  N          0.7130   21.6600  -18.0580 N.am  224  ALA224     -0.1977
     64  CA         0.2040   22.4980  -19.1510 C.3   224  ALA224      0.1597
     65  C         -0.3940   21.5640  -20.1880 C.2   224  ALA224      0.2287
     66  O          0.3350   21.0020  -21.0020 O.2   224  ALA224     -0.2864
     67  CB         1.3050   23.3600  -19.7490 C.3   224  ALA224      0.0319
     68  N         -1.9320   21.6830  -22.9650 N.3   226  ASP226     -0.1239
     69  CA        -1.6610   21.8440  -24.3810 C.3   226  ASP226      0.1674
     70  C         -0.3220   21.1980  -24.7680 C.2   226  ASP226      0.2266
     71  O         -0.1890   20.6360  -25.8620 O.2   226  ASP226     -0.2867
     72  CB        -1.7680   23.3280  -24.7840 C.3   226  ASP226      0.1410
     73  CG        -0.7680   24.2280  -24.0810 C.2   226  ASP226      0.3668
     74  OD1       -0.4580   23.9820  -22.8940 O.co2 226  ASP226     -0.2456
     75  OD2       -0.3150   25.2090  -24.7150 O.co2 226  ASP226     -0.2456
     76  N         -6.9960   24.8810  -18.4280 N.3   294  TRP294     -0.1227
     77  CA        -5.7530   25.6350  -18.3320 C.3   294  TRP294      0.1737
     78  C         -4.6590   24.8620  -17.6080 C.2   294  TRP294      0.2595
     79  O         -3.4730   25.0650  -17.8770 O.2   294  TRP294     -0.2718
     80  CB        -5.9890   26.9530  -17.6080 C.3   294  TRP294      0.0564
     81  CG        -4.9010   27.9410  -17.7910 C.ar  294  TRP294      0.0003
     82  CD1       -3.9610   28.2890  -16.8690 C.ar  294  TRP294      0.0946
     83  CD2       -4.6420   28.7410  -18.9500 C.ar  294  TRP294      0.0152
     84  NE1       -3.1170   29.2430  -17.3840 N.ar  294  TRP294     -0.2442
     85  CE2       -3.5160   29.5440  -18.6600 C.ar  294  TRP294      0.0810
     86  CE3       -5.2430   28.8530  -20.2070 C.ar  294  TRP294      0.0012
     87  CZ2       -2.9840   30.4480  -19.5770 C.ar  294  TRP294      0.0191
     88  CZ3       -4.7130   29.7510  -21.1170 C.ar  294  TRP294      0.0001
     89  CH2       -3.5920   30.5350  -20.7980 C.ar  294  TRP294      0.0015
     90  N         -5.0560   23.9680  -16.7050 N.am  295  TYR295     -0.1976
     91  CA        -4.0940   23.1270  -16.0080 C.3   295  TYR295      0.1639
     92  C         -4.7850   22.0710  -15.1680 C.2   295  TYR295      0.2290
     93  O         -5.9530   22.2280  -14.7990 O.2   295  TYR295     -0.2864
     94  CB        -3.2200   23.9800  -15.0830 C.3   295  TYR295      0.0560
     95  CG        -4.0150   24.7880  -14.0730 C.ar  295  TYR295     -0.0198
     96  CD1       -4.3540   24.2520  -12.8340 C.ar  295  TYR295     -0.0009
     97  CD2       -4.4720   26.0600  -14.3780 C.ar  295  TYR295     -0.0009
     98  CE1       -5.0900   24.9770  -11.9190 C.ar  295  TYR295      0.0417
     99  CE2       -5.2090   26.7880  -13.4730 C.ar  295  TYR295      0.0417
    100  CZ        -5.5190   26.2460  -12.2440 C.ar  295  TYR295      0.1957
    101  OH        -6.2540   26.9870  -11.3400 O.3   295  TYR295     -0.2866
    102  N         -5.7610   26.0170  -26.2740 N.3   319  TYR319     -0.1241
    103  CA        -5.1830   24.8340  -25.6630 C.3   319  TYR319      0.1605
    104  C         -5.7030   23.5420  -26.2830 C.2   319  TYR319      0.2264
    105  O         -5.1050   22.4850  -26.1000 O.2   319  TYR319     -0.2867
    106  CB        -5.4580   24.8400  -24.1560 C.3   319  TYR319      0.0534
    107  CG        -4.4310   25.5850  -23.3380 C.ar  319  TYR319     -0.0201
    108  CD1       -3.7580   26.6820  -23.8560 C.ar  319  TYR319     -0.0009
    109  CD2       -4.1400   25.1950  -22.0370 C.ar  319  TYR319     -0.0009
    110  CE1       -2.8060   27.3630  -23.1050 C.ar  319  TYR319      0.0417
    111  CE2       -3.1960   25.8690  -21.2790 C.ar  319  TYR319      0.0417
    112  CZ        -2.5290   26.9530  -21.8160 C.ar  319  TYR319      0.1957
    113  OH        -1.5810   27.6230  -21.0600 O.3   319  TYR319     -0.2866
    114  N         -6.1760   34.9720  -17.5960 N.3   399  TYR399     -0.1241
    115  CA        -5.3140   36.1510  -17.4430 C.3   399  TYR399      0.1605
    116  C         -5.7880   37.3440  -18.2550 C.2   399  TYR399      0.2264
    117  O         -6.2380   37.1940  -19.3870 O.2   399  TYR399     -0.2867
    118  CB        -3.8770   35.8230  -17.8530 C.3   399  TYR399      0.0534
    119  CG        -3.2040   34.8450  -16.9330 C.ar  399  TYR399     -0.0201
    120  CD1       -2.9310   33.5520  -17.3430 C.ar  399  TYR399     -0.0009
    121  CD2       -2.8500   35.2120  -15.6440 C.ar  399  TYR399     -0.0009
    122  CE1       -2.3270   32.6480  -16.4940 C.ar  399  TYR399      0.0417
    123  CE2       -2.2430   34.3170  -14.7870 C.ar  399  TYR399      0.0417
    124  CZ        -1.9870   33.0340  -15.2170 C.ar  399  TYR399      0.1957
    125  OH        -1.3770   32.1390  -14.3700 O.3   399  TYR399     -0.2866
@<TRIPOS>BOND
     1   104   105    2
     2   104   103    1
     3     9     8    2
     4   102   103    1
     5    71    70    2
     6   103   106    1
     7    11    12    1
     8    11    10    1
     9    14    12   ar
    10    12    13   ar
    11     8     7    1
    12    72    69    1
    13    72    73    1
    14    70    69    1
    15    75    73   ar
    16    69    68    1
    17     7    10    1
    18     7     6    1
    19   106   107    1
    20    73    74   ar
    21   108   107   ar
    22   108   110   ar
    23   107   109   ar
    24   110   112   ar
    25   109   111   ar
    26   112   111   ar
    27   112   113    1
    28    88    89   ar
    29    88    86   ar
    30    66    65    2
    31     5     2    1
    32    89    87   ar
    33     1     2    1
    34    86    83   ar
    35    65    64    1
    36     2     3    1
    37    67    64    1
    38    87    85   ar
    39   117   116    2
    40    64    63    1
    41     3     4    2
    42    83    85   ar
    43    83    81   ar
    44    85    84   ar
    45    76    77    1
    46    77    78    1
    47    77    80    1
    48    61    60    2
    49   116   115    1
    50    18    17    2
    51    63    57   am
    52    27    25   ar
    53    27    28   ar
    54    25    22   ar
    55    79    78    2
    56   118   115    1
    57   118   119    1
    58    81    80    1
    59    81    82   ar
    60    78    90   am
    61   114   115    1
    62    62    60   am
    63    84    82   ar
    64    60    59    1
    65   120   119   ar
    66   120   122   ar
    67    17    16    1
    68    16    19    1
    69    16    15    1
    70    19    20    1
    71   119   121   ar
    72    57    58    2
    73    57    56    1
    74    28    26   ar
    75    90    91    1
    76    22    20   ar
    77    22    24   ar
    78   122   124   ar
    79    47    46   ar
    80    47    45   ar
    81    20    21   ar
    82    59    56    1
    83    91    92    1
    84    91    94    1
    85    46    44   ar
    86    56    55    1
    87   121   123   ar
    88    26    24   ar
    89    24    23   ar
    90    45    43   ar
    91   124   123   ar
    92   124   125    1
    93    92    93    2
    94    94    95    1
    95    44    42   ar
    96    21    23   ar
    97    51    50    2
    98    55    50   am
    99    97    95   ar
   100    97    99   ar
   101    43    42   ar
   102    95    96   ar
   103    50    49    1
   104    42    41    1
   105    99   100   ar
   106    54    52    1
   107    96    98   ar
   108    41    38    1
   109    49    52    1
   110    49    48    1
   111    52    53    1
   112   100    98   ar
   113   100   101    1
   114    35    34    2
   115    37    38    1
   116    38    39    1
   117    30    31    1
   118    30    29    1
   119    30    33    1
   120    34    33    1
   121    34    36   am
   122    31    32    2
   123    39    40    2
