@<TRIPOS>MOLECULE
tmp/4xwoG00.pdb
 131 120 0 0 0
SMALL
GASTEIGER

@<TRIPOS>ATOM
      1  N         77.8960 -182.7560  -56.8350 N.3    91  LEU91      -0.1245
      2  CA        78.0410 -184.2070  -56.8900 C.3    91  LEU91       0.1561
      3  C         79.5030 -184.6160  -57.0520 C.2    91  LEU91       0.2260
      4  O         79.9290 -185.6400  -56.5160 O.2    91  LEU91      -0.2867
      5  CB        77.1870 -184.7920  -58.0140 C.3    91  LEU91       0.0270
      6  CG        75.6890 -184.7900  -57.7020 C.3    91  LEU91       0.0019
      7  CD1       74.8910 -185.3550  -58.8580 C.3    91  LEU91       0.0001
      8  CD2       75.4110 -185.5720  -56.4230 C.3    91  LEU91       0.0001
      9  N         80.8560 -184.3010  -53.6130 N.3    94  MET94      -0.1245
     10  CA        80.3420 -185.3850  -52.7780 C.3    94  MET94       0.1570
     11  C         80.9150 -186.7440  -53.1710 C.2    94  MET94       0.2261
     12  O         81.1020 -187.6190  -52.3180 O.2    94  MET94      -0.2867
     13  CB        78.8130 -185.4280  -52.8470 C.3    94  MET94       0.0387
     14  CG        78.1460 -185.9270  -51.5700 C.3    94  MET94       0.0595
     15  SD        78.3320 -184.7950  -50.1770 S.3    94  MET94      -0.1393
     16  CE        77.7110 -185.8050  -48.8350 C.3    94  MET94       0.0692
     17  N         73.9500 -189.4810  -62.1580 N.3   102  THR102     -0.1218
     18  CA        73.0340 -189.1370  -61.0720 C.3   102  THR102      0.1862
     19  C         72.6990 -187.6440  -61.0600 C.2   102  THR102      0.2287
     20  O         71.6230 -187.2380  -60.6180 O.2   102  THR102     -0.2866
     21  CB        73.6170 -189.5320  -59.7010 C.3   102  THR102      0.1770
     22  OG1       74.0450 -190.9000  -59.7380 O.3   102  THR102     -0.2211
     23  CG2       72.5680 -189.3770  -58.6120 C.3   102  THR102      0.0375
     24  N         69.6040 -186.7480  -63.4020 N.3   105  ILE105     -0.1231
     25  CA        68.2930 -187.3200  -63.1040 C.3   105  ILE105      0.1678
     26  C         67.3280 -186.2350  -62.6310 C.2   105  ILE105      0.2434
     27  O         67.7020 -185.3740  -61.8330 O.2   105  ILE105     -0.2733
     28  CB        68.3770 -188.4200  -62.0280 C.3   105  ILE105      0.0265
     29  CG1       69.3090 -189.5450  -62.4770 C.3   105  ILE105      0.0019
     30  CG2       66.9880 -188.9580  -61.7080 C.3   105  ILE105      0.0020
     31  CD1       69.3980 -190.6880  -61.4890 C.3   105  ILE105      0.0001
     32  N         66.0850 -186.2630  -63.1360 N.am  106  PRO106     -0.2718
     33  CA        65.0800 -185.2620  -62.7550 C.3   106  PRO106      0.1535
     34  C         64.7830 -185.2880  -61.2590 C.2   106  PRO106      0.2599
     35  O         64.5650 -186.3570  -60.6880 O.2   106  PRO106     -0.2715
     36  CB        63.8430 -185.6770  -63.5610 C.3   106  PRO106      0.0310
     37  CG        64.3770 -186.5140  -64.6850 C.3   106  PRO106      0.0237
     38  CD        65.5550 -187.2340  -64.1070 C.3   106  PRO106      0.0939
     39  N         64.7770 -184.1150  -60.6340 N.am  107  GLY107     -0.1941
     40  CA        64.5260 -184.0060  -59.2090 C.3   107  GLY107      0.2014
     41  C         65.7820 -183.6830  -58.4250 C.2   107  GLY107      0.2638
     42  O         65.7060 -183.1810  -57.3040 O.2   107  GLY107     -0.2714
     43  N         66.9380 -183.9540  -59.0260 N.am  108  ILE108     -0.1977
     44  CA        68.2280 -183.7510  -58.3710 C.3   108  ILE108      0.1596
     45  C         68.4480 -182.3160  -57.8930 C.2   108  ILE108      0.2287
     46  O         69.1280 -182.0900  -56.8940 O.2   108  ILE108     -0.2864
     47  CB        69.3860 -184.1280  -59.3100 C.3   108  ILE108      0.0276
     48  CG1       70.7110 -184.1300  -58.5460 C.3   108  ILE108      0.0022
     49  CG2       69.4650 -183.1510  -60.4700 C.3   108  ILE108      0.0022
     50  CD1       70.7580 -185.1220  -57.4110 C.3   108  ILE108      0.0001
     51  N         66.5710 -181.9200  -54.7850 N.3   111  ALA111     -0.1245
     52  CA        67.2360 -182.7350  -53.7830 C.3   111  ALA111      0.1562
     53  C         68.4280 -181.9870  -53.1930 C.2   111  ALA111      0.2260
     54  O         68.6190 -181.9770  -51.9790 O.2   111  ALA111     -0.2867
     55  CB        67.6800 -184.0580  -54.3840 C.3   111  ALA111      0.0290
     56  N         67.3140 -179.0690  -50.9740 N.3   114  PHE114     -0.1227
     57  CA        66.8790 -179.5030  -49.6570 C.3   114  PHE114      0.1736
     58  C         68.0960 -179.6990  -48.7720 C.2   114  PHE114      0.2595
     59  O         68.0630 -179.4300  -47.5690 O.2   114  PHE114     -0.2718
     60  CB        66.0960 -180.8150  -49.7380 C.3   114  PHE114      0.0547
     61  CG        65.4040 -181.1720  -48.4620 C.ar  114  PHE114     -0.0202
     62  CD1       64.3560 -180.3930  -48.0100 C.ar  114  PHE114     -0.0042
     63  CD2       65.8220 -182.2470  -47.6900 C.ar  114  PHE114     -0.0042
     64  CE1       63.7150 -180.6880  -46.8310 C.ar  114  PHE114     -0.0003
     65  CE2       65.1800 -182.5520  -46.5000 C.ar  114  PHE114     -0.0003
     66  CZ        64.1250 -181.7680  -46.0730 C.ar  114  PHE114     -0.0000
     67  N         69.1740 -180.1570  -49.3990 N.am  115  MET115     -0.1979
     68  CA        70.4310 -180.4200  -48.7230 C.3   115  MET115      0.1605
     69  C         71.0580 -179.1490  -48.1930 C.2   115  MET115      0.2287
     70  O         71.6960 -179.1510  -47.1380 O.2   115  MET115     -0.2864
     71  CB        71.4240 -181.0740  -49.6870 C.3   115  MET115      0.0413
     72  CG        71.1710 -182.5270  -50.0210 C.3   115  MET115      0.0598
     73  SD        72.3780 -183.1320  -51.2230 S.3   115  MET115     -0.1393
     74  CE        73.9050 -182.6420  -50.4240 C.3   115  MET115      0.0692
     75  N         69.1000 -178.1810  -45.2880 N.3   118  MET118     -0.1245
     76  CA        69.3480 -179.1650  -44.2430 C.3   118  MET118      0.1570
     77  C         70.6960 -178.9440  -43.5490 C.2   118  MET118      0.2261
     78  O         70.8040 -179.0720  -42.3270 O.2   118  MET118     -0.2867
     79  CB        69.2620 -180.5710  -44.8460 C.3   118  MET118      0.0387
     80  CG        68.9210 -181.6710  -43.8670 C.3   118  MET118      0.0595
     81  SD        68.3320 -183.1380  -44.7350 S.3   118  MET118     -0.1393
     82  CE        69.7470 -183.5200  -45.7630 C.3   118  MET118      0.0692
     83  N         71.9840 -177.4300  -39.5730 N.3   122  LYS122     -0.1245
     84  CA        73.0660 -178.0180  -38.7980 C.3   122  LYS122      0.1561
     85  C         74.0680 -176.9460  -38.3960 C.2   122  LYS122      0.2260
     86  O         74.6740 -177.0080  -37.3290 O.2   122  LYS122     -0.2867
     87  CB        73.7520 -179.1190  -39.6030 C.3   122  LYS122      0.0271
     88  CG        72.9970 -180.4360  -39.5890 C.3   122  LYS122      0.0035
     89  CD        73.7300 -181.5140  -40.3680 C.3   122  LYS122      0.0206
     90  CE        72.8950 -182.7820  -40.4590 C.3   122  LYS122      0.1093
     91  NZ        73.5410 -183.8160  -41.3100 N.3   122  LYS122     -0.1314
     92  N         58.7600 -181.8820  -50.0440 N.3   146  LEU146     -0.1245
     93  CA        59.8840 -182.7750  -49.7660 C.3   146  LEU146      0.1561
     94  C         60.0300 -183.0980  -48.2770 C.2   146  LEU146      0.2260
     95  O         60.3280 -184.2360  -47.9160 O.2   146  LEU146     -0.2867
     96  CB        61.1790 -182.1580  -50.2950 C.3   146  LEU146      0.0270
     97  CG        62.2980 -183.1140  -50.7010 C.3   146  LEU146      0.0019
     98  CD1       61.7400 -184.2360  -51.5620 C.3   146  LEU146      0.0001
     99  CD2       63.3920 -182.3590  -51.4330 C.3   146  LEU146      0.0001
    100  N         59.6540 -186.8150  -47.5440 N.3   150  LEU150     -0.1245
    101  CA        60.7590 -187.5290  -46.9130 C.3   150  LEU150      0.1561
    102  C         60.3070 -188.1230  -45.5850 C.2   150  LEU150      0.2260
    103  O         60.6940 -189.2310  -45.2230 O.2   150  LEU150     -0.2867
    104  CB        61.9530 -186.6010  -46.7000 C.3   150  LEU150      0.0270
    105  CG        62.9470 -186.5130  -47.8580 C.3   150  LEU150      0.0019
    106  CD1       64.1090 -185.6050  -47.4920 C.3   150  LEU150      0.0001
    107  CD2       63.4440 -187.9000  -48.2390 C.3   150  LEU150      0.0001
    108  N         58.1250 -191.3400  -46.3290 N.3   153  LEU153     -0.1245
    109  CA        58.9470 -192.4310  -46.8510 C.3   153  LEU153      0.1561
    110  C         59.8480 -193.0570  -45.7870 C.2   153  LEU153      0.2260
    111  O         59.9770 -194.2790  -45.7210 O.2   153  LEU153     -0.2867
    112  CB        59.8020 -191.9460  -48.0250 C.3   153  LEU153      0.0270
    113  CG        59.1510 -191.9920  -49.4090 C.3   153  LEU153      0.0019
    114  CD1       57.8560 -191.1930  -49.4330 C.3   153  LEU153      0.0001
    115  CD2       60.1180 -191.4940  -50.4750 C.3   153  LEU153      0.0001
    116  N         70.1440 -193.1540  -39.4710 N.3   162  LEU162     -0.1245
    117  CA        68.9500 -192.8160  -40.2430 C.3   162  LEU162      0.1561
    118  C         67.9240 -192.0500  -39.4160 C.2   162  LEU162      0.2260
    119  O         67.1650 -191.2450  -39.9470 O.2   162  LEU162     -0.2867
    120  CB        68.3140 -194.0760  -40.8320 C.3   162  LEU162      0.0270
    121  CG        69.0110 -194.6250  -42.0800 C.3   162  LEU162      0.0019
    122  CD1       68.2440 -195.8110  -42.6430 C.3   162  LEU162      0.0001
    123  CD2       69.1650 -193.5340  -43.1350 C.3   162  LEU162      0.0001
    124  N         68.7900 -188.3770  -39.4100 N.3   165  LEU165     -0.1245
    125  CA        68.3080 -187.7780  -40.6450 C.3   165  LEU165      0.1561
    126  C         66.8100 -187.5390  -40.5510 C.2   165  LEU165      0.2260
    127  O         66.3010 -186.5150  -41.0020 O.2   165  LEU165     -0.2867
    128  CB        68.6240 -188.6680  -41.8440 C.3   165  LEU165      0.0270
    129  CG        68.0180 -188.1780  -43.1590 C.3   165  LEU165      0.0019
    130  CD1       68.6210 -186.8410  -43.5600 C.3   165  LEU165      0.0001
    131  CD2       68.1950 -189.2160  -44.2550 C.3   165  LEU165      0.0001
@<TRIPOS>BOND
     1    37    38    1
     2    37    36    1
     3    38    32    1
     4    36    33    1
     5    24    25    1
     6    32    33    1
     7    32    26   am
     8    25    26    1
     9    25    28    1
    10    33    34    1
    11    26    27    2
    12    29    28    1
    13    29    31    1
    14    17    18    1
    15    28    30    1
    16    34    35    2
    17    34    39   am
    18    18    19    1
    19    18    21    1
    20    19    20    2
    21    39    40    1
    22    49    47    1
    23    22    21    1
    24    21    23    1
    25    47    48    1
    26    47    44    1
    27    40    41    1
    28    43    41   am
    29    43    44    1
    30     7     6    1
    31    48    50    1
    32    41    42    2
    33    44    45    1
    34     5     6    1
    35     5     2    1
    36    45    46    2
    37     6     8    1
    38     3     2    1
    39     3     4    2
    40     2     1    1
    41    51    52    1
    42    55    52    1
    43    52    53    1
    44     9    10    1
    45    53    54    2
    46    11    10    1
    47    11    12    2
    48    13    10    1
    49    13    14    1
    50    14    15    1
    51    98    97    1
    52    99    97    1
    53    73    74    1
    54    73    72    1
    55    56    57    1
    56    97    96    1
    57   115   113    1
    58    96    93    1
    59    15    16    1
    60    92    93    1
    61    72    71    1
    62    93    94    1
    63    60    57    1
    64    60    61    1
    65    71    68    1
    66    57    58    1
    67   114   113    1
    68   113   112    1
    69    67    58   am
    70    67    68    1
    71    58    59    2
    72    68    69    1
    73    61    62   ar
    74    61    63   ar
    75    94    95    2
    76   107   105    1
    77    69    70    2
    78   112   109    1
    79    62    64   ar
    80   105   106    1
    81   105   104    1
    82    63    65   ar
    83   100   101    1
    84   101   104    1
    85   101   102    1
    86   109   108    1
    87   109   110    1
    88    64    66   ar
    89    65    66   ar
    90   110   111    2
    91    82    81    1
    92   102   103    2
    93    75    76    1
    94    79    76    1
    95    79    80    1
    96    81    80    1
    97   131   129    1
    98    76    77    1
    99   130   129    1
   100    77    78    2
   101   129   128    1
   102   123   121    1
   103   122   121    1
   104   121   120    1
   105   128   125    1
   106    91    90    1
   107   127   126    2
   108   120   117    1
   109   125   126    1
   110   125   124    1
   111    90    89    1
   112    89    88    1
   113   117   116    1
   114   117   118    1
   115   119   118    2
   116    87    88    1
   117    87    84    1
   118    83    84    1
   119    84    85    1
   120    85    86    2
