@<TRIPOS>MOLECULE
tmp/4xwoB01.pdb
 82 78 0 0 0
SMALL
GASTEIGER

@<TRIPOS>ATOM
      1  N         95.8220 -250.6400 -141.3520 N.3    23  LYS23      -0.1231
      2  CA        95.6960 -249.9290 -140.0870 C.3    23  LYS23       0.1693
      3  C         94.2320 -249.7080 -139.7490 C.2    23  LYS23       0.2592
      4  O         93.3710 -249.7640 -140.6290 O.2    23  LYS23      -0.2718
      5  CB        96.4310 -248.5880 -140.1460 C.3    23  LYS23       0.0285
      6  CG        96.4380 -247.8440 -138.8300 C.3    23  LYS23       0.0035
      7  CD        97.2470 -246.5650 -138.9020 C.3    23  LYS23       0.0206
      8  CE        97.1190 -245.7960 -137.6010 C.3    23  LYS23       0.1093
      9  NZ        95.6860 -245.4830 -137.3350 N.3    23  LYS23      -0.1314
     10  N         93.9470 -249.4660 -138.4740 N.am   24  GLY24      -0.1957
     11  CA        92.5780 -249.2660 -138.0440 C.3    24  GLY24       0.1869
     12  C         91.9860 -247.9850 -138.6000 C.2    24  GLY24       0.2309
     13  O         92.6750 -246.9630 -138.6960 O.2    24  GLY24      -0.2863
     14  N         92.7310 -255.1920 -137.5300 N.3   137  PRO137     -0.2116
     15  CA        93.8770 -254.3210 -137.8150 C.3   137  PRO137      0.1372
     16  C         95.2020 -255.0850 -137.8950 C.2   137  PRO137      0.2244
     17  O         95.2920 -256.2290 -137.4440 O.2   137  PRO137     -0.2868
     18  CB        93.8630 -253.3390 -136.6440 C.3   137  PRO137      0.0268
     19  CG        92.4190 -253.2460 -136.2790 C.3   137  PRO137      0.0207
     20  CD        91.8730 -254.6410 -136.4670 C.3   137  PRO137      0.0892
     21  N         94.9340 -244.9030 -145.7150 N.3   192  ILE192     -0.1245
     22  CA        94.5470 -243.5420 -146.0410 C.3   192  ILE192      0.1561
     23  C         95.8320 -242.7900 -146.3310 C.2   192  ILE192      0.2260
     24  O         96.9010 -243.2060 -145.8960 O.2   192  ILE192     -0.2867
     25  CB        93.7540 -242.8660 -144.9110 C.3   192  ILE192      0.0252
     26  CG1       94.5980 -242.7480 -143.6430 C.3   192  ILE192      0.0019
     27  CG2       92.4810 -243.6370 -144.6280 C.3   192  ILE192      0.0019
     28  CD1       93.8600 -242.0940 -142.4860 C.3   192  ILE192      0.0001
     29  N         97.7590 -240.6440 -145.1850 N.3   194  GLU194     -0.1231
     30  CA        98.2500 -239.9000 -144.0390 C.3   194  GLU194      0.1699
     31  C         99.5830 -240.4440 -143.5430 C.2   194  GLU194      0.2592
     32  O         99.9400 -241.5880 -143.7990 O.2   194  GLU194     -0.2718
     33  CB        97.2240 -239.9260 -142.9070 C.3   194  GLU194      0.0402
     34  CG        96.0430 -239.0110 -143.1390 C.3   194  GLU194      0.1161
     35  CD        95.0690 -238.9910 -141.9750 C.2   194  GLU194      0.3649
     36  OE1       95.4460 -239.4590 -140.8790 O.co2 194  GLU194     -0.2457
     37  OE2       93.9200 -238.5310 -142.1630 O.co2 194  GLU194     -0.2457
     38  N        100.2850 -239.5990 -142.8040 N.am  195  PHE195     -0.1962
     39  CA       101.6260 -239.8430 -142.3030 C.3   195  PHE195      0.1771
     40  C        101.7360 -241.1500 -141.5060 C.2   195  PHE195      0.2619
     41  O        102.5320 -242.0210 -141.8530 O.2   195  PHE195     -0.2715
     42  CB       102.0370 -238.6450 -141.4400 C.3   195  PHE195      0.0574
     43  CG       100.8880 -238.0470 -140.6440 C.ar  195  PHE195     -0.0200
     44  CD1      100.8590 -238.1550 -139.2670 C.ar  195  PHE195     -0.0042
     45  CD2       99.8290 -237.3910 -141.2770 C.ar  195  PHE195     -0.0042
     46  CE1       99.8100 -237.6250 -138.5330 C.ar  195  PHE195     -0.0003
     47  CE2       98.7730 -236.8670 -140.5500 C.ar  195  PHE195     -0.0003
     48  CZ        98.7630 -236.9840 -139.1750 C.ar  195  PHE195     -0.0000
     49  N        100.9310 -241.2930 -140.4550 N.am  196  LEU196     -0.1963
     50  CA       100.9660 -242.4890 -139.6030 C.3   196  LEU196      0.1728
     51  C        100.5130 -243.7650 -140.3100 C.2   196  LEU196      0.2616
     52  O        100.8250 -244.8730 -139.8660 O.2   196  LEU196     -0.2715
     53  CB       100.1190 -242.2800 -138.3430 C.3   196  LEU196      0.0311
     54  CG       100.8230 -241.7540 -137.0860 C.3   196  LEU196      0.0022
     55  CD1      101.3760 -240.3510 -137.2540 C.3   196  LEU196      0.0001
     56  CD2       99.8760 -241.8160 -135.8870 C.3   196  LEU196      0.0001
     57  N         99.7730 -243.6150 -141.4000 N.am  197  SER197     -0.1950
     58  CA        99.2880 -244.7740 -142.1350 C.3   197  SER197      0.1924
     59  C        100.3320 -245.2770 -143.1130 C.2   197  SER197      0.2314
     60  O        100.3480 -246.4530 -143.4790 O.2   197  SER197     -0.2863
     61  CB        98.0000 -244.4420 -142.8790 C.3   197  SER197      0.2116
     62  OG        97.5240 -245.5830 -143.5690 O.3   197  SER197     -0.2180
     63  N        102.9850 -247.6810 -141.2940 N.3   200  GLU200     -0.1245
     64  CA       102.4270 -248.9470 -140.8480 C.3   200  GLU200      0.1567
     65  C        102.0590 -249.8080 -142.0460 C.2   200  GLU200      0.2260
     66  O        102.2460 -251.0240 -142.0230 O.2   200  GLU200     -0.2867
     67  CB       101.2030 -248.7250 -139.9650 C.3   200  GLU200      0.0388
     68  CG       100.5820 -250.0140 -139.4740 C.3   200  GLU200      0.1160
     69  CD        99.5600 -249.7780 -138.3870 C.2   200  GLU200      0.3649
     70  OE1       98.5720 -250.5430 -138.3210 O.co2 200  GLU200     -0.2457
     71  OE2       99.7510 -248.8310 -137.5920 O.co2 200  GLU200     -0.2457
     72  N         94.4030 -230.0240 -146.0080 N.3   236  ARG236     -0.1245
     73  CA        94.4770 -231.4690 -145.8590 C.3   236  ARG236      0.1563
     74  C         94.6630 -232.1500 -147.2140 C.2   236  ARG236      0.2260
     75  O         95.3310 -233.1770 -147.3080 O.2   236  ARG236     -0.2867
     76  CB        93.2270 -231.9900 -145.1440 C.3   236  ARG236      0.0307
     77  CG        93.1760 -231.5640 -143.6810 C.3   236  ARG236      0.0489
     78  CD        91.9750 -232.1070 -142.9440 C.3   236  ARG236      0.2205
     79  NE        91.8870 -233.5590 -143.0290 N.pl3 236  ARG236     -0.0865
     80  CZ        92.5530 -234.3920 -142.2390 C.cat 236  ARG236      0.5346
     81  NH1       93.3770 -233.9150 -141.3130 N.pl3 236  ARG236      0.1354
     82  NH2       92.4040 -235.7020 -142.3850 N.pl3 236  ARG236      0.1354
@<TRIPOS>BOND
     1    75    74    2
     2    74    73    1
     3    23    22    1
     4    23    24    2
     5    22    21    1
     6    22    25    1
     7    72    73    1
     8    73    76    1
     9    29    30    1
    10    76    77    1
    11    25    27    1
    12    25    26    1
    13    30    31    1
    14    30    33    1
    15    32    31    2
    16    77    78    1
    17    26    28    1
    18    62    61    1
    19    31    38   am
    20    60    59    2
    21    34    33    1
    22    34    35    1
    23    59    58    1
    24    79    78    1
    25    79    80    2
    26    61    58    1
    27    38    39    1
    28    82    80    1
    29    39    40    1
    30    39    42    1
    31    80    81    1
    32    37    35   ar
    33    58    57    1
    34    65    66    2
    35    65    64    1
    36    35    36   ar
    37    41    40    2
    38    40    49   am
    39    42    43    1
    40    57    51   am
    41     1     2    1
    42    63    64    1
    43    45    43   ar
    44    45    47   ar
    45    64    67    1
    46    43    44   ar
    47     4     3    2
    48    47    48   ar
    49    49    50    1
    50    51    52    2
    51    51    50    1
    52     5     2    1
    53     5     6    1
    54     2     3    1
    55    67    68    1
    56     3    10   am
    57    50    53    1
    58    68    69    1
    59    44    46   ar
    60    48    46   ar
    61     7     6    1
    62     7     8    1
    63    13    12    2
    64    12    11    1
    65    10    11    1
    66    69    70   ar
    67    69    71   ar
    68    53    54    1
    69    16    15    1
    70    16    17    2
    71    15    14    1
    72    15    18    1
    73     8     9    1
    74    14    20    1
    75    55    54    1
    76    54    56    1
    77    18    19    1
    78    20    19    1
