@<TRIPOS>MOLECULE
tmp/4xwtB00.pdb
 159 155 0 0 0
SMALL
GASTEIGER

@<TRIPOS>ATOM
      1  N         -5.7740  168.2540   23.8370 N.3    15  ILE15      -0.1245
      2  CA        -4.6000  167.6500   23.2340 C.3    15  ILE15       0.1561
      3  C         -3.7560  167.0350   24.3560 C.2    15  ILE15       0.2260
      4  O         -3.1300  167.7510   25.1380 O.2    15  ILE15      -0.2867
      5  CB        -3.7980  168.6830   22.4340 C.3    15  ILE15       0.0252
      6  CG1       -4.6550  169.2130   21.2800 C.3    15  ILE15       0.0019
      7  CG2       -2.5260  168.0630   21.8930 C.3    15  ILE15       0.0019
      8  CD1       -3.9810  170.2730   20.4420 C.3    15  ILE15       0.0001
      9  N          0.4940  167.1860   30.1640 N.3    37  PHE37      -0.1241
     10  CA         1.3230  168.0570   30.9740 C.3    37  PHE37       0.1605
     11  C          0.4710  169.1660   31.5780 C.2    37  PHE37       0.2264
     12  O         -0.5350  169.5560   30.9950 O.2    37  PHE37      -0.2867
     13  CB         2.4780  168.5990   30.1350 C.3    37  PHE37       0.0534
     14  CG         3.4960  167.5470   29.8100 C.ar   37  PHE37      -0.0203
     15  CD1        4.1990  166.9280   30.8370 C.ar   37  PHE37      -0.0042
     16  CD2        3.7280  167.1460   28.4990 C.ar   37  PHE37      -0.0042
     17  CE1        5.1320  165.9470   30.5680 C.ar   37  PHE37      -0.0003
     18  CE2        4.6710  166.1610   28.2200 C.ar   37  PHE37      -0.0003
     19  CZ         5.3700  165.5620   29.2550 C.ar   37  PHE37      -0.0000
     20  N          4.9560  158.7000   21.6870 N.3    71  HIS71      -0.1241
     21  CA         4.8890  160.0270   22.3210 C.3    71  HIS71       0.1621
     22  C          4.2410  159.9720   23.7070 C.2    71  HIS71       0.2264
     23  O          3.3760  159.1240   23.9820 O.2    71  HIS71      -0.2867
     24  CB         4.1040  160.9990   21.4590 C.3    71  HIS71       0.0745
     25  CG         4.9120  161.6160   20.3780 C.ar   71  HIS71       0.0817
     26  ND1        4.3480  162.0630   19.2020 N.ar   71  HIS71      -0.2268
     27  CD2        6.2340  161.8960   20.2910 C.ar   71  HIS71       0.1154
     28  CE1        5.2820  162.5860   18.4410 C.ar   71  HIS71       0.1986
     29  NE2        6.4440  162.4860   19.0730 N.ar   71  HIS71      -0.2212
     30  N          1.9960  161.6470   25.2190 N.3    73  ASP73      -0.1239
     31  CA         0.5400  161.7500   25.3360 C.3    73  ASP73       0.1674
     32  C         -0.1710  160.5030   24.7950 C.2    73  ASP73       0.2266
     33  O         -1.3990  160.4770   24.6830 O.2    73  ASP73      -0.2867
     34  CB         0.0230  163.0160   24.6340 C.3    73  ASP73       0.1410
     35  CG         0.3530  163.0520   23.1520 C.2    73  ASP73       0.3668
     36  OD1        1.5410  162.9010   22.7910 O.co2  73  ASP73      -0.2456
     37  OD2       -0.5930  163.2470   22.3570 O.co2  73  ASP73      -0.2456
     38  N          4.4610  160.6370   10.9080 N.3   138  HIS138     -0.1226
     39  CA         4.2110  161.4910   12.0640 C.3   138  HIS138      0.1752
     40  C          5.5710  162.0610   12.4030 C.2   138  HIS138      0.2596
     41  O          6.5100  161.9120   11.6210 O.2   138  HIS138     -0.2718
     42  CB         3.5730  160.6750   13.2130 C.3   138  HIS138      0.0759
     43  CG         3.1420  161.4780   14.3990 C.ar  138  HIS138      0.0818
     44  ND1        2.7050  162.7870   14.3120 N.ar  138  HIS138     -0.2268
     45  CD2        3.0800  161.1520   15.7110 C.ar  138  HIS138      0.1154
     46  CE1        2.3990  163.2270   15.5180 C.ar  138  HIS138      0.1986
     47  NE2        2.6290  162.2590   16.3930 N.ar  138  HIS138     -0.2212
     48  N          5.6890  162.7030   13.5520 N.am  139  SER139     -0.1952
     49  CA         6.9350  163.3260   13.9610 C.3   139  SER139      0.1924
     50  C          7.8010  162.3930   14.7990 C.2   139  SER139      0.2314
     51  O          8.7900  162.8400   15.3790 O.2   139  SER139     -0.2863
     52  CB         6.6300  164.5940   14.7470 C.3   139  SER139      0.2116
     53  OG         5.7170  164.3140   15.7900 O.3   139  SER139     -0.2180
     54  N         -5.5920  167.9150   15.3490 N.3   196  THR196     -0.1203
     55  CA        -4.6380  168.8830   15.9130 C.3   196  THR196      0.1994
     56  C         -4.4950  170.1800   15.1040 C.2   196  THR196      0.2617
     57  O         -4.6240  171.2870   15.6470 O.2   196  THR196     -0.2717
     58  CB        -3.2430  168.2650   16.0530 C.3   196  THR196      0.1784
     59  OG1       -3.3190  167.1350   16.9260 O.3   196  THR196     -0.2211
     60  CG2       -2.2350  169.3020   16.6780 C.3   196  THR196      0.0376
     61  N         -4.2430  170.0270   13.8090 N.am  197  ASN197     -0.1974
     62  CA        -4.0540  171.1570   12.9040 C.3   197  ASN197      0.1688
     63  C         -5.2480  171.4470   11.9940 C.2   197  ASN197      0.2292
     64  O         -5.0690  171.9770   10.8900 O.2   197  ASN197     -0.2864
     65  CB        -2.7930  170.9300   12.0560 C.3   197  ASN197      0.1181
     66  CG        -1.5260  171.2730   12.8140 C.2   197  ASN197      0.2629
     67  OD1       -1.5920  171.9380   13.8440 O.2   197  ASN197     -0.2716
     68  ND2       -0.3760  170.8370   12.3150 N.am  197  ASN197     -0.0877
     69  N         -5.6350  174.7360   10.3390 N.3   200  ARG200     -0.1245
     70  CA        -4.5170  175.2230    9.5210 C.3   200  ARG200      0.1563
     71  C         -4.7900  174.9310    8.0640 C.2   200  ARG200      0.2260
     72  O         -4.9700  173.7730    7.6850 O.2   200  ARG200     -0.2867
     73  CB        -3.1870  174.5940    9.9560 C.3   200  ARG200      0.0307
     74  CG        -2.1730  175.5840   10.5250 C.3   200  ARG200      0.0489
     75  CD        -1.8300  175.2790   11.9790 C.3   200  ARG200      0.2205
     76  NE        -0.4990  174.6930   12.1170 N.pl3 200  ARG200     -0.0865
     77  CZ         0.0940  174.4440   13.2810 C.cat 200  ARG200      0.5346
     78  NH1        1.3080  173.9120   13.3050 N.pl3 200  ARG200      0.1354
     79  NH2       -0.5280  174.7250   14.4190 N.pl3 200  ARG200      0.1354
     80  N         12.4420  169.0990   19.4420 N.3   230  PHE230     -0.1241
     81  CA        11.7870  168.1640   20.3560 C.3   230  PHE230      0.1605
     82  C         12.6030  166.8800   20.4960 C.2   230  PHE230      0.2264
     83  O         13.1580  166.3690   19.5270 O.2   230  PHE230     -0.2867
     84  CB        10.3680  167.8590   19.8870 C.3   230  PHE230      0.0534
     85  CG         9.4900  169.0690   19.8360 C.ar  230  PHE230     -0.0203
     86  CD1        9.1580  169.7470   21.0020 C.ar  230  PHE230     -0.0042
     87  CD2        9.0160  169.5560   18.6220 C.ar  230  PHE230     -0.0042
     88  CE1        8.3620  170.8750   20.9600 C.ar  230  PHE230     -0.0003
     89  CE2        8.2110  170.6980   18.5760 C.ar  230  PHE230     -0.0003
     90  CZ         7.8890  171.3520   19.7410 C.ar  230  PHE230     -0.0000
     91  N         11.8770  164.0140   18.1230 N.3   233  GLN233     -0.1245
     92  CA        11.7650  164.2220   16.6810 C.3   233  GLN233      0.1566
     93  C         12.9180  163.4750   16.0100 C.2   233  GLN233      0.2260
     94  O         13.9380  164.0600   15.6240 O.2   233  GLN233     -0.2867
     95  CB        11.7850  165.7130   16.3000 C.3   233  GLN233      0.0367
     96  CG        10.6200  166.1450   15.3450 C.3   233  GLN233      0.0905
     97  CD        10.4840  165.3060   14.0440 C.2   233  GLN233      0.2608
     98  OE1       11.2600  164.3770   13.7700 O.2   233  GLN233     -0.2717
     99  NE2        9.4820  165.6510   13.2390 N.am  233  GLN233     -0.0878
    100  N          4.9740  175.1230   22.1500 N.3   332  ILE332     -0.1231
    101  CA         3.7300  174.4650   22.5160 C.3   332  ILE332      0.1678
    102  C          2.8850  175.4950   23.2470 C.2   332  ILE332      0.2434
    103  O          3.4010  176.1800   24.1330 O.2   332  ILE332     -0.2733
    104  CB         3.9800  173.2520   23.4300 C.3   332  ILE332      0.0265
    105  CG1        4.5590  172.0790   22.6390 C.3   332  ILE332      0.0019
    106  CG2        2.7110  172.8570   24.1790 C.3   332  ILE332      0.0020
    107  CD1        4.9930  170.9170   23.5380 C.3   332  ILE332      0.0001
    108  N          1.6030  175.6260   22.8670 N.am  333  PRO333     -0.2729
    109  CA         0.6800  176.5430   23.5400 C.3   333  PRO333      0.1401
    110  C          0.9130  176.6340   25.0520 C.2   333  PRO333      0.2269
    111  O          1.0050  175.6150   25.7530 O.2   333  PRO333     -0.2865
    112  CB        -0.6840  175.9360   23.2200 C.3   333  PRO333      0.0296
    113  CG        -0.4950  175.3790   21.8320 C.3   333  PRO333      0.0237
    114  CD         0.9460  174.9120   21.7540 C.3   333  PRO333      0.0939
    115  N         10.8790  174.4870   11.2160 N.3   362  HIS362     -0.1226
    116  CA        10.0370  173.5210   11.9180 C.3   362  HIS362      0.1752
    117  C          8.8300  173.1550   11.1030 C.2   362  HIS362      0.2596
    118  O          8.2430  174.0110   10.4310 O.2   362  HIS362     -0.2718
    119  CB         9.5800  174.0510   13.2780 C.3   362  HIS362      0.0759
    120  CG         8.6950  173.0960   14.0090 C.ar  362  HIS362      0.0818
    121  ND1        9.1770  171.9520   14.6080 N.ar  362  HIS362     -0.2268
    122  CD2        7.3530  173.0770   14.1910 C.ar  362  HIS362      0.1154
    123  CE1        8.1730  171.2800   15.1430 C.ar  362  HIS362      0.1986
    124  NE2        7.0520  171.9380   14.9010 N.ar  362  HIS362     -0.2212
    125  N          8.4610  171.8730   11.1480 N.am  363  ALA363     -0.1966
    126  CA         7.1660  171.4530   10.6320 C.3   363  ALA363      0.1728
    127  C          6.4530  170.6090   11.6800 C.2   363  ALA363      0.2617
    128  O          7.0700  169.7830   12.3580 O.2   363  ALA363     -0.2715
    129  CB         7.3190  170.6820    9.3310 C.3   363  ALA363      0.0334
    130  N          5.1480  170.8200   11.8000 N.am  364  SER364     -0.1936
    131  CA         4.3370  170.0940   12.7620 C.3   364  SER364      0.2055
    132  C          4.3040  168.5920   12.4190 C.2   364  SER364      0.2644
    133  O          4.5210  168.2110   11.2730 O.2   364  SER364     -0.2714
    134  CB         2.9200  170.6650   12.7770 C.3   364  SER364      0.2130
    135  OG         2.0040  169.7760   13.3980 O.3   364  SER364     -0.2179
    136  N          4.0590  167.7560   13.4220 N.am  365  GLY365     -0.1939
    137  CA         3.8220  166.3450   13.1640 C.3   365  GLY365      0.2014
    138  C          2.3970  166.0730   12.7100 C.2   365  GLY365      0.2638
    139  O          2.0460  164.9270   12.4110 O.2   365  GLY365     -0.2714
    140  N          1.5510  167.1000   12.6450 N.am  366  HIS366     -0.1973
    141  CA         0.1460  166.8070   12.3590 C.3   366  HIS366      0.1656
    142  C         -0.3750  167.3990   11.0530 C.2   366  HIS366      0.2291
    143  O          0.0110  168.4950   10.6270 O.2   366  HIS366     -0.2864
    144  CB        -0.7460  167.2640   13.5200 C.3   366  HIS366      0.0771
    145  CG        -0.3860  166.6510   14.8360 C.ar  366  HIS366      0.0820
    146  ND1       -0.9880  165.5080   15.3220 N.ar  366  HIS366     -0.2267
    147  CD2        0.4900  167.0460   15.7910 C.ar  366  HIS366      0.1154
    148  CE1       -0.4780  165.2100   16.5030 C.ar  366  HIS366      0.1986
    149  NE2        0.4170  166.1350   16.8150 N.ar  366  HIS366     -0.2212
    150  N         -8.3050  163.8740   19.1160 N.3   388  HIS388     -0.1241
    151  CA        -6.9830  164.4950   19.3410 C.3   388  HIS388      0.1621
    152  C         -7.0720  165.9970   19.0950 C.2   388  HIS388      0.2264
    153  O         -6.2710  166.5500   18.3440 O.2   388  HIS388     -0.2867
    154  CB        -5.8910  163.8750   18.4300 C.3   388  HIS388      0.0745
    155  CG        -4.4880  163.9500   18.9780 C.ar  388  HIS388      0.0817
    156  ND1       -3.7390  165.1170   18.9920 N.ar  388  HIS388     -0.2268
    157  CD2       -3.6840  162.9870   19.5000 C.ar  388  HIS388      0.1154
    158  CE1       -2.5480  164.8670   19.5110 C.ar  388  HIS388      0.1986
    159  NE2       -2.4840  163.5810   19.8210 N.ar  388  HIS388     -0.2212
@<TRIPOS>BOND
     1    72    71    2
     2    71    70    1
     3   129   126    1
     4    70    73    1
     5    70    69    1
     6    73    74    1
     7   118   117    2
     8    74    75    1
     9   143   142    2
    10   126   125    1
    11   126   127    1
    12    64    63    2
    13    38    39    1
    14   142   141    1
    15   117   125   am
    16   117   116    1
    17   115   116    1
    18   133   132    2
    19    41    40    2
    20   127   130   am
    21   127   128    2
    22   130   131    1
    23   116   119    1
    24    75    76    1
    25    63    62    1
    26    65    66    1
    27    65    62    1
    28    39    40    1
    29    39    42    1
    30    76    77    2
    31    68    66   am
    32   141   140    1
    33   141   144    1
    34    40    48   am
    35   139   138    2
    36   132   131    1
    37   132   136   am
    38   140   138   am
    39   138   137    1
    40   131   134    1
    41   134   135    1
    42    66    67    2
    43    62    61    1
    44   137   136    1
    45    42    43    1
    46    99    97   am
    47   119   120    1
    48    77    78    1
    49    77    79    1
    50   144   145    1
    51    48    49    1
    52    98    97    2
    53    61    56   am
    54    49    52    1
    55    49    50    1
    56   120   122   ar
    57   120   121   ar
    58    97    96    1
    59   122   124   ar
    60    44    43   ar
    61    44    46   ar
    62    43    45   ar
    63   121   123   ar
    64    52    53    1
    65    50    51    2
    66   145   146   ar
    67   145   147   ar
    68   124   123   ar
    69    56    57    2
    70    56    55    1
    71   146   148   ar
    72    96    95    1
    73    54    55    1
    74    46    47   ar
    75    94    93    2
    76    45    47   ar
    77   147   149   ar
    78    55    58    1
    79    93    92    1
    80    58    60    1
    81    58    59    1
    82    95    92    1
    83   148   149   ar
    84    92    91    1
    85   153   152    2
    86   154   155    1
    87   154   151    1
    88    28    29   ar
    89    28    26   ar
    90    89    87   ar
    91    89    90   ar
    92    87    85   ar
    93   155   156   ar
    94   155   157   ar
    95   156   158   ar
    96    29    27   ar
    97   152   151    1
    98   150   151    1
    99    26    25   ar
   100    80    81    1
   101   157   159   ar
   102   158   159   ar
   103    83    82    2
   104    90    88   ar
   105    85    84    1
   106    85    86   ar
   107    84    81    1
   108    27    25   ar
   109    81    82    1
   110    25    24    1
   111     8     6    1
   112    88    86   ar
   113     6     5    1
   114    24    21    1
   115    20    21    1
   116   114   113    1
   117   114   108    1
   118   113   112    1
   119     7     5    1
   120   100   101    1
   121    21    22    1
   122    37    35   ar
   123     5     2    1
   124   101   102    1
   125   101   104    1
   126   105   104    1
   127   105   107    1
   128    36    35   ar
   129   108   102   am
   130   108   109    1
   131    35    34    1
   132   112   109    1
   133     2     1    1
   134     2     3    1
   135   102   103    2
   136   104   106    1
   137   109   110    1
   138    22    23    2
   139     3     4    2
   140    34    31    1
   141    33    32    2
   142    32    31    1
   143   110   111    2
   144    30    31    1
   145    18    16   ar
   146    18    19   ar
   147    16    14   ar
   148    19    17   ar
   149    14    13    1
   150    14    15   ar
   151    13    10    1
   152     9    10    1
   153    17    15   ar
   154    10    11    1
   155    12    11    2
