@<TRIPOS>MOLECULE
tmp/4xwzA02.pdb
 102 96 0 0 0
SMALL
GASTEIGER

@<TRIPOS>ATOM
      1  N          0.8870   28.0330  -44.9160 N.3    52  LYS52      -0.1231
      2  CA         0.0750   28.8500  -45.8100 C.3    52  LYS52       0.1693
      3  C         -1.3730   28.3900  -45.6930 C.2    52  LYS52       0.2591
      4  O         -1.6480   27.2850  -45.2150 O.2    52  LYS52      -0.2718
      5  CB         0.5370   28.6860  -47.2630 C.3    52  LYS52       0.0285
      6  CG         1.9940   29.0290  -47.5110 C.3    52  LYS52       0.0035
      7  CD         2.2140   30.5270  -47.6380 C.3    52  LYS52       0.0206
      8  CE         3.5130   30.8300  -48.3680 C.3    52  LYS52       0.1093
      9  NZ         3.9710   32.2280  -48.1580 N.3    52  LYS52      -0.1314
     10  N         -2.2870   29.2190  -46.1810 N.am   53  ILE53      -0.1980
     11  CA        -3.7060   28.8970  -46.1720 C.3    53  ILE53       0.1595
     12  C         -4.0760   28.0460  -47.3840 C.2    53  ILE53       0.2287
     13  O         -3.6250   28.3130  -48.5030 O.2    53  ILE53      -0.2864
     14  CB        -4.5570   30.1800  -46.1820 C.3    53  ILE53       0.0276
     15  CG1       -4.2130   31.0480  -44.9710 C.3    53  ILE53       0.0022
     16  CG2       -6.0390   29.8300  -46.1970 C.3    53  ILE53       0.0022
     17  CD1       -4.7880   32.4460  -45.0250 C.3    53  ILE53       0.0001
     18  N          4.7980   40.7950  -49.4630 N.3   237  TRP237     -0.1241
     19  CA         4.0680   40.8850  -48.2120 C.3   237  TRP237      0.1605
     20  C          4.9650   40.4740  -47.0580 C.2   237  TRP237      0.2264
     21  O          6.1470   40.1710  -47.2540 O.2   237  TRP237     -0.2867
     22  CB         2.8200   40.0080  -48.2620 C.3   237  TRP237      0.0550
     23  CG         1.7380   40.5880  -49.1190 C.ar  237  TRP237      0.0003
     24  CD1        0.7550   41.4400  -48.7190 C.ar  237  TRP237      0.0946
     25  CD2        1.6250   40.4880  -50.5460 C.ar  237  TRP237      0.0152
     26  NE1        0.0770   41.9280  -49.8100 N.ar  237  TRP237     -0.2442
     27  CE2        0.5560   41.3170  -50.9400 C.ar  237  TRP237      0.0810
     28  CE3        2.3010   39.7500  -51.5240 C.ar  237  TRP237      0.0012
     29  CZ2        0.2080   41.5050  -52.2790 C.ar  237  TRP237      0.0191
     30  CZ3        1.9150   39.8910  -52.8500 C.ar  237  TRP237      0.0001
     31  CH2        0.9090   40.7970  -53.2180 C.ar  237  TRP237      0.0015
     32  N         -8.5950   35.0520  -40.3970 N.3   259  PHE259     -0.1241
     33  CA        -8.2100   36.0190  -41.4200 C.3   259  PHE259      0.1605
     34  C         -9.1900   37.1920  -41.4350 C.2   259  PHE259      0.2264
     35  O        -10.3860   37.0030  -41.6390 O.2   259  PHE259     -0.2867
     36  CB        -8.1950   35.3360  -42.7910 C.3   259  PHE259      0.0534
     37  CG        -7.9060   36.2660  -43.9360 C.ar  259  PHE259     -0.0203
     38  CD1       -6.9710   37.2810  -43.8080 C.ar  259  PHE259     -0.0042
     39  CD2       -8.4850   36.0520  -45.1740 C.ar  259  PHE259     -0.0042
     40  CE1       -6.6060   38.0490  -44.8960 C.ar  259  PHE259     -0.0003
     41  CE2       -8.1520   36.8410  -46.2590 C.ar  259  PHE259     -0.0003
     42  CZ        -7.1970   37.8300  -46.1250 C.ar  259  PHE259     -0.0000
     43  N         -3.8240   37.7310  -40.7620 N.3   265  PHE265     -0.1241
     44  CA        -4.1580   36.3890  -40.3160 C.3   265  PHE265      0.1605
     45  C         -3.0290   35.8040  -39.4800 C.2   265  PHE265      0.2264
     46  O         -1.8920   36.2830  -39.5270 O.2   265  PHE265     -0.2867
     47  CB        -4.4590   35.4770  -41.5130 C.3   265  PHE265      0.0534
     48  CG        -3.3680   35.4390  -42.5470 C.ar  265  PHE265     -0.0203
     49  CD1       -3.4290   36.2600  -43.6640 C.ar  265  PHE265     -0.0042
     50  CD2       -2.3970   34.4500  -42.5070 C.ar  265  PHE265     -0.0042
     51  CE1       -2.5180   36.1260  -44.6970 C.ar  265  PHE265     -0.0003
     52  CE2       -1.4480   34.3470  -43.5090 C.ar  265  PHE265     -0.0003
     53  CZ        -1.5000   35.1970  -44.6000 C.ar  265  PHE265     -0.0000
     54  N          0.7520   37.4130  -40.4380 N.3   279  CYS279     -0.1235
     55  CA         0.8580   38.2970  -41.5920 C.3   279  CYS279      0.1677
     56  C         -0.0840   39.4740  -41.4160 C.2   279  CYS279      0.2270
     57  O         -1.2840   39.2870  -41.2210 O.2   279  CYS279     -0.2867
     58  CB         0.4750   37.5560  -42.8660 C.3   279  CYS279      0.0956
     59  SG         1.6810   36.3350  -43.4080 S.3   279  CYS279     -0.0801
     60  N         -2.1880   42.2130  -43.2630 N.3   281  GLU281     -0.1245
     61  CA        -2.7550   42.2520  -44.6060 C.3   281  GLU281      0.1567
     62  C         -2.7780   43.6820  -45.1400 C.2   281  GLU281      0.2260
     63  O         -2.9100   44.6370  -44.3750 O.2   281  GLU281     -0.2867
     64  CB        -4.1660   41.6490  -44.6220 C.3   281  GLU281      0.0388
     65  CG        -4.8800   41.7440  -45.9680 C.3   281  GLU281      0.1160
     66  CD        -4.1790   40.9810  -47.0880 C.2   281  GLU281      0.3649
     67  OE1       -3.0080   40.5830  -46.9110 O.co2 281  GLU281     -0.2457
     68  OE2       -4.7660   40.8680  -48.1890 O.co2 281  GLU281     -0.2457
     69  N          5.7780   37.5730  -54.2900 N.3   340  ASP340     -0.1239
     70  CA         5.0480   36.8440  -55.3240 C.3   340  ASP340      0.1674
     71  C          4.9170   37.7850  -56.5210 C.2   340  ASP340      0.2266
     72  O          5.4910   38.8740  -56.5240 O.2   340  ASP340     -0.2867
     73  CB         3.6640   36.4390  -54.8040 C.3   340  ASP340      0.1410
     74  CG         3.0640   35.2580  -55.5650 C.2   340  ASP340      0.3668
     75  OD1        3.6730   34.7950  -56.5530 O.co2 340  ASP340     -0.2456
     76  OD2        1.9540   34.8180  -55.1940 O.co2 340  ASP340     -0.2456
     77  N         -5.1110   38.5640  -61.4530 N.3   346  ARG346     -0.1245
     78  CA        -4.7240   37.6290  -60.3990 C.3   346  ARG346      0.1563
     79  C         -5.2090   36.1990  -60.6430 C.2   346  ARG346      0.2260
     80  O         -5.1970   35.3750  -59.7280 O.2   346  ARG346     -0.2867
     81  CB        -5.1860   38.1410  -59.0320 C.3   346  ARG346      0.0307
     82  CG        -4.3760   39.3350  -58.5370 C.3   346  ARG346      0.0489
     83  CD        -4.7920   39.7910  -57.1480 C.3   346  ARG346      0.2205
     84  NE        -4.5030   38.7830  -56.1340 N.pl3 346  ARG346     -0.0865
     85  CZ        -5.1160   38.7080  -54.9580 C.cat 346  ARG346      0.5346
     86  NH1       -5.9960   39.6370  -54.6060 N.pl3 346  ARG346      0.1354
     87  NH2       -4.8810   37.6790  -54.1530 N.pl3 346  ARG346      0.1354
     88  N         -0.6820   35.5210  -55.0860 N.3   367  GLY367     -0.1225
     89  CA        -1.1230   35.4280  -53.6980 C.3   367  GLY367      0.1811
     90  C         -1.8940   34.1550  -53.3800 C.2   367  GLY367      0.2280
     91  O         -2.3540   33.9740  -52.2510 O.2   367  GLY367     -0.2866
     92  N         -7.1590   43.7530  -52.7890 N.3   414  ARG414     -0.1245
     93  CA        -6.6430   43.6330  -51.4350 C.3   414  ARG414      0.1563
     94  C         -6.9780   44.8690  -50.6130 C.2   414  ARG414      0.2260
     95  O         -7.1060   45.9730  -51.1510 O.2   414  ARG414     -0.2867
     96  CB        -5.1290   43.4210  -51.4590 C.3   414  ARG414      0.0307
     97  CG        -4.7120   42.1170  -52.1120 C.3   414  ARG414      0.0489
     98  CD        -3.2190   41.8990  -52.0120 C.3   414  ARG414      0.2205
     99  NE        -2.8130   40.6120  -52.5700 N.pl3 414  ARG414     -0.0865
    100  CZ        -2.3970   40.4310  -53.8190 C.cat 414  ARG414      0.5346
    101  NH1       -2.3810   41.4460  -54.6760 N.pl3 414  ARG414      0.1354
    102  NH2       -1.8700   39.2680  -54.1690 N.pl3 414  ARG414      0.1354
@<TRIPOS>BOND
     1    77    78    1
     2    79    78    1
     3    79    80    2
     4    78    81    1
     5    81    82    1
     6    82    83    1
     7    83    84    1
     8    75    74   ar
     9    72    71    2
    10    71    70    1
    11    84    85    2
    12    74    76   ar
    13    74    73    1
    14    70    73    1
    15    70    69    1
    16    88    89    1
    17    85    86    1
    18    85    87    1
    19   101   100    1
    20   102   100    1
    21   100    99    2
    22    89    90    1
    23    90    91    2
    24    31    30   ar
    25    31    29   ar
    26    30    28   ar
    27    92    93    1
    28    99    98    1
    29    29    27   ar
    30    97    98    1
    31    97    96    1
    32    28    25   ar
    33    96    93    1
    34    93    94    1
    35    95    94    2
    36    27    25   ar
    37    27    26   ar
    38    25    23   ar
    39    26    24   ar
    40    18    19    1
    41    23    24   ar
    42    23    22    1
    43    13    12    2
    44     8     9    1
    45     8     7    1
    46    22    19    1
    47    19    20    1
    48    68    66   ar
    49     7     6    1
    50     6     5    1
    51    12    11    1
    52     5     2    1
    53    21    20    2
    54    66    67   ar
    55    66    65    1
    56    41    42   ar
    57    41    39   ar
    58    16    14    1
    59    14    11    1
    60    14    15    1
    61    10    11    1
    62    10     3   am
    63    42    40   ar
    64    65    64    1
    65     2     3    1
    66     2     1    1
    67     3     4    2
    68    39    37   ar
    69    62    61    1
    70    62    63    2
    71    17    15    1
    72    40    38   ar
    73    51    53   ar
    74    51    49   ar
    75    64    61    1
    76    61    60    1
    77    53    52   ar
    78    37    38   ar
    79    37    36    1
    80    49    48   ar
    81    52    50   ar
    82    59    58    1
    83    58    55    1
    84    36    33    1
    85    48    50   ar
    86    48    47    1
    87    35    34    2
    88    55    56    1
    89    55    54    1
    90    47    44    1
    91    34    33    1
    92    33    32    1
    93    56    57    2
    94    43    44    1
    95    44    45    1
    96    46    45    2
