@<TRIPOS>MOLECULE
tmp/4xwzA01.pdb
 118 110 0 0 0
SMALL
GASTEIGER

@<TRIPOS>ATOM
      1  N         -2.2870   29.2190  -46.1810 N.3    53  ILE53      -0.1245
      2  CA        -3.7060   28.8970  -46.1720 C.3    53  ILE53       0.1561
      3  C         -4.0760   28.0460  -47.3840 C.2    53  ILE53       0.2260
      4  O         -3.6250   28.3130  -48.5030 O.2    53  ILE53      -0.2867
      5  CB        -4.5570   30.1800  -46.1820 C.3    53  ILE53       0.0252
      6  CG1       -4.2130   31.0480  -44.9710 C.3    53  ILE53       0.0019
      7  CG2       -6.0390   29.8300  -46.1970 C.3    53  ILE53       0.0019
      8  CD1       -4.7880   32.4460  -45.0250 C.3    53  ILE53       0.0001
      9  N         -7.6790   26.7150  -49.1710 N.3    55  GLU55      -0.1245
     10  CA        -9.1370   26.7980  -49.1790 C.3    55  GLU55       0.1567
     11  C         -9.7010   26.4160  -50.5400 C.2    55  GLU55       0.2260
     12  O         -9.2220   26.8740  -51.5740 O.2    55  GLU55      -0.2867
     13  CB        -9.6090   28.2100  -48.8270 C.3    55  GLU55       0.0388
     14  CG       -11.1090   28.3870  -49.0100 C.3    55  GLU55       0.1160
     15  CD       -11.5890   29.7860  -48.6830 C.2    55  GLU55       0.3649
     16  OE1      -10.9580   30.7570  -49.1520 O.co2  55  GLU55      -0.2457
     17  OE2      -12.6840   29.9080  -48.0920 O.co2  55  GLU55      -0.2457
     18  N        -10.4400   28.9370  -61.0180 N.3    71  PHE71      -0.1241
     19  CA        -9.7670   28.8770  -59.7220 C.3    71  PHE71       0.1605
     20  C        -10.3080   27.7150  -58.8990 C.2    71  PHE71       0.2264
     21  O         -9.5460   26.9640  -58.2930 O.2    71  PHE71      -0.2867
     22  CB        -9.9440   30.1820  -58.9460 C.3    71  PHE71       0.0534
     23  CG        -9.0300   30.3030  -57.7580 C.ar   71  PHE71      -0.0203
     24  CD1       -7.6620   30.4280  -57.9360 C.ar   71  PHE71      -0.0042
     25  CD2       -9.5160   30.1140  -56.4740 C.ar   71  PHE71      -0.0042
     26  CE1       -6.8030   30.4200  -56.8540 C.ar   71  PHE71      -0.0003
     27  CE2       -8.6670   30.1450  -55.3840 C.ar   71  PHE71      -0.0003
     28  CZ        -7.3050   30.2640  -55.5750 C.ar   71  PHE71      -0.0000
     29  N        -11.3160   27.6210  -41.7350 N.3    97  PHE97      -0.1241
     30  CA       -10.8840   28.9330  -42.2120 C.3    97  PHE97       0.1605
     31  C        -11.9600   29.9640  -41.8910 C.2    97  PHE97       0.2264
     32  O        -13.1250   29.7710  -42.2300 O.2    97  PHE97      -0.2867
     33  CB       -10.6450   28.8780  -43.7210 C.3    97  PHE97       0.0534
     34  CG       -10.3690   30.2140  -44.3490 C.ar   97  PHE97      -0.0203
     35  CD1       -9.2000   30.8990  -44.0670 C.ar   97  PHE97      -0.0042
     36  CD2      -11.1970   30.7010  -45.3500 C.ar   97  PHE97      -0.0042
     37  CE1       -8.9000   32.0850  -44.7110 C.ar   97  PHE97      -0.0003
     38  CE2      -10.8970   31.8830  -46.0050 C.ar   97  PHE97      -0.0003
     39  CZ        -9.7180   32.5470  -45.7210 C.ar   97  PHE97      -0.0000
     40  N        -13.0680   33.8610  -42.3980 N.3    99  ILE99      -0.1245
     41  CA       -12.8800   35.1190  -43.1060 C.3    99  ILE99       0.1561
     42  C        -13.7780   36.2010  -42.5080 C.2    99  ILE99       0.2260
     43  O        -14.9180   35.9300  -42.1290 O.2    99  ILE99      -0.2867
     44  CB       -13.1880   34.9530  -44.6100 C.3    99  ILE99       0.0252
     45  CG1      -12.8680   36.2410  -45.3690 C.3    99  ILE99       0.0019
     46  CG2      -14.6400   34.5590  -44.8180 C.3    99  ILE99       0.0019
     47  CD1      -12.5840   36.0150  -46.8380 C.3    99  ILE99       0.0001
     48  N        -17.6560   36.3910  -51.3130 N.3   114  GLU114     -0.1245
     49  CA       -17.1180   35.1220  -50.8410 C.3   114  GLU114      0.1567
     50  C        -18.2250   34.1790  -50.3810 C.2   114  GLU114      0.2260
     51  O        -18.1580   32.9750  -50.6190 O.2   114  GLU114     -0.2867
     52  CB       -16.1190   35.3500  -49.7030 C.3   114  GLU114      0.0388
     53  CG       -15.1520   36.4990  -49.9450 C.3   114  GLU114      0.1160
     54  CD       -14.2560   36.2710  -51.1490 C.2   114  GLU114      0.3649
     55  OE1      -13.9820   35.0980  -51.4820 O.co2 114  GLU114     -0.2457
     56  OE2      -13.7970   37.2700  -51.7430 O.co2 114  GLU114     -0.2457
     57  N         -8.5950   35.0520  -40.3970 N.3   259  PHE259     -0.1241
     58  CA        -8.2100   36.0190  -41.4200 C.3   259  PHE259      0.1605
     59  C         -9.1900   37.1920  -41.4350 C.2   259  PHE259      0.2264
     60  O        -10.3860   37.0030  -41.6390 O.2   259  PHE259     -0.2867
     61  CB        -8.1950   35.3360  -42.7910 C.3   259  PHE259      0.0534
     62  CG        -7.9060   36.2660  -43.9360 C.ar  259  PHE259     -0.0203
     63  CD1       -6.9710   37.2810  -43.8080 C.ar  259  PHE259     -0.0042
     64  CD2       -8.4850   36.0520  -45.1740 C.ar  259  PHE259     -0.0042
     65  CE1       -6.6060   38.0490  -44.8960 C.ar  259  PHE259     -0.0003
     66  CE2       -8.1520   36.8410  -46.2590 C.ar  259  PHE259     -0.0003
     67  CZ        -7.1970   37.8300  -46.1250 C.ar  259  PHE259     -0.0000
     68  N         -3.8240   37.7310  -40.7620 N.3   265  PHE265     -0.1241
     69  CA        -4.1580   36.3890  -40.3160 C.3   265  PHE265      0.1605
     70  C         -3.0290   35.8040  -39.4800 C.2   265  PHE265      0.2264
     71  O         -1.8920   36.2830  -39.5270 O.2   265  PHE265     -0.2867
     72  CB        -4.4590   35.4770  -41.5130 C.3   265  PHE265      0.0534
     73  CG        -3.3680   35.4390  -42.5470 C.ar  265  PHE265     -0.0203
     74  CD1       -3.4290   36.2600  -43.6640 C.ar  265  PHE265     -0.0042
     75  CD2       -2.3970   34.4500  -42.5070 C.ar  265  PHE265     -0.0042
     76  CE1       -2.5180   36.1260  -44.6970 C.ar  265  PHE265     -0.0003
     77  CE2       -1.4480   34.3470  -43.5090 C.ar  265  PHE265     -0.0003
     78  CZ        -1.5000   35.1970  -44.6000 C.ar  265  PHE265     -0.0000
     79  N         -2.1880   42.2130  -43.2630 N.3   281  GLU281     -0.1245
     80  CA        -2.7550   42.2520  -44.6060 C.3   281  GLU281      0.1567
     81  C         -2.7780   43.6820  -45.1400 C.2   281  GLU281      0.2260
     82  O         -2.9100   44.6370  -44.3750 O.2   281  GLU281     -0.2867
     83  CB        -4.1660   41.6490  -44.6220 C.3   281  GLU281      0.0388
     84  CG        -4.8800   41.7440  -45.9680 C.3   281  GLU281      0.1160
     85  CD        -4.1790   40.9810  -47.0880 C.2   281  GLU281      0.3649
     86  OE1       -3.0080   40.5830  -46.9110 O.co2 281  GLU281     -0.2457
     87  OE2       -4.7660   40.8680  -48.1890 O.co2 281  GLU281     -0.2457
     88  N         -5.1110   38.5640  -61.4530 N.3   346  ARG346     -0.1245
     89  CA        -4.7240   37.6290  -60.3990 C.3   346  ARG346      0.1563
     90  C         -5.2090   36.1990  -60.6430 C.2   346  ARG346      0.2260
     91  O         -5.1970   35.3750  -59.7280 O.2   346  ARG346     -0.2867
     92  CB        -5.1860   38.1410  -59.0320 C.3   346  ARG346      0.0307
     93  CG        -4.3760   39.3350  -58.5370 C.3   346  ARG346      0.0489
     94  CD        -4.7920   39.7910  -57.1480 C.3   346  ARG346      0.2205
     95  NE        -4.5030   38.7830  -56.1340 N.pl3 346  ARG346     -0.0865
     96  CZ        -5.1160   38.7080  -54.9580 C.cat 346  ARG346      0.5346
     97  NH1       -5.9960   39.6370  -54.6060 N.pl3 346  ARG346      0.1354
     98  NH2       -4.8810   37.6790  -54.1530 N.pl3 346  ARG346      0.1354
     99  N         -0.6820   35.5210  -55.0860 N.3   367  GLY367     -0.1210
    100  CA        -1.1230   35.4280  -53.6980 C.3   367  GLY367      0.1956
    101  C         -1.8940   34.1550  -53.3800 C.2   367  GLY367      0.2611
    102  O         -2.3540   33.9740  -52.2510 O.2   367  GLY367     -0.2717
    103  N         -1.9830   33.2450  -54.3470 N.am  368  ASN368     -0.1974
    104  CA        -2.8460   32.0650  -54.2260 C.3   368  ASN368      0.1688
    105  C         -2.1730   30.7890  -54.7290 C.2   368  ASN368      0.2292
    106  O         -2.8470   29.8070  -55.0320 O.2   368  ASN368     -0.2864
    107  CB        -4.1350   32.2730  -55.0260 C.3   368  ASN368      0.1181
    108  CG        -5.1410   33.1340  -54.2980 C.2   368  ASN368      0.2629
    109  OD1       -5.6750   34.0860  -54.8620 O.2   368  ASN368     -0.2716
    110  ND2       -5.4930   32.7310  -53.0830 N.am  368  ASN368     -0.0877
    111  N         -1.1230   26.9520  -52.1140 N.3   371  MET371     -0.1245
    112  CA        -2.1030   25.9000  -51.8930 C.3   371  MET371      0.1570
    113  C         -2.2300   24.9780  -53.1100 C.2   371  MET371      0.2261
    114  O         -2.6690   23.8380  -52.9790 O.2   371  MET371     -0.2867
    115  CB        -3.4590   26.5030  -51.5220 C.3   371  MET371      0.0387
    116  CG        -4.2210   27.1270  -52.6770 C.3   371  MET371      0.0595
    117  SD        -5.7960   27.8420  -52.1470 S.3   371  MET371     -0.1393
    118  CE        -5.2370   29.3580  -51.3720 C.3   371  MET371      0.0692
@<TRIPOS>BOND
     1    88    89    1
     2    18    19    1
     3    90    89    1
     4    90    91    2
     5    89    92    1
     6    19    22    1
     7    19    20    1
     8    92    93    1
     9    22    23    1
    10    20    21    2
    11    93    94    1
    12    24    23   ar
    13    24    26   ar
    14    23    25   ar
    15    94    95    1
    16    26    28   ar
    17    25    27   ar
    18    95    96    2
    19    28    27   ar
    20    99   100    1
    21   106   105    2
    22   107   108    1
    23   107   104    1
    24    96    97    1
    25    96    98    1
    26   109   108    2
    27   105   104    1
    28   103   104    1
    29   103   101   am
    30   108   110   am
    31   100   101    1
    32   101   102    2
    33   113   114    2
    34   113   112    1
    35   116   117    1
    36   116   115    1
    37   117   118    1
    38   111   112    1
    39   112   115    1
    40    56    54   ar
    41    12    11    2
    42    55    54   ar
    43    48    49    1
    44    54    53    1
    45    49    50    1
    46    49    52    1
    47    51    50    2
    48    11    10    1
    49    53    52    1
    50    10     9    1
    51    10    13    1
    52    16    15   ar
    53    14    13    1
    54    14    15    1
    55    15    17   ar
    56     4     3    2
    57    87    85   ar
    58     3     2    1
    59    85    86   ar
    60    85    84    1
    61    47    45    1
    62    66    67   ar
    63    66    64   ar
    64     7     5    1
    65     5     2    1
    66     5     6    1
    67     1     2    1
    68    67    65   ar
    69    38    39   ar
    70    38    36   ar
    71    84    83    1
    72    39    37   ar
    73    45    44    1
    74    36    34   ar
    75    64    62   ar
    76    81    80    1
    77    81    82    2
    78     8     6    1
    79    65    63   ar
    80    46    44    1
    81    37    35   ar
    82    76    78   ar
    83    76    74   ar
    84    83    80    1
    85    44    41    1
    86    80    79    1
    87    78    77   ar
    88    34    35   ar
    89    34    33    1
    90    62    63   ar
    91    62    61    1
    92    33    30    1
    93    74    73   ar
    94    77    75   ar
    95    41    42    1
    96    41    40    1
    97    61    58    1
    98    73    75   ar
    99    73    72    1
   100    42    43    2
   101    32    31    2
   102    30    31    1
   103    30    29    1
   104    60    59    2
   105    72    69    1
   106    59    58    1
   107    58    57    1
   108    68    69    1
   109    69    70    1
   110    71    70    2
