@<TRIPOS>MOLECULE
tmp/4xx4A01.pdb
 158 150 0 0 0
SMALL
GASTEIGER

@<TRIPOS>ATOM
      1  N         39.6290   63.8920   53.9950 N.3    17  THR17      -0.1203
      2  CA        39.4840   63.3560   52.6370 C.3    17  THR17       0.1994
      3  C         38.1720   62.6090   52.4000 C.2    17  THR17       0.2617
      4  O         37.7910   62.4090   51.2490 O.2    17  THR17      -0.2717
      5  CB        40.7040   62.4660   52.2300 C.3    17  THR17       0.1784
      6  OG1       40.8090   61.3610   53.1280 O.3    17  THR17      -0.2211
      7  CG2       42.0220   63.2240   52.1620 C.3    17  THR17       0.0376
      8  N         37.5160   62.1320   53.4690 N.am   18  GLN18      -0.1979
      9  CA        36.2570   61.3860   53.3350 C.3    18  GLN18       0.1601
     10  C         35.2780   61.9130   54.3740 C.2    18  GLN18       0.2287
     11  O         35.6040   61.9790   55.5550 O.2    18  GLN18      -0.2864
     12  CB        36.4820   59.8700   53.5120 C.3    18  GLN18       0.0394
     13  CG        37.5260   59.2560   52.5570 C.3    18  GLN18       0.0908
     14  CD        37.8230   57.8080   52.8360 C.2    18  GLN18       0.2608
     15  OE1       36.9420   57.0580   53.2340 O.2    18  GLN18      -0.2717
     16  NE2       39.0610   57.3690   52.6020 N.am   18  GLN18      -0.0878
     17  N         28.9340   58.5420   51.5880 N.3    35  VAL35      -0.1245
     18  CA        29.3820   59.8660   51.1420 C.3    35  VAL35       0.1561
     19  C         28.1760   60.4580   50.3820 C.2    35  VAL35       0.2260
     20  O         27.5750   59.7650   49.5450 O.2    35  VAL35      -0.2867
     21  CB        30.6250   59.7770   50.2110 C.3    35  VAL35       0.0252
     22  CG1       30.9880   61.1420   49.6110 C.3    35  VAL35       0.0019
     23  CG2       31.8110   59.1860   50.9510 C.3    35  VAL35       0.0019
     24  N         27.2750   62.7130   47.6900 N.3    37  ASP37      -0.1239
     25  CA        28.0710   63.1270   46.5460 C.3    37  ASP37       0.1674
     26  C         27.3330   63.8740   45.4200 C.2    37  ASP37       0.2266
     27  O         26.5810   63.2610   44.6770 O.2    37  ASP37      -0.2867
     28  CB        28.7550   61.8530   46.0140 C.3    37  ASP37       0.1410
     29  CG        29.6110   61.9830   44.7940 C.2    37  ASP37       0.3668
     30  OD1       30.2330   63.0470   44.6140 O.co2  37  ASP37      -0.2456
     31  OD2       29.6920   61.0140   44.0410 O.co2  37  ASP37      -0.2456
     32  N         28.7700   64.9800   42.7450 N.3    39  GLY39      -0.1225
     33  CA        29.3970   64.5580   41.4960 C.3    39  GLY39       0.1811
     34  C         28.9230   63.2300   40.9230 C.2    39  GLY39       0.2280
     35  O         29.5530   62.7120   40.0040 O.2    39  GLY39      -0.2866
     36  N         33.5430   55.4860   37.6880 N.3    82  TYR82      -0.1227
     37  CA        33.9740   56.7670   38.2320 C.3    82  TYR82       0.1736
     38  C         35.4340   57.0030   37.8510 C.2    82  TYR82       0.2596
     39  O         36.1320   56.0790   37.4090 O.2    82  TYR82      -0.2718
     40  CB        33.8610   56.8010   39.7750 C.3    82  TYR82       0.0548
     41  CG        32.5160   56.4570   40.3760 C.ar   82  TYR82      -0.0200
     42  CD1       31.4190   57.2970   40.2090 C.ar   82  TYR82      -0.0009
     43  CD2       32.3750   55.3670   41.2310 C.ar   82  TYR82      -0.0009
     44  CE1       30.1960   57.0140   40.8150 C.ar   82  TYR82       0.0417
     45  CE2       31.1580   55.0670   41.8340 C.ar   82  TYR82       0.0417
     46  CZ        30.0730   55.9010   41.6390 C.ar   82  TYR82       0.1957
     47  OH        28.8790   55.6140   42.2600 O.3    82  TYR82      -0.2866
     48  N         35.9160   58.2260   38.1250 N.am   83  SER83      -0.1938
     49  CA        37.2850   58.6700   37.8930 C.3    83  SER83       0.2055
     50  C         38.3060   57.9530   38.8010 C.2    83  SER83       0.2643
     51  O         39.4870   57.8520   38.4570 O.2    83  SER83      -0.2714
     52  CB        37.3650   60.1760   38.1170 C.3    83  SER83       0.2130
     53  OG        36.4440   60.8340   37.2610 O.3    83  SER83      -0.2179
     54  N         37.8570   57.4750   39.9660 N.am   84  THR84      -0.1950
     55  CA        38.7510   56.8360   40.9340 C.3    84  THR84       0.1897
     56  C         38.7340   55.2990   40.8640 C.2    84  THR84       0.2313
     57  O         39.6180   54.6330   41.4310 O.2    84  THR84      -0.2863
     58  CB        38.4540   57.3530   42.3550 C.3    84  THR84       0.1794
     59  OG1       37.0650   57.2030   42.6050 O.3    84  THR84      -0.2208
     60  CG2       38.8600   58.7900   42.5460 C.3    84  THR84       0.0378
     61  N         40.3620   51.2570   44.6730 N.3   117  PRO117     -0.2102
     62  CA        40.6620   51.9990   45.9110 C.3   117  PRO117      0.1504
     63  C         39.8380   51.6770   47.1710 C.2   117  PRO117      0.2575
     64  O         40.1670   52.2010   48.2310 O.2   117  PRO117     -0.2718
     65  CB        40.3460   53.4410   45.4880 C.3   117  PRO117      0.0282
     66  CG        39.1070   53.2780   44.6240 C.3   117  PRO117      0.0208
     67  CD        39.3060   51.9460   43.8910 C.3   117  PRO117      0.0893
     68  N         38.7720   50.8610   47.0600 N.am  118  PHE118     -0.1977
     69  CA        37.7680   50.6530   48.1020 C.3   118  PHE118      0.1639
     70  C         38.2780   50.0450   49.4290 C.2   118  PHE118      0.2290
     71  O         37.5570   50.1590   50.4130 O.2   118  PHE118     -0.2864
     72  CB        36.5470   49.9000   47.5440 C.3   118  PHE118      0.0560
     73  CG        35.8670   50.7810   46.5060 C.ar  118  PHE118     -0.0200
     74  CD1       35.1800   51.9310   46.8880 C.ar  118  PHE118     -0.0042
     75  CD2       36.0210   50.5290   45.1460 C.ar  118  PHE118     -0.0042
     76  CE1       34.6180   52.7860   45.9330 C.ar  118  PHE118     -0.0003
     77  CE2       35.4690   51.3910   44.1920 C.ar  118  PHE118     -0.0003
     78  CZ        34.7630   52.5140   44.5900 C.ar  118  PHE118     -0.0000
     79  N         40.7010   51.4910   50.9200 N.3   120  LEU120     -0.1231
     80  CA        41.0840   52.7730   51.5320 C.3   120  LEU120      0.1693
     81  C         39.8530   53.5870   51.9490 C.2   120  LEU120      0.2591
     82  O         39.9790   54.6230   52.5960 O.2   120  LEU120     -0.2718
     83  CB        41.9730   53.5980   50.5860 C.3   120  LEU120      0.0284
     84  CG        43.3890   53.0480   50.3080 C.3   120  LEU120      0.0019
     85  CD1       44.0840   53.8660   49.2410 C.3   120  LEU120      0.0001
     86  CD2       44.2670   53.0620   51.5690 C.3   120  LEU120      0.0001
     87  N         38.6560   53.1020   51.5980 N.am  121  ALA121     -0.1980
     88  CA        37.3980   53.7600   51.9440 C.3   121  ALA121      0.1597
     89  C         36.9410   53.4300   53.3750 C.2   121  ALA121      0.2287
     90  O         36.8720   52.2610   53.7550 O.2   121  ALA121     -0.2864
     91  CB        36.3180   53.3660   50.9410 C.3   121  ALA121      0.0319
     92  N         33.9740   54.7160   54.4210 N.3   123  PHE123     -0.1241
     93  CA        32.5670   54.6280   54.1290 C.3   123  PHE123      0.1605
     94  C         32.3010   53.2900   53.4500 C.2   123  PHE123      0.2264
     95  O         33.2330   52.6590   52.9270 O.2   123  PHE123     -0.2867
     96  CB        32.1480   55.8170   53.2090 C.3   123  PHE123      0.0534
     97  CG        32.8600   55.8950   51.8700 C.ar  123  PHE123     -0.0203
     98  CD1       32.3800   55.1880   50.7580 C.ar  123  PHE123     -0.0042
     99  CD2       34.0110   56.6700   51.7130 C.ar  123  PHE123     -0.0042
    100  CE1       33.0460   55.2470   49.5200 C.ar  123  PHE123     -0.0003
    101  CE2       34.6720   56.7390   50.4750 C.ar  123  PHE123     -0.0003
    102  CZ        34.1810   56.0340   49.3850 C.ar  123  PHE123     -0.0000
    103  N         27.6790   55.0900   48.5760 N.3   126  VAL126     -0.1245
    104  CA        27.5250   56.4550   48.0580 C.3   126  VAL126      0.1561
    105  C         26.0510   56.8130   47.8720 C.2   126  VAL126      0.2260
    106  O         25.2790   55.9900   47.3990 O.2   126  VAL126     -0.2867
    107  CB        28.3420   56.6370   46.7280 C.3   126  VAL126      0.0252
    108  CG1       28.1380   58.0310   46.1070 C.3   126  VAL126      0.0019
    109  CG2       29.8360   56.3550   46.9350 C.3   126  VAL126      0.0019
    110  N         31.8520   69.4980   43.6700 N.3   225  ASP225     -0.1239
    111  CA        31.8430   68.0670   43.9930 C.3   225  ASP225      0.1674
    112  C         32.0940   67.7300   45.4640 C.2   225  ASP225      0.2266
    113  O         33.2290   67.7160   45.9040 O.2   225  ASP225     -0.2867
    114  CB        32.8730   67.3670   43.0710 C.3   225  ASP225      0.1410
    115  CG        32.7930   65.8650   42.9710 C.2   225  ASP225      0.3668
    116  OD1       31.9730   65.2630   43.6950 O.co2 225  ASP225     -0.2456
    117  OD2       33.5610   65.2830   42.1780 O.co2 225  ASP225     -0.2456
    118  N         31.8220   64.8060   46.8380 N.3   227  GLY227     -0.1210
    119  CA        32.4570   63.4910   46.9010 C.3   227  GLY227      0.1956
    120  C         33.9410   63.5150   46.6170 C.2   227  GLY227      0.2612
    121  O         34.6450   62.5620   46.9520 O.2   227  GLY227     -0.2717
    122  N         34.4380   64.5970   45.9960 N.am  228  ALA228     -0.1965
    123  CA        35.8620   64.7300   45.7020 C.3   228  ALA228      0.1728
    124  C         36.5830   65.3100   46.9360 C.2   228  ALA228      0.2617
    125  O         36.0960   66.2520   47.5710 O.2   228  ALA228     -0.2715
    126  CB        36.0600   65.6270   44.4950 C.3   228  ALA228      0.0334
    127  N         37.7200   64.7310   47.2870 N.am  229  SER229     -0.1936
    128  CA        38.5330   65.1410   48.4270 C.3   229  SER229      0.2055
    129  C         39.2400   66.4550   48.1930 C.2   229  SER229      0.2643
    130  O         39.4240   67.2330   49.1300 O.2   229  SER229     -0.2714
    131  CB        39.6260   64.1120   48.6830 C.3   229  SER229      0.2130
    132  OG        39.0700   62.8410   48.9320 O.3   229  SER229     -0.2179
    133  N         39.7410   66.6380   46.9710 N.am  230  TYR230     -0.1973
    134  CA        40.6060   67.7490   46.6520 C.3   230  TYR230      0.1639
    135  C         40.0270   68.6460   45.5910 C.2   230  TYR230      0.2290
    136  O         38.9730   68.3670   45.0140 O.2   230  TYR230     -0.2864
    137  CB        41.9840   67.1880   46.1680 C.3   230  TYR230      0.0560
    138  CG        42.5320   66.0480   47.0060 C.ar  230  TYR230     -0.0198
    139  CD1       43.0340   66.2730   48.2880 C.ar  230  TYR230     -0.0009
    140  CD2       42.4880   64.7330   46.5450 C.ar  230  TYR230     -0.0009
    141  CE1       43.5190   65.2230   49.0730 C.ar  230  TYR230      0.0417
    142  CE2       42.9570   63.6690   47.3300 C.ar  230  TYR230      0.0417
    143  CZ        43.4680   63.9210   48.5930 C.ar  230  TYR230      0.1957
    144  OH        43.9040   62.8700   49.3590 O.3   230  TYR230     -0.2866
    145  N         40.5860   69.8090   41.9100 N.3   232  SER232     -0.1217
    146  CA        41.2630   69.2540   40.7510 C.3   232  SER232      0.1889
    147  C         41.1340   70.1280   39.5140 C.2   232  SER232      0.2288
    148  O         40.1540   70.8550   39.3520 O.2   232  SER232     -0.2866
    149  CB        40.8270   67.8230   40.4750 C.3   232  SER232      0.2089
    150  OG        39.5710   67.7600   39.8390 O.3   232  SER232     -0.2183
    151  N         43.3980   65.8670   37.4450 N.3   302  MET302     -0.1245
    152  CA        42.3270   64.9210   37.1470 C.3   302  MET302      0.1570
    153  C         41.7140   65.3140   35.8240 C.2   302  MET302      0.2261
    154  O         41.1180   66.3880   35.7050 O.2   302  MET302     -0.2867
    155  CB        41.2800   64.8940   38.2810 C.3   302  MET302      0.0387
    156  CG        40.0950   64.0170   38.0370 C.3   302  MET302      0.0595
    157  SD        40.4630   62.2980   38.3750 S.3   302  MET302     -0.1393
    158  CE        40.4610   62.2980   40.2280 C.3   302  MET302      0.0692
@<TRIPOS>BOND
     1   154   153    2
     2   153   152    1
     3   152   151    1
     4   152   155    1
     5    53    52    1
     6    39    38    2
     7    36    37    1
     8    38    48   am
     9    38    37    1
    10    49    52    1
    11    49    48    1
    12    49    50    1
    13   156   155    1
    14   156   157    1
    15    37    40    1
    16   157   158    1
    17    51    50    2
    18    50    54   am
    19   148   147    2
    20   147   146    1
    21    40    41    1
    22   150   149    1
    23    54    55    1
    24    35    34    2
    25    42    41   ar
    26    42    44   ar
    27    41    43   ar
    28   149   146    1
    29   146   145    1
    30    44    46   ar
    31    56    55    1
    32    56    57    2
    33    34    33    1
    34    55    58    1
    35    43    45   ar
    36    33    32    1
    37    46    45   ar
    38    46    47    1
    39   117   115   ar
    40    58    60    1
    41    58    59    1
    42   115   114    1
    43   115   116   ar
    44   114   111    1
    45   110   111    1
    46    67    66    1
    47    67    61    1
    48   111   112    1
    49    31    29   ar
    50    77    78   ar
    51    77    75   ar
    52   126   123    1
    53    78    76   ar
    54    30    29   ar
    55    66    65    1
    56    61    62    1
    57    27    26    2
    58    29    28    1
    59   136   135    2
    60    75    73   ar
    61    26    25    1
    62   112   113    2
    63    65    62    1
    64   135   134    1
    65   123   122    1
    66   123   124    1
    67    62    63    1
    68    76    74   ar
    69   122   120   am
    70    28    25    1
    71   108   107    1
    72   137   134    1
    73   137   138    1
    74    73    74   ar
    75    73    72    1
    76   140   138   ar
    77   140   142   ar
    78    25    24    1
    79   120   119    1
    80   120   121    2
    81   134   133    1
    82   107   109    1
    83   107   104    1
    84   118   119    1
    85   124   127   am
    86   124   125    2
    87   133   129   am
    88   138   139   ar
    89    68    63   am
    90    68    69    1
    91    63    64    2
    92   127   128    1
    93   142   143   ar
    94   106   105    2
    95    72    69    1
    96   105   104    1
    97   104   103    1
    98    69    70    1
    99   129   128    1
   100   129   130    2
   101   139   141   ar
   102   128   131    1
   103   143   141   ar
   104   143   144    1
   105   131   132    1
   106    85    84    1
   107   102   100   ar
   108   102   101   ar
   109    70    71    2
   110   100    98   ar
   111    20    19    2
   112    22    21    1
   113    21    23    1
   114    21    18    1
   115    84    83    1
   116    84    86    1
   117    19    18    1
   118   101    99   ar
   119    83    80    1
   120    98    97   ar
   121    79    80    1
   122    91    88    1
   123    18    17    1
   124     4     3    2
   125    80    81    1
   126    87    88    1
   127    87    81   am
   128    99    97   ar
   129    97    96    1
   130    88    89    1
   131    81    82    2
   132     7     5    1
   133     5     2    1
   134     5     6    1
   135     3     2    1
   136     3     8   am
   137    13    14    1
   138    13    12    1
   139    16    14   am
   140     2     1    1
   141    14    15    2
   142    95    94    2
   143    96    93    1
   144     9     8    1
   145     9    12    1
   146     9    10    1
   147    89    90    2
   148    94    93    1
   149    93    92    1
   150    10    11    2
