@<TRIPOS>MOLECULE
tmp/4xx5A00.pdb
 187 179 0 0 0
SMALL
GASTEIGER

@<TRIPOS>ATOM
      1  N         19.9650   64.6990   12.5460 N.3   568  MET568     -0.1245
      2  CA        20.1210   65.5850   13.6870 C.3   568  MET568      0.1570
      3  C         20.9190   66.8190   13.2970 C.2   568  MET568      0.2261
      4  O         21.5370   66.8710   12.2350 O.2   568  MET568     -0.2867
      5  CB        20.8060   64.8350   14.8210 C.3   568  MET568      0.0387
      6  CG        20.0060   64.7790   16.1210 C.3   568  MET568      0.0595
      7  SD        20.3840   63.2860   17.0880 S.3   568  MET568     -0.1393
      8  CE        19.7510   62.0230   15.9820 C.3   568  MET568      0.0692
      9  N         23.7510   67.9710   14.0840 N.3   570  SER570     -0.1202
     10  CA        25.2020   67.9570   14.3180 C.3   570  SER570      0.2020
     11  C         26.0460   68.5040   13.1650 C.2   570  SER570      0.2619
     12  O         25.5800   68.6340   12.0300 O.2   570  SER570     -0.2717
     13  CB        25.6950   66.5440   14.6570 C.3   570  SER570      0.2103
     14  OG        25.2880   66.1280   15.9470 O.3   570  SER570     -0.2182
     15  N         27.2880   68.8540   13.4950 N.am  571  LYS571     -0.1965
     16  CA        28.3520   69.0210   12.4980 C.3   571  LYS571      0.1728
     17  C         28.5520   67.6660   11.7960 C.2   571  LYS571      0.2616
     18  O         28.8540   67.6140   10.5990 O.2   571  LYS571     -0.2715
     19  CB        29.6720   69.5720   13.1010 C.3   571  LYS571      0.0311
     20  CG        29.7630   69.7330   14.6320 C.3   571  LYS571      0.0038
     21  CD        29.8480   68.4130   15.4190 C.3   571  LYS571      0.0206
     22  CE        29.4900   68.5800   16.9040 C.3   571  LYS571      0.1093
     23  NZ        29.3550   67.3030   17.6720 N.3   571  LYS571     -0.1314
     24  N         28.3630   66.5760   12.5470 N.am  572  LYS572     -0.1977
     25  CA        28.0960   65.2700   11.9430 C.3   572  LYS572      0.1596
     26  C         26.6580   65.3320   11.4710 C.2   572  LYS572      0.2287
     27  O         25.9790   66.3420   11.6280 O.2   572  LYS572     -0.2864
     28  CB        28.2280   64.0760   12.9140 C.3   572  LYS572      0.0298
     29  CG        29.0060   64.2600   14.2140 C.3   572  LYS572      0.0038
     30  CD        30.5120   64.4160   14.0360 C.3   572  LYS572      0.0206
     31  CE        31.1810   64.7110   15.3820 C.3   572  LYS572      0.1093
     32  NZ        32.6510   64.9830   15.3340 N.3   572  LYS572     -0.1314
     33  N         23.9510   62.6040   12.2590 N.3   574  PRO574     -0.2116
     34  CA        23.4580   61.3650   12.8000 C.3   574  PRO574      0.1372
     35  C         21.9950   61.1860   12.4180 C.2   574  PRO574      0.2244
     36  O         21.2860   62.1720   12.1690 O.2   574  PRO574     -0.2868
     37  CB        23.6110   61.5470   14.3220 C.3   574  PRO574      0.0268
     38  CG        23.9130   62.9880   14.5620 C.3   574  PRO574      0.0207
     39  CD        23.8650   63.6960   13.2450 C.3   574  PRO574      0.0892
     40  N         18.1720   59.9200   13.4130 N.3   576  TRP576     -0.1241
     41  CA        17.2490   59.6850   14.5100 C.3   576  TRP576      0.1605
     42  C         16.1560   58.7810   13.9890 C.2   576  TRP576      0.2264
     43  O         15.3000   59.2170   13.2270 O.2   576  TRP576     -0.2867
     44  CB        16.6390   60.9960   14.9630 C.3   576  TRP576      0.0550
     45  CG        15.5810   60.8430   15.9430 C.ar  576  TRP576      0.0003
     46  CD1       14.3200   60.3600   15.7340 C.ar  576  TRP576      0.0946
     47  CD2       15.6600   61.1880   17.3060 C.ar  576  TRP576      0.0152
     48  NE1       13.6130   60.3760   16.9000 N.ar  576  TRP576     -0.2442
     49  CE2       14.4130   60.8890   17.8850 C.ar  576  TRP576      0.0810
     50  CE3       16.6660   61.7200   18.1050 C.ar  576  TRP576      0.0012
     51  CZ2       14.1420   61.1160   19.2250 C.ar  576  TRP576      0.0191
     52  CZ3       16.4050   61.9450   19.4300 C.ar  576  TRP576      0.0001
     53  CH2       15.1480   61.6480   19.9820 C.ar  576  TRP576      0.0015
     54  N         19.7830   56.1990   17.3580 N.3   595  ILE595     -0.1245
     55  CA        20.5840   57.1530   16.6380 C.3   595  ILE595      0.1561
     56  C         21.6510   56.3500   15.9100 C.2   595  ILE595      0.2260
     57  O         22.0890   55.3370   16.4160 O.2   595  ILE595     -0.2867
     58  CB        21.1970   58.1310   17.6450 C.3   595  ILE595      0.0252
     59  CG1       20.0980   59.0180   18.2000 C.3   595  ILE595      0.0019
     60  CG2       22.2590   59.0070   17.0220 C.3   595  ILE595      0.0019
     61  CD1       20.5340   59.8660   19.3740 C.3   595  ILE595      0.0001
     62  N         25.5070   56.9710   14.0100 N.3   597  LYS597     -0.1245
     63  CA        26.4490   58.0760   13.8930 C.3   597  LYS597      0.1561
     64  C         27.8040   57.7330   13.3010 C.2   597  LYS597      0.2260
     65  O         28.6530   57.0720   13.9350 O.2   597  LYS597     -0.2867
     66  CB        26.6180   58.7700   15.2500 C.3   597  LYS597      0.0271
     67  CG        27.6870   59.8740   15.3310 C.3   597  LYS597      0.0035
     68  CD        28.0180   60.1820   16.7970 C.3   597  LYS597      0.0206
     69  CE        29.5090   60.3590   17.0850 C.3   597  LYS597      0.1093
     70  NZ        29.8910   61.7980   17.1720 N.3   597  LYS597     -0.1314
     71  N         33.3290   55.0770   18.1740 N.3   602  LEU602     -0.1245
     72  CA        32.4570   54.7220   19.3170 C.3   602  LEU602      0.1561
     73  C         32.9840   53.5830   20.2290 C.2   602  LEU602      0.2260
     74  O         32.3870   53.2580   21.2750 O.2   602  LEU602     -0.2867
     75  CB        31.0420   54.3690   18.7880 C.3   602  LEU602      0.0270
     76  CG        29.8820   55.4020   18.8140 C.3   602  LEU602      0.0019
     77  CD1       30.3210   56.8550   18.9710 C.3   602  LEU602      0.0001
     78  CD2       29.0070   55.2520   17.5720 C.3   602  LEU602      0.0001
     79  N         33.5270   55.2170   23.4700 N.3   605  ASP605     -0.1239
     80  CA        32.2580   55.4020   24.1710 C.3   605  ASP605      0.1674
     81  C         31.8760   54.1030   24.8440 C.2   605  ASP605      0.2266
     82  O         31.7780   54.0950   26.0870 O.2   605  ASP605     -0.2867
     83  CB        31.1900   55.9200   23.2170 C.3   605  ASP605      0.1410
     84  CG        31.5990   57.2690   22.5760 C.2   605  ASP605      0.3668
     85  OD1       32.6750   57.3230   21.9160 O.co2 605  ASP605     -0.2456
     86  OD2       30.8770   58.2870   22.7540 O.co2 605  ASP605     -0.2456
     87  N         23.5760   54.7120   28.9140 N.3   631  TYR631     -0.1241
     88  CA        22.6880   54.3010   27.8320 C.3   631  TYR631      0.1605
     89  C         23.3870   53.3170   26.9100 C.2   631  TYR631      0.2264
     90  O         24.6070   53.1750   26.9480 O.2   631  TYR631     -0.2867
     91  CB        22.2580   55.5260   27.0130 C.3   631  TYR631      0.0534
     92  CG        23.4530   56.3300   26.5320 C.ar  631  TYR631     -0.0201
     93  CD1       24.1910   55.9270   25.4230 C.ar  631  TYR631     -0.0009
     94  CD2       23.8710   57.4680   27.2170 C.ar  631  TYR631     -0.0009
     95  CE1       25.3040   56.6460   25.0000 C.ar  631  TYR631      0.0417
     96  CE2       24.9750   58.1900   26.7960 C.ar  631  TYR631      0.0417
     97  CZ        25.6880   57.7730   25.6890 C.ar  631  TYR631      0.1957
     98  OH        26.7820   58.4920   25.2850 O.3   631  TYR631     -0.2866
     99  N         23.1470   53.9680   18.9140 N.3   643  ILE643     -0.1231
    100  CA        22.8830   54.5230   20.2460 C.3   643  ILE643      0.1692
    101  C         21.3870   54.5260   20.6350 C.2   643  ILE643      0.2592
    102  O         20.4900   54.8590   19.8440 O.2   643  ILE643     -0.2718
    103  CB        23.3690   55.9790   20.3490 C.3   643  ILE643      0.0266
    104  CG1       24.8690   56.1000   19.9860 C.3   643  ILE643      0.0019
    105  CG2       23.0930   56.5120   21.7510 C.3   643  ILE643      0.0020
    106  CD1       25.2600   57.3890   19.2830 C.3   643  ILE643      0.0001
    107  N         21.1480   54.1670   21.8870 N.am  644  GLU644     -0.1966
    108  CA        19.8260   54.1920   22.4770 C.3   644  GLU644      0.1733
    109  C         19.3910   55.6310   22.6060 C.2   644  GLU644      0.2616
    110  O         20.1280   56.4750   23.1100 O.2   644  GLU644     -0.2715
    111  CB        19.9040   53.5490   23.8650 C.3   644  GLU644      0.0429
    112  CG        18.5930   53.3790   24.6100 C.3   644  GLU644      0.1163
    113  CD        18.7950   52.7630   25.9920 C.2   644  GLU644      0.3649
    114  OE1       17.9980   53.0860   26.8880 O.co2 644  GLU644     -0.2457
    115  OE2       19.7370   51.9620   26.2000 O.co2 644  GLU644     -0.2457
    116  N         18.2000   55.9330   22.1400 N.am  645  ILE645     -0.1963
    117  CA        17.6300   57.2210   22.4540 C.3   645  ILE645      0.1727
    118  C         16.9730   57.0710   23.8090 C.2   645  ILE645      0.2616
    119  O         16.2180   56.1110   24.0530 O.2   645  ILE645     -0.2715
    120  CB        16.6020   57.6620   21.4210 C.3   645  ILE645      0.0290
    121  CG1       17.2890   57.8100   20.0640 C.3   645  ILE645      0.0022
    122  CG2       15.9840   58.9740   21.8570 C.3   645  ILE645      0.0023
    123  CD1       16.3740   58.1830   18.9180 C.3   645  ILE645      0.0001
    124  N         17.2910   58.0050   24.6960 N.am  646  VAL646     -0.1963
    125  CA        16.6990   58.0330   26.0240 C.3   646  VAL646      0.1727
    126  C         15.4340   58.8870   26.0100 C.2   646  VAL646      0.2616
    127  O         15.5050   60.1020   25.8660 O.2   646  VAL646     -0.2715
    128  CB        17.7110   58.5490   27.0750 C.3   646  VAL646      0.0290
    129  CG1       17.0240   58.9240   28.3980 C.3   646  VAL646      0.0023
    130  CG2       18.7880   57.4980   27.2920 C.3   646  VAL646      0.0023
    131  N         14.2920   58.2290   26.2030 N.am  647  LYS647     -0.1963
    132  CA        12.9900   58.8790   26.1730 C.3   647  LYS647      0.1728
    133  C         12.9100   60.0010   27.2030 C.2   647  LYS647      0.2616
    134  O         13.4400   59.8690   28.3140 O.2   647  LYS647     -0.2715
    135  CB        11.8740   57.8470   26.4110 C.3   647  LYS647      0.0311
    136  CG        11.7530   56.7630   25.3300 C.3   647  LYS647      0.0038
    137  CD        11.1950   57.3300   24.0210 C.3   647  LYS647      0.0206
    138  CE        11.1140   56.2980   22.8990 C.3   647  LYS647      0.1093
    139  NZ        10.9730   56.9510   21.5600 N.3   647  LYS647     -0.1314
    140  N         12.2810   61.1090   26.7900 N.am  648  ASP648     -0.1957
    141  CA        11.9750   62.2730   27.6510 C.3   648  ASP648      0.1840
    142  C         13.1900   62.9760   28.2950 C.2   648  ASP648      0.2621
    143  O         13.1600   63.3250   29.4740 O.2   648  ASP648     -0.2715
    144  CB        10.9760   61.8730   28.7420 C.3   648  ASP648      0.1450
    145  CG         9.7860   61.1180   28.1940 C.2   648  ASP648      0.3671
    146  OD1        8.7600   61.7810   27.9210 O.co2 648  ASP648     -0.2456
    147  OD2        9.8870   59.8720   28.0260 O.co2 648  ASP648     -0.2456
    148  N         14.2490   63.1840   27.5170 N.am  649  ALA649     -0.1977
    149  CA        15.4430   63.9110   27.9670 C.3   649  ALA649      0.1597
    150  C         15.7960   65.0390   26.9910 C.2   649  ALA649      0.2287
    151  O         15.5440   64.9250   25.7870 O.2   649  ALA649     -0.2864
    152  CB        16.6120   62.9520   28.0840 C.3   649  ALA649      0.0319
    153  N         23.0480   65.9290   29.5900 N.3   717  MET717     -0.1245
    154  CA        21.6330   65.7730   29.4240 C.3   717  MET717      0.1570
    155  C         20.9570   65.4910   30.7510 C.2   717  MET717      0.2261
    156  O         21.5420   64.8660   31.6480 O.2   717  MET717     -0.2867
    157  CB        21.3480   64.6200   28.4680 C.3   717  MET717      0.0387
    158  CG        21.9210   64.7860   27.0660 C.3   717  MET717      0.0595
    159  SD        21.0170   63.7690   25.8720 S.3   717  MET717     -0.1393
    160  CE        19.6090   64.8330   25.5730 C.3   717  MET717      0.0692
    161  N         22.8300   63.2800   33.0000 N.3   725  PHE725     -0.1241
    162  CA        23.8400   62.3760   32.4390 C.3   725  PHE725      0.1605
    163  C         24.5920   63.0200   31.2740 C.2   725  PHE725      0.2264
    164  O         24.0370   63.8230   30.5210 O.2   725  PHE725     -0.2867
    165  CB        23.2280   61.0360   31.9890 C.3   725  PHE725      0.0534
    166  CG        22.1990   61.1760   30.9110 C.ar  725  PHE725     -0.0203
    167  CD1       20.9280   61.6640   31.1970 C.ar  725  PHE725     -0.0042
    168  CD2       22.4900   60.8280   29.6050 C.ar  725  PHE725     -0.0042
    169  CE1       19.9650   61.8040   30.1950 C.ar  725  PHE725     -0.0003
    170  CE2       21.5360   60.9590   28.5980 C.ar  725  PHE725     -0.0003
    171  CZ        20.2720   61.4450   28.8880 C.ar  725  PHE725     -0.0000
    172  N         26.9480   62.6390   27.6670 N.3   727  ILE727     -0.1231
    173  CA        26.8710   61.8810   26.4060 C.3   727  ILE727      0.1692
    174  C         28.1250   62.0750   25.5370 C.2   727  ILE727      0.2592
    175  O         29.0880   62.7110   25.9450 O.2   727  ILE727     -0.2718
    176  CB        25.6300   62.3130   25.5630 C.3   727  ILE727      0.0266
    177  CG1       25.6720   63.8150   25.2030 C.3   727  ILE727      0.0019
    178  CG2       24.3390   61.9850   26.2960 C.3   727  ILE727      0.0020
    179  CD1       24.6320   64.2310   24.1820 C.3   727  ILE727      0.0001
    180  N         28.0980   61.4910   24.3410 N.am  728  ASP728     -0.1974
    181  CA        29.0140   61.8300   23.2510 C.3   728  ASP728      0.1709
    182  C         30.4410   61.8500   23.7710 C.2   728  ASP728      0.2293
    183  O         31.1310   62.8530   23.6700 O.2   728  ASP728     -0.2864
    184  CB        28.6210   63.1910   22.6150 C.3   728  ASP728      0.1436
    185  CG        29.2220   63.4040   21.2120 C.2   728  ASP728      0.3671
    186  OD1       29.4470   62.4030   20.5050 O.co2 728  ASP728     -0.2456
    187  OD2       29.4560   64.5750   20.8120 O.co2 728  ASP728     -0.2456
@<TRIPOS>BOND
     1    18    17    2
     2    26    27    2
     3    26    25    1
     4    17    16    1
     5    17    24   am
     6    25    24    1
     7    25    28    1
     8    12    11    2
     9    36    35    2
    10     4     3    2
    11    33    34    1
    12    33    39    1
    13    35    34    1
    14    16    19    1
    15    16    15    1
    16     1     2    1
    17    34    37    1
    18    28    29    1
    19    19    20    1
    20    11    15   am
    21    11    10    1
    22    43    42    2
    23    39    38    1
    24     3     2    1
    25    64    63    1
    26    64    65    2
    27    40    41    1
    28     2     5    1
    29    63    62    1
    30    63    66    1
    31    42    41    1
    32    30    29    1
    33    30    31    1
    34     9    10    1
    35    10    13    1
    36    37    38    1
    37    41    44    1
    38    20    21    1
    39    13    14    1
    40     5     6    1
    41    44    45    1
    42    66    67    1
    43    67    68    1
    44    32    31    1
    45    21    22    1
    46    46    45   ar
    47    46    48   ar
    48    56    57    2
    49    56    55    1
    50    45    47   ar
    51     8     7    1
    52     6     7    1
    53    55    54    1
    54    55    58    1
    55    68    69    1
    56    48    49   ar
    57    22    23    1
    58    60    58    1
    59    69    70    1
    60    47    49   ar
    61    47    50   ar
    62    78    76    1
    63    58    59    1
    64    49    51   ar
    65    50    52   ar
    66    71    72    1
    67    59    61    1
    68    75    76    1
    69    75    72    1
    70    76    77    1
    71    99   100    1
    72   123   121    1
    73    51    53   ar
    74   106   104    1
    75    72    73    1
    76    52    53   ar
    77   102   101    2
    78   104   103    1
    79   121   120    1
    80    73    74    2
    81   100   103    1
    82   100   101    1
    83   103   105    1
    84   186   185   ar
    85   101   107   am
    86   187   185   ar
    87   185   184    1
    88   120   122    1
    89   120   117    1
    90   139   138    1
    91   107   108    1
    92    85    84   ar
    93   116   117    1
    94   116   109   am
    95   117   118    1
    96   108   109    1
    97   108   111    1
    98    84    86   ar
    99    84    83    1
   100   109   110    2
   101   184   181    1
   102   138   137    1
   103    83    80    1
   104   181   182    1
   105   181   180    1
   106    79    80    1
   107   183   182    2
   108   118   119    2
   109   118   124   am
   110   111   112    1
   111   137   136    1
   112    80    81    1
   113   179   177    1
   114   180   174   am
   115   112   113    1
   116   124   125    1
   117    81    82    2
   118    95    93   ar
   119    95    97   ar
   120   177   176    1
   121    98    97    1
   122   136   135    1
   123    93    92   ar
   124   174   175    2
   125   174   173    1
   126   176   178    1
   127   176   173    1
   128   160   159    1
   129    97    96   ar
   130   151   150    2
   131   127   126    2
   132   159   158    1
   133   113   115   ar
   134   113   114   ar
   135   126   125    1
   136   126   131   am
   137   125   128    1
   138   132   131    1
   139   132   135    1
   140   132   133    1
   141   173   172    1
   142    92    91    1
   143    92    94   ar
   144   140   133   am
   145   140   141    1
   146    96    94   ar
   147    89    90    2
   148    89    88    1
   149   150   149    1
   150    91    88    1
   151   158   157    1
   152   128   130    1
   153   128   129    1
   154   133   134    2
   155   148   149    1
   156   148   142   am
   157   141   142    1
   158   141   144    1
   159    88    87    1
   160   146   145   ar
   161   149   152    1
   162   147   145   ar
   163   145   144    1
   164   142   143    2
   165   157   154    1
   166   170   171   ar
   167   170   168   ar
   168   171   169   ar
   169   154   153    1
   170   154   155    1
   171   168   166   ar
   172   169   167   ar
   173   164   163    2
   174   155   156    2
   175   166   167   ar
   176   166   165    1
   177   163   162    1
   178   165   162    1
   179   162   161    1
