@<TRIPOS>MOLECULE
tmp/4xx6A09.pdb
 119 116 0 0 0
SMALL
GASTEIGER

@<TRIPOS>ATOM
      1  N        -47.5440    2.6760  -35.6120 N.3     1  PRO1       -0.2116
      2  CA       -48.3840    2.8040  -34.4190 C.3     1  PRO1        0.1372
      3  C        -48.8860    1.4820  -33.8470 C.2     1  PRO1        0.2244
      4  O        -49.6720    0.8140  -34.5240 O.2     1  PRO1       -0.2868
      5  CB       -49.5450    3.6400  -34.9420 C.3     1  PRO1        0.0268
      6  CG       -48.8810    4.5880  -35.8570 C.3     1  PRO1        0.0207
      7  CD       -47.8060    3.7720  -36.5660 C.3     1  PRO1        0.0892
      8  N        -43.3520    0.0190  -33.0160 N.3     4  THR4       -0.1218
      9  CA       -41.9390    0.3290  -33.2050 C.3     4  THR4        0.1862
     10  C        -41.5070    1.5200  -32.3490 C.2     4  THR4        0.2287
     11  O        -42.3390    2.3130  -31.8810 O.2     4  THR4       -0.2866
     12  CB       -41.6350    0.6450  -34.6720 C.3     4  THR4        0.1770
     13  OG1      -42.3840    1.8030  -35.0530 O.3     4  THR4       -0.2211
     14  CG2      -42.0230   -0.5330  -35.5830 C.3     4  THR4        0.0375
     15  N        -39.8070    4.1070  -33.4410 N.3     6  ARG6       -0.1231
     16  CA       -40.0640    5.3280  -34.1820 C.3     6  ARG6        0.1694
     17  C        -41.5460    5.7180  -34.0840 C.2     6  ARG6        0.2591
     18  O        -41.8620    6.8950  -33.9460 O.2     6  ARG6       -0.2718
     19  CB       -39.6300    5.1780  -35.6410 C.3     6  ARG6        0.0321
     20  CG       -40.3090    4.0400  -36.3920 C.3     6  ARG6        0.0489
     21  CD       -39.7410    3.9280  -37.7970 C.3     6  ARG6        0.2205
     22  NE       -40.1520    5.0470  -38.6370 N.pl3   6  ARG6       -0.0865
     23  CZ       -39.6180    5.3330  -39.8220 C.cat   6  ARG6        0.5346
     24  NH1      -38.6220    4.6010  -40.3010 N.pl3   6  ARG6        0.1354
     25  NH2      -40.0660    6.3670  -40.5240 N.pl3   6  ARG6        0.1354
     26  N        -42.4530    4.7430  -34.1130 N.am    7  ALA7       -0.1980
     27  CA       -43.8800    5.0730  -34.0360 C.3     7  ALA7        0.1597
     28  C        -44.2370    5.5760  -32.6410 C.2     7  ALA7        0.2287
     29  O        -44.9490    6.5730  -32.4850 O.2     7  ALA7       -0.2864
     30  CB       -44.7480    3.8620  -34.4060 C.3     7  ALA7        0.0319
     31  N        -43.1250    9.3540  -31.7200 N.3    10  ALA10      -0.1231
     32  CA       -43.7110   10.5200  -32.4020 C.3    10  ALA10       0.1679
     33  C        -44.4080   11.4630  -31.4150 C.2    10  ALA10       0.2434
     34  O        -45.0830   11.0120  -30.4870 O.2    10  ALA10      -0.2733
     35  CB       -44.6860   10.0690  -33.4930 C.3    10  ALA10       0.0304
     36  N        -44.2160   12.7810  -31.5890 N.am   11  PRO11      -0.2718
     37  CA       -43.4860   13.4560  -32.6670 C.3    11  PRO11       0.1535
     38  C        -41.9640   13.5830  -32.4580 C.2    11  PRO11       0.2598
     39  O        -41.3090   14.1740  -33.3080 O.2    11  PRO11      -0.2715
     40  CB       -44.1180   14.8410  -32.6740 C.3    11  PRO11       0.0310
     41  CG       -44.3910   15.0900  -31.2300 C.3    11  PRO11       0.0237
     42  CD       -44.8160   13.7520  -30.6570 C.3    11  PRO11       0.0939
     43  N        -41.4190   13.0760  -31.3570 N.am   12  ARG12      -0.1964
     44  CA       -39.9640   13.0300  -31.1950 C.3    12  ARG12       0.1729
     45  C        -39.3840   11.9870  -32.1320 C.2    12  ARG12       0.2616
     46  O        -40.0910   11.0750  -32.5410 O.2    12  ARG12      -0.2715
     47  CB       -39.5740   12.6920  -29.7510 C.3    12  ARG12       0.0348
     48  CG       -40.0960   13.6780  -28.7190 C.3    12  ARG12       0.0492
     49  CD       -39.6040   13.3160  -27.3130 C.3    12  ARG12       0.2205
     50  NE       -40.0670   14.3100  -26.3510 N.pl3  12  ARG12      -0.0865
     51  CZ       -41.2640   14.2830  -25.7850 C.cat  12  ARG12       0.5346
     52  NH1      -42.1090   13.3090  -26.0770 N.pl3  12  ARG12       0.1354
     53  NH2      -41.6160   15.2280  -24.9340 N.pl3  12  ARG12       0.1354
     54  N        -38.0990   12.0930  -32.4560 N.am   13  TYR13      -0.1974
     55  CA       -37.4750   11.0440  -33.2540 C.3    13  TYR13       0.1639
     56  C        -36.8370   10.0190  -32.3160 C.2    13  TYR13       0.2290
     57  O        -36.5730   10.2980  -31.1470 O.2    13  TYR13      -0.2864
     58  CB       -36.4190   11.6010  -34.2200 C.3    13  TYR13       0.0560
     59  CG       -35.2450   12.2530  -33.5230 C.ar   13  TYR13      -0.0198
     60  CD1      -34.1910   11.4860  -33.0050 C.ar   13  TYR13      -0.0009
     61  CD2      -35.1770   13.6400  -33.3900 C.ar   13  TYR13      -0.0009
     62  CE1      -33.1250   12.0710  -32.3580 C.ar   13  TYR13       0.0417
     63  CE2      -34.1020   14.2440  -32.7390 C.ar   13  TYR13       0.0417
     64  CZ       -33.0820   13.4500  -32.2290 C.ar   13  TYR13       0.1957
     65  OH       -32.0160   14.0370  -31.5880 O.3    13  TYR13      -0.2866
     66  N        -36.0540    6.4160  -36.7980 N.3    41  ASN41      -0.1240
     67  CA       -36.2300    7.4720  -37.8080 C.3    41  ASN41       0.1653
     68  C        -35.3120    8.6600  -37.5930 C.2    41  ASN41       0.2266
     69  O        -35.5980    9.7810  -38.0220 O.2    41  ASN41      -0.2867
     70  CB       -37.6920    7.9480  -37.8970 C.3    41  ASN41       0.1155
     71  CG       -38.2310    8.5060  -36.5860 C.2    41  ASN41       0.2627
     72  OD1      -37.5500    8.5110  -35.5620 O.2    41  ASN41      -0.2716
     73  ND2      -39.4790    8.9780  -36.6220 N.am   41  ASN41      -0.0877
     74  N        -36.1430    9.3900  -45.0860 N.3    77  ASP77      -0.1225
     75  CA       -36.4990   10.6680  -44.4380 C.3    77  ASP77       0.1805
     76  C        -36.3340   10.6340  -42.9180 C.2    77  ASP77       0.2598
     77  O        -37.2590   10.9330  -42.1530 O.2    77  ASP77      -0.2718
     78  CB       -37.9240   11.1070  -44.7880 C.3    77  ASP77       0.1424
     79  CG       -38.0320   12.6330  -45.0090 C.2    77  ASP77       0.3668
     80  OD1      -37.0980   13.3980  -44.6220 O.co2  77  ASP77      -0.2456
     81  OD2      -39.0610   13.0670  -45.5790 O.co2  77  ASP77      -0.2456
     82  N        -35.1350   10.2620  -42.5040 N.am   78  TYR78      -0.1962
     83  CA       -34.7040   10.3690  -41.1180 C.3    78  TYR78       0.1771
     84  C        -34.4280   11.8000  -40.6910 C.2    78  TYR78       0.2619
     85  O        -34.1690   12.6710  -41.5260 O.2    78  TYR78      -0.2715
     86  CB       -33.4180    9.5920  -40.8990 C.3    78  TYR78       0.0574
     87  CG       -33.5370    8.1150  -40.7520 C.ar   78  TYR78      -0.0198
     88  CD1      -34.7410    7.4510  -40.9390 C.ar   78  TYR78      -0.0009
     89  CD2      -32.4240    7.3740  -40.3860 C.ar   78  TYR78      -0.0009
     90  CE1      -34.8090    6.0710  -40.7750 C.ar   78  TYR78       0.0417
     91  CE2      -32.4860    6.0210  -40.2240 C.ar   78  TYR78       0.0417
     92  CZ       -33.6730    5.3670  -40.4220 C.ar   78  TYR78       0.1957
     93  OH       -33.6850    3.9950  -40.2410 O.3    78  TYR78      -0.2866
     94  N        -34.4300   12.0180  -39.3810 N.am   79  VAL79      -0.1977
     95  CA       -33.7970   13.1900  -38.8040 C.3    79  VAL79       0.1596
     96  C        -32.2930   12.9280  -38.7010 C.2    79  VAL79       0.2287
     97  O        -31.8630   12.0080  -38.0070 O.2    79  VAL79      -0.2864
     98  CB       -34.3710   13.5150  -37.4190 C.3    79  VAL79       0.0276
     99  CG1      -33.6440   14.6970  -36.8080 C.3    79  VAL79       0.0022
    100  CG2      -35.8830   13.7890  -37.5190 C.3    79  VAL79       0.0022
    101  N        -30.4270   18.1300  -39.6230 N.3   125  TYR125     -0.1241
    102  CA       -31.2870   18.7580  -38.6260 C.3   125  TYR125      0.1605
    103  C        -30.4810   19.5130  -37.5800 C.2   125  TYR125      0.2264
    104  O        -30.8270   20.6390  -37.1970 O.2   125  TYR125     -0.2867
    105  CB       -32.1640   17.7290  -37.9180 C.3   125  TYR125      0.0534
    106  CG       -32.8720   18.3400  -36.7310 C.ar  125  TYR125     -0.0201
    107  CD1      -33.9460   19.2010  -36.9150 C.ar  125  TYR125     -0.0009
    108  CD2      -32.4600   18.0740  -35.4340 C.ar  125  TYR125     -0.0009
    109  CE1      -34.5980   19.7790  -35.8350 C.ar  125  TYR125      0.0417
    110  CE2      -33.1060   18.6560  -34.3380 C.ar  125  TYR125      0.0417
    111  CZ       -34.1700   19.4990  -34.5530 C.ar  125  TYR125      0.1957
    112  OH       -34.8010   20.0710  -33.4790 O.3   125  TYR125     -0.2866
    113  N        -36.2400   16.8540  -28.0940 N.3   272  VAL272     -0.1245
    114  CA       -36.6730   16.5460  -29.4550 C.3   272  VAL272      0.1561
    115  C        -36.4930   15.1060  -29.8800 C.2   272  VAL272      0.2260
    116  O        -37.0600   14.6850  -30.8940 O.2   272  VAL272     -0.2867
    117  CB       -35.9480   17.4230  -30.4710 C.3   272  VAL272      0.0252
    118  CG1      -36.2390   18.8990  -30.1710 C.3   272  VAL272      0.0019
    119  CG2      -34.4570   17.1470  -30.4330 C.3   272  VAL272      0.0019
@<TRIPOS>BOND
     1    81    79   ar
     2    74    75    1
     3    79    78    1
     4    79    80   ar
     5    78    75    1
     6    75    76    1
     7    76    82   am
     8    76    77    2
     9    82    83    1
    10    85    84    2
    11    83    86    1
    12    83    84    1
    13    88    90   ar
    14    88    87   ar
    15    86    87    1
    16    90    92   ar
    17    87    89   ar
    18    84    94   am
    19    25    23    1
    20    92    93    1
    21    92    91   ar
    22    89    91   ar
    23    24    23    1
    24    23    22    2
    25   101   102    1
    26    94    95    1
    27    95    96    1
    28    95    98    1
    29    96    97    2
    30    22    21    1
    31   102   105    1
    32   102   103    1
    33    69    68    2
    34   105   106    1
    35    70    67    1
    36    70    71    1
    37    67    68    1
    38    67    66    1
    39    21    20    1
    40   103   104    2
    41   100    98    1
    42    98    99    1
    43   107   106   ar
    44   107   109   ar
    45   106   108   ar
    46    73    71   am
    47    71    72    2
    48     7     6    1
    49     7     1    1
    50    20    19    1
    51     6     5    1
    52   109   111   ar
    53    19    16    1
    54     1     2    1
    55    14    12    1
    56   108   110   ar
    57    13    12    1
    58     5     2    1
    59    12     9    1
    60   111   110   ar
    61   111   112    1
    62     4     3    2
    63     2     3    1
    64    30    27    1
    65    58    59    1
    66    58    55    1
    67    16    17    1
    68    16    15    1
    69    26    17   am
    70    26    27    1
    71    17    18    2
    72    27    28    1
    73    59    61   ar
    74    59    60   ar
    75    35    32    1
    76    61    63   ar
    77    39    38    2
    78    55    54    1
    79    55    56    1
    80     9     8    1
    81     9    10    1
    82    60    62   ar
    83    63    64   ar
    84    40    37    1
    85    40    41    1
    86    37    38    1
    87    37    36    1
    88    28    29    2
    89    46    45    2
    90    38    43   am
    91    54    45   am
    92    32    31    1
    93    32    33    1
    94    62    64   ar
    95    10    11    2
    96    56    57    2
    97    64    65    1
    98    45    44    1
    99    36    33   am
   100    36    42    1
   101    33    34    2
   102    43    44    1
   103    41    42    1
   104    44    47    1
   105   116   115    2
   106   117   119    1
   107   117   118    1
   108   117   114    1
   109   115   114    1
   110    47    48    1
   111   114   113    1
   112    48    49    1
   113    49    50    1
   114    50    51    2
   115    52    51    1
   116    51    53    1
