@<TRIPOS>MOLECULE
tmp/4xx6B01.pdb
 79 74 0 0 0
SMALL
GASTEIGER

@<TRIPOS>ATOM
      1  N        -33.3390    6.2180  -55.9790 N.3    26  LEU26      -0.1231
      2  CA       -32.8590    5.4810  -54.8120 C.3    26  LEU26       0.1693
      3  C        -33.2830    6.1710  -53.5270 C.2    26  LEU26       0.2591
      4  O        -33.7010    5.5220  -52.5620 O.2    26  LEU26      -0.2718
      5  CB       -31.3340    5.3530  -54.8460 C.3    26  LEU26       0.0284
      6  CG       -30.6990    4.5140  -55.9510 C.3    26  LEU26       0.0019
      7  CD1      -29.1750    4.5870  -55.8130 C.3    26  LEU26       0.0001
      8  CD2      -31.1830    3.0730  -55.8670 C.3    26  LEU26       0.0001
      9  N        -33.1810    7.4990  -53.5210 N.am   27  LEU27      -0.1980
     10  CA       -33.4940    8.2890  -52.3180 C.3    27  LEU27       0.1596
     11  C        -34.9950    8.5310  -52.1420 C.2    27  LEU27       0.2287
     12  O        -35.4270    9.1650  -51.1780 O.2    27  LEU27      -0.2864
     13  CB       -32.7440    9.6250  -52.3640 C.3    27  LEU27       0.0297
     14  CG       -31.4150    9.6660  -51.5920 C.3    27  LEU27       0.0022
     15  CD1      -30.6140    8.3950  -51.7810 C.3    27  LEU27       0.0001
     16  CD2      -30.5830   10.8920  -51.9740 C.3    27  LEU27       0.0001
     17  N        -37.2760    6.3800  -51.4330 N.3    29  PHE29      -0.1241
     18  CA       -37.7860    5.1280  -50.8710 C.3    29  PHE29       0.1605
     19  C        -39.0860    5.2750  -50.0470 C.2    29  PHE29       0.2264
     20  O        -39.8930    4.3460  -49.9960 O.2    29  PHE29      -0.2867
     21  CB       -36.6840    4.4800  -50.0220 C.3    29  PHE29       0.0534
     22  CG       -37.1010    3.2110  -49.3510 C.ar   29  PHE29      -0.0203
     23  CD1      -37.2770    2.0460  -50.0890 C.ar   29  PHE29      -0.0042
     24  CD2      -37.3070    3.1750  -47.9840 C.ar   29  PHE29      -0.0042
     25  CE1      -37.6580    0.8670  -49.4660 C.ar   29  PHE29      -0.0003
     26  CE2      -37.7020    2.0020  -47.3530 C.ar   29  PHE29      -0.0003
     27  CZ       -37.8740    0.8470  -48.0920 C.ar   29  PHE29      -0.0000
     28  N        -36.4160    0.6660  -55.0390 N.3    36  ASP36      -0.1239
     29  CA       -35.3040    0.0370  -54.3340 C.3    36  ASP36       0.1674
     30  C        -35.5740   -1.4450  -54.0680 C.2    36  ASP36       0.2266
     31  O        -34.6600   -2.2610  -54.1670 O.2    36  ASP36      -0.2867
     32  CB       -35.0040    0.7670  -53.0120 C.3    36  ASP36       0.1410
     33  CG       -34.3890    2.1430  -53.2300 C.2    36  ASP36       0.3668
     34  OD1      -34.0910    2.4740  -54.3980 O.co2  36  ASP36      -0.2456
     35  OD2      -34.1930    2.8880  -52.2400 O.co2  36  ASP36      -0.2456
     36  N        -33.2290   -4.6340  -55.4250 N.3    40  VAL40      -0.1245
     37  CA       -32.6110   -5.6490  -54.5800 C.3    40  VAL40       0.1561
     38  C        -33.0560   -7.0590  -54.9490 C.2    40  VAL40       0.2260
     39  O        -32.2340   -7.9760  -55.0050 O.2    40  VAL40      -0.2867
     40  CB       -32.9130   -5.4040  -53.0850 C.3    40  VAL40       0.0252
     41  CG1      -32.4680   -6.5980  -52.2440 C.3    40  VAL40       0.0019
     42  CG2      -32.2180   -4.1410  -52.6180 C.3    40  VAL40       0.0019
     43  N        -23.1690    7.5860  -53.7790 N.3    71  ILE71      -0.1245
     44  CA       -24.4470    7.0220  -53.3380 C.3    71  ILE71       0.1561
     45  C        -24.7940    5.7580  -54.1420 C.2    71  ILE71       0.2260
     46  O        -25.1970    4.7310  -53.5730 O.2    71  ILE71      -0.2867
     47  CB       -25.5920    8.0580  -53.4590 C.3    71  ILE71       0.0252
     48  CG1      -25.3450    9.2440  -52.5110 C.3    71  ILE71       0.0019
     49  CG2      -26.9310    7.4190  -53.1650 C.3    71  ILE71       0.0019
     50  CD1      -26.3420   10.3940  -52.6650 C.3    71  ILE71       0.0001
     51  N        -22.2680    3.0230  -53.1990 N.3    74  ALA74      -0.1231
     52  CA       -22.5510    2.4580  -51.8740 C.3    74  ALA74       0.1694
     53  C        -23.7530    1.4930  -51.8930 C.2    74  ALA74       0.2592
     54  O        -23.7360    0.4550  -51.2260 O.2    74  ALA74      -0.2718
     55  CB       -22.7860    3.5740  -50.8590 C.3    74  ALA74       0.0304
     56  N        -24.8000    1.8450  -52.6300 N.am   75  PHE75      -0.1976
     57  CA       -25.9500    0.9500  -52.7860 C.3    75  PHE75       0.1639
     58  C        -25.4980   -0.3660  -53.4150 C.2    75  PHE75       0.2290
     59  O        -25.8780   -1.4590  -52.9880 O.2    75  PHE75      -0.2864
     60  CB       -27.0220    1.6020  -53.6460 C.3    75  PHE75       0.0560
     61  CG       -28.3040    0.8200  -53.7090 C.ar   75  PHE75      -0.0200
     62  CD1      -29.2460    0.9390  -52.6920 C.ar   75  PHE75      -0.0042
     63  CD2      -28.5580   -0.0400  -54.7650 C.ar   75  PHE75      -0.0042
     64  CE1      -30.4350    0.2250  -52.7370 C.ar   75  PHE75      -0.0003
     65  CE2      -29.7580   -0.7710  -54.8160 C.ar   75  PHE75      -0.0003
     66  CZ       -30.6910   -0.6220  -53.7990 C.ar   75  PHE75      -0.0000
     67  N        -23.3350   -2.3930  -50.8680 N.3    78  ALA78      -0.1231
     68  CA       -24.1530   -2.9770  -49.8080 C.3    78  ALA78       0.1694
     69  C        -24.8320   -4.2550  -50.2970 C.2    78  ALA78       0.2592
     70  O        -25.0410   -5.1820  -49.5280 O.2    78  ALA78      -0.2718
     71  CB       -25.2100   -1.9670  -49.3070 C.3    78  ALA78       0.0304
     72  N        -25.1770   -4.2800  -51.5790 N.am   79  ASN79      -0.1974
     73  CA       -25.8840   -5.4020  -52.1730 C.3    79  ASN79       0.1688
     74  C        -24.9750   -6.4040  -52.8970 C.2    79  ASN79       0.2292
     75  O        -25.4700   -7.3460  -53.5320 O.2    79  ASN79      -0.2864
     76  CB       -26.9400   -4.8740  -53.1460 C.3    79  ASN79       0.1181
     77  CG       -28.1510   -4.3390  -52.4310 C.2    79  ASN79       0.2629
     78  OD1      -28.9740   -5.1090  -51.9450 O.2    79  ASN79      -0.2716
     79  ND2      -28.2650   -3.0160  -52.3470 N.am   79  ASN79      -0.0877
@<TRIPOS>BOND
     1     1     2    1
     2     6     8    1
     3     6     7    1
     4     6     5    1
     5    36    37    1
     6    28    29    1
     7    39    38    2
     8    38    37    1
     9     5     2    1
    10    65    63   ar
    11    65    66   ar
    12     2     3    1
    13    63    61   ar
    14    37    40    1
    15    34    33   ar
    16    29    30    1
    17    29    32    1
    18    31    30    2
    19    45    46    2
    20    45    44    1
    21    66    64   ar
    22    43    44    1
    23    61    60    1
    24    61    62   ar
    25    60    57    1
    26    75    74    2
    27     3     9   am
    28     3     4    2
    29     9    10    1
    30    47    44    1
    31    47    49    1
    32    47    48    1
    33    58    59    2
    34    58    57    1
    35    33    32    1
    36    33    35   ar
    37    51    52    1
    38    76    77    1
    39    76    73    1
    40    40    42    1
    41    40    41    1
    42    74    73    1
    43    57    56    1
    44    64    62   ar
    45    50    48    1
    46    56    53   am
    47    77    79   am
    48    77    78    2
    49    13    10    1
    50    13    14    1
    51    10    11    1
    52    73    72    1
    53    11    12    2
    54    16    14    1
    55    53    52    1
    56    53    54    2
    57    52    55    1
    58    15    14    1
    59    72    69   am
    60    17    18    1
    61    18    19    1
    62    18    21    1
    63    67    68    1
    64    69    68    1
    65    69    70    2
    66    23    25   ar
    67    23    22   ar
    68    19    20    2
    69    21    22    1
    70    68    71    1
    71    25    27   ar
    72    22    24   ar
    73    27    26   ar
    74    24    26   ar
