@<TRIPOS>MOLECULE
tmp/4xx9A01.pdb
 124 119 0 0 0
SMALL
GASTEIGER

@<TRIPOS>ATOM
      1  N          2.5140   12.6130  -10.8840 N.3     6  LYS6       -0.1245
      2  CA         1.1380   12.2690  -11.2780 C.3     6  LYS6        0.1561
      3  C          1.2060   11.3140  -12.4480 C.2     6  LYS6        0.2260
      4  O          1.9440   11.5240  -13.4280 O.2     6  LYS6       -0.2867
      5  CB         0.2950   13.4940  -11.6860 C.3     6  LYS6        0.0271
      6  CG        -0.3480   14.2800  -10.5230 C.3     6  LYS6        0.0035
      7  CD        -1.6160   13.6410  -10.0020 C.3     6  LYS6        0.0206
      8  CE        -2.2000   14.4000   -8.8050 C.3     6  LYS6        0.1093
      9  NZ        -3.3860   13.7320   -8.2200 N.3     6  LYS6       -0.1314
     10  N        -15.6630   14.0370  -17.6170 N.3    45  LYS45      -0.1245
     11  CA       -15.8950   15.3660  -17.0540 C.3    45  LYS45       0.1561
     12  C        -17.1940   16.0330  -17.5600 C.2    45  LYS45       0.2260
     13  O        -17.9760   16.5660  -16.7690 O.2    45  LYS45      -0.2867
     14  CB       -14.7050   16.2810  -17.3570 C.3    45  LYS45       0.0271
     15  CG       -13.4210   15.9620  -16.5960 C.3    45  LYS45       0.0035
     16  CD       -12.3070   16.8550  -17.0510 C.3    45  LYS45       0.0206
     17  CE       -11.0810   16.6610  -16.2050 C.3    45  LYS45       0.1093
     18  NZ        -9.9520   17.5010  -16.7240 N.3    45  LYS45      -0.1314
     19  N        -20.2970   14.2270  -15.9360 N.3    48  ILE48      -0.1231
     20  CA       -20.5370   14.5200  -14.5320 C.3    48  ILE48       0.1692
     21  C        -20.9400   16.0000  -14.3120 C.2    48  ILE48       0.2591
     22  O        -21.6710   16.2950  -13.3780 O.2    48  ILE48      -0.2718
     23  CB       -19.3630   14.1110  -13.6070 C.3    48  ILE48       0.0266
     24  CG1      -18.1130   14.9020  -13.9460 C.3    48  ILE48       0.0019
     25  CG2      -19.1270   12.5880  -13.6780 C.3    48  ILE48       0.0020
     26  CD1      -16.9170   14.5470  -13.0410 C.3    48  ILE48       0.0001
     27  N        -20.4400   16.9060  -15.1550 N.am   49  ILE49      -0.1980
     28  CA       -20.8090   18.3250  -15.0560 C.3    49  ILE49       0.1595
     29  C        -22.2510   18.5070  -15.5100 C.2    49  ILE49       0.2287
     30  O        -23.0270   19.2050  -14.8500 O.2    49  ILE49      -0.2864
     31  CB       -19.8620   19.2370  -15.8820 C.3    49  ILE49       0.0276
     32  CG1      -18.5060   19.3230  -15.1950 C.3    49  ILE49       0.0022
     33  CG2      -20.4500   20.6510  -16.0310 C.3    49  ILE49       0.0022
     34  CD1      -17.4130   19.8830  -16.0650 C.3    49  ILE49       0.0001
     35  N        -20.7790   16.3420   -9.8300 N.3    54  VAL54      -0.1245
     36  CA       -19.4490   16.7540   -9.3970 C.3    54  VAL54       0.1561
     37  C        -19.2990   16.6020   -7.8940 C.2    54  VAL54       0.2260
     38  O        -18.2560   16.1650   -7.4220 O.2    54  VAL54      -0.2867
     39  CB       -19.1060   18.1870   -9.8350 C.3    54  VAL54       0.0252
     40  CG1      -17.8500   18.6940   -9.1120 C.3    54  VAL54       0.0019
     41  CG2      -18.8980   18.2410  -11.3690 C.3    54  VAL54       0.0019
     42  N        -18.3930   13.0130   -6.9080 N.3    57  VAL57      -0.1231
     43  CA       -17.0690   12.5820   -7.3210 C.3    57  VAL57       0.1692
     44  C        -16.0070   13.1800   -6.4020 C.2    57  VAL57       0.2592
     45  O        -15.0530   12.5150   -5.9760 O.2    57  VAL57      -0.2718
     46  CB       -16.8200   12.9910   -8.7640 C.3    57  VAL57       0.0266
     47  CG1      -15.4340   12.5540   -9.2050 C.3    57  VAL57       0.0020
     48  CG2      -17.8460   12.3530   -9.6540 C.3    57  VAL57       0.0020
     49  N        -16.1710   14.4510   -6.0970 N.am   58  THR58      -0.1953
     50  CA       -15.3020   15.1150   -5.1490 C.3    58  THR58       0.1897
     51  C        -15.4080   14.4790   -3.7560 C.2    58  THR58       0.2313
     52  O        -14.4030   14.2730   -3.0870 O.2    58  THR58      -0.2863
     53  CB       -15.6510   16.6030   -5.0670 C.3    58  THR58       0.1794
     54  OG1      -15.6470   17.1420   -6.3870 O.3    58  THR58      -0.2208
     55  CG2      -14.6500   17.3420   -4.2150 C.3    58  THR58       0.0378
     56  N        -13.4350   11.1460   -3.6180 N.3    61  ARG61      -0.1245
     57  CA       -11.9880   11.3230   -3.5260 C.3    61  ARG61       0.1563
     58  C        -11.5750   11.7740   -2.1280 C.2    61  ARG61       0.2260
     59  O        -10.6310   11.2430   -1.5550 O.2    61  ARG61      -0.2867
     60  CB       -11.4920   12.3340   -4.5640 C.3    61  ARG61       0.0307
     61  CG        -9.9850   12.4600   -4.5550 C.3    61  ARG61       0.0489
     62  CD        -9.4850   13.5410   -5.4850 C.3    61  ARG61       0.2205
     63  NE        -9.7330   14.8530   -4.9310 N.pl3  61  ARG61      -0.0865
     64  CZ        -9.0580   15.9480   -5.2510 C.cat  61  ARG61       0.5346
     65  NH1       -9.3920   17.0880   -4.6680 N.pl3  61  ARG61       0.1354
     66  NH2       -8.0690   15.9070   -6.1440 N.pl3  61  ARG61       0.1354
     67  N         -4.8040    9.5440   -7.9290 N.3    78  THR78      -0.1203
     68  CA        -5.7950   10.0970   -8.8420 C.3    78  THR78       0.1994
     69  C         -5.0770   10.8930   -9.9290 C.2    78  THR78       0.2618
     70  O         -3.9610   11.3970   -9.7290 O.2    78  THR78      -0.2717
     71  CB        -6.7710   11.0660   -8.1310 C.3    78  THR78       0.1784
     72  OG1       -5.9960   12.0030   -7.3700 O.3    78  THR78      -0.2211
     73  CG2       -7.7170   10.3280   -7.1990 C.3    78  THR78       0.0376
     74  N         -5.7260   11.0360  -11.0680 N.am   79  PHE79      -0.1961
     75  CA        -5.2310   11.9060  -12.1160 C.3    79  PHE79       0.1771
     76  C         -6.3540   12.2870  -13.0550 C.2    79  PHE79       0.2619
     77  O         -7.4760   11.8490  -12.8660 O.2    79  PHE79      -0.2715
     78  CB        -4.0120   11.3000  -12.8510 C.3    79  PHE79       0.0574
     79  CG        -4.2510    9.9590  -13.5010 C.ar   79  PHE79      -0.0200
     80  CD1       -3.9850    8.7860  -12.8280 C.ar   79  PHE79      -0.0042
     81  CD2       -4.6470    9.8650  -14.8230 C.ar   79  PHE79      -0.0042
     82  CE1       -4.1650    7.5570  -13.4460 C.ar   79  PHE79      -0.0003
     83  CE2       -4.8200    8.6450  -15.4250 C.ar   79  PHE79      -0.0003
     84  CZ        -4.5780    7.4940  -14.7360 C.ar   79  PHE79      -0.0000
     85  N         -6.0580   13.1580  -14.0200 N.am   80  GLN80      -0.1977
     86  CA        -7.0520   13.5820  -15.0040 C.3    80  GLN80       0.1601
     87  C         -6.3910   13.8200  -16.3330 C.2    80  GLN80       0.2287
     88  O         -5.1690   13.9310  -16.4210 O.2    80  GLN80      -0.2864
     89  CB        -7.7320   14.8810  -14.5740 C.3    80  GLN80       0.0394
     90  CG        -6.7980   16.0730  -14.5360 C.3    80  GLN80       0.0908
     91  CD        -7.4450   17.3180  -13.9610 C.2    80  GLN80       0.2608
     92  OE1       -8.4620   17.8050  -14.4690 O.2    80  GLN80      -0.2717
     93  NE2       -6.8380   17.8610  -12.9000 N.am   80  GLN80      -0.0878
     94  N        -11.5840   11.9140  -15.4710 N.3    85  LEU85      -0.1231
     95  CA       -11.0270   11.8030  -14.1140 C.3    85  LEU85       0.1693
     96  C        -10.7720   10.3230  -13.8630 C.2    85  LEU85       0.2592
     97  O        -11.5550    9.4740  -14.3020 O.2    85  LEU85      -0.2718
     98  CB       -12.0050   12.3030  -13.0530 C.3    85  LEU85       0.0284
     99  CG       -12.4610   13.7580  -13.1540 C.3    85  LEU85       0.0019
    100  CD1      -13.4820   14.0460  -12.0850 C.3    85  LEU85       0.0001
    101  CD2      -11.2550   14.6930  -13.0190 C.3    85  LEU85       0.0001
    102  N         -9.6830   10.0300  -13.1530 N.am   86  TYR86      -0.1962
    103  CA        -9.2650    8.6560  -12.8800 C.3    86  TYR86       0.1771
    104  C         -8.9720    8.4680  -11.3970 C.2    86  TYR86       0.2619
    105  O         -8.2540    9.2850  -10.7920 O.2    86  TYR86      -0.2715
    106  CB        -7.9950    8.3070  -13.6740 C.3    86  TYR86       0.0574
    107  CG        -8.0730    8.4650  -15.1650 C.ar   86  TYR86      -0.0198
    108  CD1       -8.0000    9.7110  -15.7590 C.ar   86  TYR86      -0.0009
    109  CD2       -8.1980    7.3720  -15.9880 C.ar   86  TYR86      -0.0009
    110  CE1       -8.0480    9.8510  -17.1500 C.ar   86  TYR86       0.0417
    111  CE2       -8.2360    7.5080  -17.3740 C.ar   86  TYR86       0.0417
    112  CZ        -8.1890    8.7470  -17.9430 C.ar   86  TYR86       0.1957
    113  OH        -8.2120    8.8520  -19.3250 O.3    86  TYR86      -0.2866
    114  N         -9.4890    7.3830  -10.8270 N.am   87  PHE87      -0.1974
    115  CA        -9.1410    6.9380   -9.4750 C.3    87  PHE87       0.1639
    116  C         -8.4100    5.6240   -9.5890 C.2    87  PHE87       0.2290
    117  O         -8.9150    4.6840  -10.1860 O.2    87  PHE87      -0.2864
    118  CB       -10.3680    6.5890   -8.6110 C.3    87  PHE87       0.0560
    119  CG       -11.3160    7.7150   -8.3010 C.ar   87  PHE87      -0.0200
    120  CD1      -12.2480    8.1600   -9.2310 C.ar   87  PHE87      -0.0042
    121  CD2      -11.3850    8.2160   -7.0240 C.ar   87  PHE87      -0.0042
    122  CE1      -13.1720    9.1250   -8.8710 C.ar   87  PHE87      -0.0003
    123  CE2      -12.3010    9.1710   -6.6700 C.ar   87  PHE87      -0.0003
    124  CZ       -13.1760    9.6290   -7.5840 C.ar   87  PHE87      -0.0000
@<TRIPOS>BOND
     1   113   112    1
     2   112   111   ar
     3   112   110   ar
     4    10    11    1
     5    12    11    1
     6    12    13    2
     7   111   109   ar
     8    14    11    1
     9    14    15    1
    10   110   108   ar
    11    16    15    1
    12    16    17    1
    13    18    17    1
    14    88    87    2
    15    87    86    1
    16    34    32    1
    17    33    31    1
    18   109   107   ar
    19    19    20    1
    20    31    32    1
    21    31    28    1
    22   108   107   ar
    23    29    28    1
    24    29    30    2
    25    94    95    1
    26    83    81   ar
    27    83    84   ar
    28   107   106    1
    29    27    28    1
    30    27    21   am
    31    86    89    1
    32    86    85    1
    33    81    79   ar
    34    84    82   ar
    35    89    90    1
    36    90    91    1
    37    20    21    1
    38    20    23    1
    39    92    91    2
    40    21    22    2
    41    97    96    2
    42    95    96    1
    43    95    98    1
    44    85    76   am
    45    91    93   am
    46    24    23    1
    47    24    26    1
    48    96   102   am
    49    25    23    1
    50   106   103    1
    51    79    78    1
    52    79    80   ar
    53    82    80   ar
    54     4     3    2
    55    99    98    1
    56    99   101    1
    57    99   100    1
    58   102   103    1
    59    76    77    2
    60    76    75    1
    61   103   104    1
    62    78    75    1
    63     3     2    1
    64    75    74    1
    65     5     2    1
    66     5     6    1
    67   104   114   am
    68   104   105    2
    69    41    39    1
    70     2     1    1
    71    74    69   am
    72   114   115    1
    73     6     7    1
    74   117   116    2
    75     7     8    1
    76    69    70    2
    77    69    68    1
    78    39    36    1
    79    39    40    1
    80    35    36    1
    81    48    46    1
    82   116   115    1
    83   115   118    1
    84    36    37    1
    85   120   122   ar
    86   120   119   ar
    87    47    46    1
    88   122   124   ar
    89    68    71    1
    90    68    67    1
    91     8     9    1
    92    46    43    1
    93   118   119    1
    94   119   121   ar
    95    71    72    1
    96    71    73    1
    97    37    38    2
    98   124   123   ar
    99    43    42    1
   100    43    44    1
   101   121   123   ar
   102    44    49   am
   103    44    45    2
   104    54    53    1
   105    66    64    1
   106    49    50    1
   107    62    63    1
   108    62    61    1
   109    64    63    2
   110    64    65    1
   111    50    53    1
   112    50    51    1
   113    53    55    1
   114    60    61    1
   115    60    57    1
   116    51    52    2
   117    56    57    1
   118    57    58    1
   119    58    59    2
