@<TRIPOS>MOLECULE
tmp/4xxdD00.pdb
 135 131 0 0 0
SMALL
GASTEIGER

@<TRIPOS>ATOM
      1  N       -132.6510  -58.1150   20.4500 N.3    31  TYR31      -0.1241
      2  CA      -132.9970  -58.1510   19.0510 C.3    31  TYR31       0.1605
      3  C       -133.6310  -59.4780   18.6980 C.2    31  TYR31       0.2264
      4  O       -133.8850  -60.2930   19.5510 O.2    31  TYR31      -0.2867
      5  CB      -131.7600  -57.8440   18.2210 C.3    31  TYR31       0.0534
      6  CG      -132.0480  -57.6120   16.7900 C.ar   31  TYR31      -0.0201
      7  CD1     -132.8770  -56.6300   16.3980 C.ar   31  TYR31      -0.0009
      8  CD2     -131.4990  -58.3880   15.8380 C.ar   31  TYR31      -0.0009
      9  CE1     -133.1380  -56.4310   15.0820 C.ar   31  TYR31       0.0417
     10  CE2     -131.7800  -58.1970   14.5250 C.ar   31  TYR31       0.0417
     11  CZ      -132.6000  -57.2230   14.1680 C.ar   31  TYR31       0.1957
     12  OH      -132.8720  -57.0430   12.8810 O.3    31  TYR31      -0.2866
     13  N       -132.0740  -61.8950   16.8730 N.3    33  ASP33      -0.1239
     14  CA      -131.0890  -62.9080   17.1760 C.3    33  ASP33       0.1674
     15  C       -130.8230  -62.9710   18.6590 C.2    33  ASP33       0.2266
     16  O       -129.9990  -63.7060   19.1140 O.2    33  ASP33      -0.2867
     17  CB      -129.8110  -62.6870   16.3730 C.3    33  ASP33       0.1410
     18  CG      -129.9900  -62.9920   14.9050 C.2    33  ASP33       0.3668
     19  OD1     -130.9910  -63.6330   14.5480 O.co2  33  ASP33      -0.2456
     20  OD2     -129.1390  -62.5810   14.0980 O.co2  33  ASP33      -0.2456
     21  N       -129.5290  -60.6030   20.6660 N.3    35  ASN35      -0.1240
     22  CA      -128.3320  -59.9170   21.1560 C.3    35  ASN35       0.1653
     23  C       -128.7220  -58.5230   21.6240 C.2    35  ASN35       0.2266
     24  O       -129.5240  -57.8670   21.0220 O.2    35  ASN35      -0.2867
     25  CB      -127.2670  -59.8110   20.0600 C.3    35  ASN35       0.1155
     26  CG      -126.6190  -61.1130   19.7160 C.2    35  ASN35       0.2627
     27  OD1     -126.6230  -61.9980   20.5100 O.2    35  ASN35      -0.2716
     28  ND2     -126.0900  -61.2350   18.5350 N.am   35  ASN35      -0.0877
     29  N       -127.7690  -54.9150   21.8310 N.3    37  TYR37      -0.1241
     30  CA      -126.8750  -53.9350   21.2270 C.3    37  TYR37       0.1605
     31  C       -126.7750  -52.6310   22.0160 C.2    37  TYR37       0.2264
     32  O       -127.0030  -51.5490   21.4670 O.2    37  TYR37      -0.2867
     33  CB      -127.2060  -53.7130   19.7400 C.3    37  TYR37       0.0534
     34  CG      -126.7620  -54.8470   18.8410 C.ar   37  TYR37      -0.0201
     35  CD1     -125.4670  -54.8970   18.3360 C.ar   37  TYR37      -0.0009
     36  CD2     -127.6350  -55.8770   18.5000 C.ar   37  TYR37      -0.0009
     37  CE1     -125.0530  -55.9340   17.5010 C.ar   37  TYR37       0.0417
     38  CE2     -127.2280  -56.9300   17.6790 C.ar   37  TYR37       0.0417
     39  CZ      -125.9340  -56.9540   17.1820 C.ar   37  TYR37       0.1957
     40  OH      -125.5190  -57.9790   16.3670 O.3    37  TYR37      -0.2866
     41  N       -124.2070  -50.1770   23.9430 N.3    39  HIS39      -0.1241
     42  CA      -122.7870  -49.8430   23.8700 C.3    39  HIS39       0.1621
     43  C       -122.3600  -48.7400   24.8330 C.2    39  HIS39       0.2264
     44  O       -123.2010  -48.0080   25.3620 O.2    39  HIS39      -0.2867
     45  CB      -122.4000  -49.4650   22.4200 C.3    39  HIS39       0.0745
     46  CG      -123.1430  -50.2310   21.3710 C.ar   39  HIS39       0.0817
     47  ND1     -122.6480  -51.4150   20.8520 N.ar   39  HIS39      -0.2268
     48  CD2     -124.3410  -49.9690   20.7990 C.ar   39  HIS39       0.1154
     49  CE1     -123.5480  -51.8270   19.9770 C.ar   39  HIS39       0.1986
     50  NE2     -124.5840  -50.9880   19.9100 N.ar   39  HIS39      -0.2212
     51  N       -119.1980  -45.6370   25.1510 N.3    41  PHE41      -0.1241
     52  CA      -118.2180  -44.8230   24.4420 C.3    41  PHE41       0.1605
     53  C       -117.5440  -43.8730   25.3970 C.2    41  PHE41       0.2264
     54  O       -118.0740  -43.5970   26.4740 O.2    41  PHE41      -0.2867
     55  CB      -118.9110  -43.9790   23.3470 C.3    41  PHE41       0.0534
     56  CG      -119.4640  -44.7380   22.1740 C.ar   41  PHE41      -0.0203
     57  CD1     -118.6950  -44.9490   21.0410 C.ar   41  PHE41      -0.0042
     58  CD2     -120.7710  -45.2130   22.1860 C.ar   41  PHE41      -0.0042
     59  CE1     -119.2010  -45.6690   19.9620 C.ar   41  PHE41      -0.0003
     60  CE2     -121.2860  -45.9070   21.0930 C.ar   41  PHE41      -0.0003
     61  CZ      -120.5020  -46.1170   19.9820 C.ar   41  PHE41      -0.0000
     62  N       -115.1460  -46.1690   20.9400 N.3    51  LEU51      -0.1245
     63  CA      -115.9280  -47.2680   21.5120 C.3    51  LEU51       0.1561
     64  C       -115.1230  -48.0720   22.5360 C.2    51  LEU51       0.2260
     65  O       -114.0100  -48.5140   22.2370 O.2    51  LEU51      -0.2867
     66  CB      -116.4680  -48.1820   20.3910 C.3    51  LEU51       0.0270
     67  CG      -117.2620  -49.4300   20.8170 C.3    51  LEU51       0.0019
     68  CD1     -118.6840  -49.0840   21.2490 C.3    51  LEU51       0.0001
     69  CD2     -117.2990  -50.4470   19.7100 C.3    51  LEU51       0.0001
     70  N       -118.5760  -52.8160   23.2280 N.3    54  TYR54      -0.1227
     71  CA      -119.5630  -52.9860   22.1630 C.3    54  TYR54       0.1736
     72  C       -120.8920  -53.6790   22.4400 C.2    54  TYR54       0.2595
     73  O       -121.9340  -53.0470   22.2790 O.2    54  TYR54      -0.2718
     74  CB      -119.0030  -53.5550   20.8390 C.3    54  TYR54       0.0548
     75  CG      -117.9560  -54.6440   20.9110 C.ar   54  TYR54      -0.0200
     76  CD1     -116.6150  -54.3300   21.1080 C.ar   54  TYR54      -0.0009
     77  CD2     -118.2740  -55.9620   20.5860 C.ar   54  TYR54      -0.0009
     78  CE1     -115.6300  -55.3160   21.0860 C.ar   54  TYR54       0.0417
     79  CE2     -117.2940  -56.9530   20.5350 C.ar   54  TYR54       0.0417
     80  CZ      -115.9750  -56.6270   20.8010 C.ar   54  TYR54       0.1957
     81  OH      -115.0050  -57.6000   20.7740 O.3    54  TYR54      -0.2866
     82  N       -120.9200  -54.9260   22.8570 N.am   55  LYS55      -0.1980
     83  CA      -122.1500  -55.5170   23.1280 C.3    55  LYS55       0.1596
     84  C       -122.5480  -56.0740   24.4440 C.2    55  LYS55       0.2287
     85  O       -122.4700  -57.2580   24.6290 O.2    55  LYS55      -0.2864
     86  CB      -122.4910  -56.6990   22.2790 C.3    55  LYS55       0.0298
     87  CG      -123.0620  -56.4380   20.8910 C.3    55  LYS55       0.0038
     88  CD      -122.8460  -57.6430   19.9700 C.3    55  LYS55       0.0206
     89  CE      -122.3290  -57.2450   18.5790 C.3    55  LYS55       0.1093
     90  NZ      -121.4180  -58.2040   17.8980 N.3    55  LYS55      -0.1314
     91  N       -113.3800  -53.5200   23.5200 N.3    60  PHE60      -0.1241
     92  CA      -112.8000  -53.2860   22.1990 C.3    60  PHE60       0.1605
     93  C       -111.2740  -53.2290   22.3250 C.2    60  PHE60       0.2264
     94  O       -110.8280  -53.4000   23.4130 O.2    60  PHE60      -0.2867
     95  CB      -113.3840  -51.9690   21.6930 C.3    60  PHE60       0.0534
     96  CG      -113.7110  -51.9440   20.2400 C.ar   60  PHE60      -0.0203
     97  CD1     -114.5720  -52.8750   19.6870 C.ar   60  PHE60      -0.0042
     98  CD2     -113.1610  -50.9650   19.4210 C.ar   60  PHE60      -0.0042
     99  CE1     -114.8570  -52.8360   18.3440 C.ar   60  PHE60      -0.0003
    100  CE2     -113.4520  -50.9240   18.0870 C.ar   60  PHE60      -0.0003
    101  CZ      -114.3050  -51.8610   17.5530 C.ar   60  PHE60      -0.0000
    102  N       -128.3980  -49.5490   19.4670 N.3    96  SER96      -0.1202
    103  CA      -128.4130  -49.7380   18.0140 C.3    96  SER96       0.2020
    104  C       -129.3220  -50.9150   17.5580 C.2    96  SER96       0.2619
    105  O       -129.2120  -51.3850   16.4210 O.2    96  SER96      -0.2717
    106  CB      -126.9920  -49.8640   17.4700 C.3    96  SER96       0.2103
    107  OG      -126.3840  -51.0810   17.8640 O.3    96  SER96      -0.2182
    108  N       -130.2380  -51.3550   18.4400 N.am   97  THR97      -0.1952
    109  CA      -131.1970  -52.4260   18.1520 C.3    97  THR97       0.1897
    110  C       -132.3780  -51.8880   17.3540 C.2    97  THR97       0.2313
    111  O       -132.9290  -52.5920   16.5000 O.2    97  THR97      -0.2863
    112  CB      -131.6430  -53.1470   19.4280 C.3    97  THR97       0.1794
    113  OG1     -132.2460  -52.2190   20.3280 O.3    97  THR97      -0.2208
    114  CG2     -130.5000  -53.8540   20.1110 C.3    97  THR97       0.0378
    115  N       -133.9310  -48.3930   15.0730 N.3    99  VAL99      -0.1245
    116  CA      -133.5700  -47.2400   14.2430 C.3    99  VAL99       0.1561
    117  C       -134.6260  -46.1770   14.6180 C.2    99  VAL99       0.2260
    118  O       -135.8150  -46.5080   14.5950 O.2    99  VAL99      -0.2867
    119  CB      -133.5330  -47.5640   12.7190 C.3    99  VAL99       0.0252
    120  CG1     -133.0840  -46.3570   11.9000 C.3    99  VAL99       0.0019
    121  CG2     -132.6260  -48.7560   12.4280 C.3    99  VAL99       0.0019
    122  N       -130.6740  -44.7260   16.1190 N.3   101  TRP101     -0.1241
    123  CA      -129.5700  -44.9710   17.0420 C.3   101  TRP101      0.1605
    124  C       -129.6560  -43.8130   18.0380 C.2   101  TRP101      0.2264
    125  O       -129.6780  -42.6450   17.6280 O.2   101  TRP101     -0.2867
    126  CB      -128.2350  -44.9440   16.2600 C.3   101  TRP101      0.0550
    127  CG      -126.9610  -45.1060   17.0530 C.ar  101  TRP101      0.0003
    128  CD1     -126.8050  -45.7370   18.2540 C.ar  101  TRP101      0.0946
    129  CD2     -125.6430  -44.7310   16.6270 C.ar  101  TRP101      0.0152
    130  NE1     -125.4830  -45.7310   18.6270 N.ar  101  TRP101     -0.2442
    131  CE2     -124.7440  -45.1260   17.6430 C.ar  101  TRP101      0.0810
    132  CE3     -125.1350  -44.0690   15.4940 C.ar  101  TRP101      0.0012
    133  CZ2     -123.3660  -44.8900   17.5580 C.ar  101  TRP101      0.0191
    134  CZ3     -123.7710  -43.8330   15.4130 C.ar  101  TRP101      0.0001
    135  CH2     -122.9040  -44.2350   16.4370 C.ar  101  TRP101      0.0015
@<TRIPOS>BOND
     1   120   119    1
     2   121   119    1
     3   119   116    1
     4    12    11    1
     5    20    18   ar
     6    11    10   ar
     7    11     9   ar
     8   116   117    1
     9   116   115    1
    10    10     8   ar
    11    19    18   ar
    12   118   117    2
    13    18    17    1
    14     9     7   ar
    15   134   132   ar
    16   134   135   ar
    17   132   129   ar
    18     8     6   ar
    19   122   123    1
    20   126   123    1
    21   126   127    1
    22    40    39    1
    23    17    14    1
    24     7     6   ar
    25   105   104    2
    26   135   133   ar
    27   111   110    2
    28   129   127   ar
    29   129   131   ar
    30     6     5    1
    31    13    14    1
    32   123   124    1
    33   127   128   ar
    34    14    15    1
    35    39    37   ar
    36    39    38   ar
    37   110   109    1
    38   106   107    1
    39   106   103    1
    40    37    35   ar
    41   101   100   ar
    42   101    99   ar
    43   104   103    1
    44   104   108   am
    45   133   131   ar
    46   125   124    2
    47   131   130   ar
    48    38    36   ar
    49    90    89    1
    50   103   102    1
    51   100    98   ar
    52   109   108    1
    53   109   112    1
    54     5     2    1
    55   128   130   ar
    56    35    34   ar
    57    99    97   ar
    58    36    34   ar
    59    28    26   am
    60    89    88    1
    61    15    16    2
    62     3     2    1
    63     3     4    2
    64    34    33    1
    65     2     1    1
    66    98    96   ar
    67   112   114    1
    68   112   113    1
    69    97    96   ar
    70    69    67    1
    71    26    25    1
    72    26    27    2
    73    33    30    1
    74    50    49   ar
    75    50    48   ar
    76    59    61   ar
    77    59    57   ar
    78    88    87    1
    79    49    47   ar
    80    61    60   ar
    81    25    22    1
    82    96    95    1
    83    66    67    1
    84    66    63    1
    85    79    77   ar
    86    79    80   ar
    87    77    75   ar
    88    21    22    1
    89    81    80    1
    90    48    46   ar
    91    80    78   ar
    92    67    68    1
    93    74    75    1
    94    74    71    1
    95    47    46   ar
    96    87    86    1
    97    75    76   ar
    98    62    63    1
    99    24    23    2
   100    57    56   ar
   101    78    76   ar
   102    60    58   ar
   103    22    23    1
   104    30    29    1
   105    30    31    1
   106    46    45    1
   107    32    31    2
   108    63    64    1
   109    95    92    1
   110    71    72    1
   111    71    70    1
   112    56    58   ar
   113    56    55    1
   114    92    93    1
   115    92    91    1
   116    65    64    2
   117    73    72    2
   118    86    83    1
   119    93    94    2
   120    45    42    1
   121    72    82   am
   122    82    83    1
   123    83    84    1
   124    55    52    1
   125    42    41    1
   126    42    43    1
   127    52    51    1
   128    52    53    1
   129    84    85    2
   130    43    44    2
   131    53    54    2
