@<TRIPOS>MOLECULE
tmp/4xxdE00.pdb
 142 139 0 0 0
SMALL
GASTEIGER

@<TRIPOS>ATOM
      1  N       -108.8980  -49.3410    9.9440 N.3     1  VAL1       -0.1245
      2  CA      -110.2220  -48.7640    9.7360 C.3     1  VAL1        0.1561
      3  C       -110.1810  -47.2430    9.8910 C.2     1  VAL1        0.2260
      4  O       -110.0180  -46.7340   11.0030 O.2     1  VAL1       -0.2867
      5  CB      -111.3070  -49.4200   10.6240 C.3     1  VAL1        0.0252
      6  CG1     -112.6720  -48.7740   10.3950 C.3     1  VAL1        0.0019
      7  CG2     -111.3770  -50.9200   10.3830 C.3     1  VAL1        0.0019
      8  N       -112.6320  -51.6310    5.8710 N.3    26  PHE26      -0.1241
      9  CA      -113.6190  -52.4420    6.6070 C.3    26  PHE26       0.1605
     10  C       -114.8720  -53.0370    5.9320 C.2    26  PHE26       0.2264
     11  O       -115.7980  -53.4190    6.6530 O.2    26  PHE26      -0.2867
     12  CB      -114.0310  -51.4760    7.7450 C.3    26  PHE26       0.0534
     13  CG      -114.8490  -50.2620    7.3740 C.ar   26  PHE26      -0.0203
     14  CD1     -116.2340  -50.3330    7.2940 C.ar   26  PHE26      -0.0042
     15  CD2     -114.2460  -49.0250    7.2040 C.ar   26  PHE26      -0.0042
     16  CE1     -116.9960  -49.2000    7.0060 C.ar   26  PHE26      -0.0003
     17  CE2     -115.0080  -47.8910    6.9260 C.ar   26  PHE26      -0.0003
     18  CZ      -116.3780  -47.9880    6.8220 C.ar   26  PHE26      -0.0000
     19  N       -121.2710  -53.5290    3.4300 N.3    30  ARG30      -0.1231
     20  CA      -121.9000  -54.5090    4.3230 C.3    30  ARG30       0.1694
     21  C       -122.5140  -53.8970    5.5970 C.2    30  ARG30       0.2592
     22  O       -123.3090  -54.5650    6.2680 O.2    30  ARG30      -0.2718
     23  CB      -120.8730  -55.5840    4.7200 C.3    30  ARG30       0.0321
     24  CG      -120.5250  -56.5710    3.6080 C.3    30  ARG30       0.0489
     25  CD      -120.8420  -58.0090    3.9880 C.3    30  ARG30       0.2205
     26  NE      -120.1160  -58.4470    5.1890 N.pl3  30  ARG30      -0.0865
     27  CZ      -120.6400  -59.2140    6.1400 C.cat  30  ARG30       0.5346
     28  NH1     -121.8900  -59.6480    6.0460 N.pl3  30  ARG30       0.1354
     29  NH2     -119.9120  -59.5540    7.1950 N.pl3  30  ARG30       0.1354
     30  N       -122.1450  -52.6450    5.9320 N.am   31  TYR31      -0.1962
     31  CA      -122.6020  -52.0150    7.1640 C.3    31  TYR31       0.1771
     32  C       -123.4040  -50.7260    7.0230 C.2    31  TYR31       0.2620
     33  O       -123.2710  -49.9960    6.0370 O.2    31  TYR31      -0.2715
     34  CB      -121.4220  -51.8360    8.1450 C.3    31  TYR31       0.0574
     35  CG      -120.6170  -53.1000    8.3650 C.ar   31  TYR31      -0.0198
     36  CD1     -121.0910  -54.1200    9.1880 C.ar   31  TYR31      -0.0009
     37  CD2     -119.3940  -53.2910    7.7300 C.ar   31  TYR31      -0.0009
     38  CE1     -120.3680  -55.2990    9.3720 C.ar   31  TYR31       0.0417
     39  CE2     -118.6600  -54.4650    7.9080 C.ar   31  TYR31       0.0417
     40  CZ      -119.1500  -55.4650    8.7350 C.ar   31  TYR31       0.1957
     41  OH      -118.4260  -56.6200    8.9170 O.3    31  TYR31      -0.2866
     42  N       -124.2380  -50.4560    8.0380 N.am   32  SER32      -0.1936
     43  CA      -125.0310  -49.2440    8.1530 C.3    32  SER32       0.2055
     44  C       -124.1060  -48.1140    8.6160 C.2    32  SER32       0.2643
     45  O       -123.2100  -48.3500    9.4240 O.2    32  SER32      -0.2714
     46  CB      -126.1680  -49.4420    9.1520 C.3    32  SER32       0.2130
     47  OG      -127.1360  -50.3570    8.6680 O.3    32  SER32      -0.2179
     48  N       -124.3060  -46.8970    8.0800 N.am   33  MET33      -0.1962
     49  CA      -123.4980  -45.7150    8.3920 C.3    33  MET33       0.1736
     50  C       -124.3670  -44.5530    8.8420 C.2    33  MET33       0.2617
     51  O       -125.5470  -44.4820    8.4900 O.2    33  MET33      -0.2715
     52  CB      -122.6290  -45.2980    7.1900 C.3    33  MET33       0.0427
     53  CG      -121.6600  -46.3680    6.7120 C.3    33  MET33       0.0599
     54  SD      -120.3850  -46.8730    7.8990 S.3    33  MET33      -0.1393
     55  CE      -119.3800  -45.3580    7.9800 C.3    33  MET33       0.0692
     56  N       -123.7750  -43.6250    9.6030 N.am   34  SER34      -0.1950
     57  CA      -124.4950  -42.4870   10.1480 C.3    34  SER34       0.1924
     58  C       -123.6550  -41.2190   10.3140 C.2    34  SER34       0.2314
     59  O       -122.4270  -41.2610   10.2870 O.2    34  SER34      -0.2863
     60  CB      -125.1100  -42.8760   11.4910 C.3    34  SER34       0.2116
     61  OG      -124.1000  -43.1060   12.4590 O.3    34  SER34      -0.2180
     62  N       -127.8080  -37.7310   16.7840 N.3    46  LEU46      -0.1245
     63  CA      -127.8330  -38.3190   15.4350 C.3    46  LEU46       0.1561
     64  C       -128.4760  -37.3680   14.4210 C.2    46  LEU46       0.2260
     65  O       -129.4800  -36.7220   14.7320 O.2    46  LEU46      -0.2867
     66  CB      -128.5790  -39.6690   15.4380 C.3    46  LEU46       0.0270
     67  CG      -128.4730  -40.5290   14.1680 C.3    46  LEU46       0.0019
     68  CD1     -127.2010  -41.3660   14.1720 C.3    46  LEU46       0.0001
     69  CD2     -129.6770  -41.4290   14.0200 C.3    46  LEU46       0.0001
     70  N       -129.3200  -41.6950    9.4200 N.3    49  GLN49      -0.1245
     71  CA      -128.8780  -43.0820    9.4000 C.3    49  GLN49       0.1566
     72  C       -129.2970  -43.7150    8.0960 C.2    49  GLN49       0.2260
     73  O       -130.4210  -43.5140    7.6410 O.2    49  GLN49      -0.2867
     74  CB      -129.4520  -43.8660   10.5890 C.3    49  GLN49       0.0367
     75  CG      -128.5360  -44.9880   11.0630 C.3    49  GLN49       0.0905
     76  CD      -129.1030  -45.7920   12.2070 C.2    49  GLN49       0.2608
     77  OE1     -129.7150  -45.2460   13.1300 O.2    49  GLN49      -0.2717
     78  NE2     -128.9480  -47.1080   12.1680 N.am   49  GLN49      -0.0878
     79  N       -128.9260  -47.5710    5.7210 N.3    51  ASN51      -0.1225
     80  CA      -128.6280  -48.9990    5.7960 C.3    51  ASN51       0.1785
     81  C       -127.5100  -49.3640    4.8140 C.2    51  ASN51       0.2597
     82  O       -127.1400  -48.5300    3.9840 O.2    51  ASN51      -0.2718
     83  CB      -129.9000  -49.8520    5.6150 C.3    51  ASN51       0.1169
     84  CG      -130.5050  -49.9260    4.2310 C.2    51  ASN51       0.2627
     85  OD1     -130.1190  -49.2280    3.2870 O.2    51  ASN51      -0.2716
     86  ND2     -131.4850  -50.7990    4.0880 N.am   51  ASN51      -0.0877
     87  N       -126.9760  -50.5970    4.9170 N.am   52  SER52      -0.1952
     88  CA      -125.8730  -51.1350    4.1020 C.3    52  SER52       0.1924
     89  C       -125.8840  -50.7900    2.6100 C.2    52  SER52       0.2314
     90  O       -124.8300  -50.4700    2.0620 O.2    52  SER52      -0.2863
     91  CB      -125.7410  -52.6440    4.2950 C.3    52  SER52       0.2116
     92  OG      -126.9650  -53.3140    4.0390 O.3    52  SER52      -0.2180
     93  N       -133.1330  -48.1410    3.1240 N.3    56  SER56      -0.1217
     94  CA      -133.6870  -47.4350    4.2750 C.3    56  SER56       0.1889
     95  C       -132.8350  -46.2320    4.6490 C.2    56  SER56       0.2288
     96  O       -131.6040  -46.2980    4.6200 O.2    56  SER56      -0.2866
     97  CB      -133.8150  -48.3730    5.4700 C.3    56  SER56       0.2089
     98  OG      -134.7400  -49.4170    5.2130 O.3    56  SER56      -0.2183
     99  N       -119.5270  -45.3300   11.9010 N.3    97  SER97      -0.1202
    100  CA      -119.9210  -46.7010   11.5470 C.3    97  SER97       0.2020
    101  C       -120.4760  -47.3490   12.8200 C.2    97  SER97       0.2619
    102  O       -120.7770  -48.5440   12.8450 O.2    97  SER97      -0.2717
    103  CB      -118.7180  -47.4940   11.0380 C.3    97  SER97       0.2103
    104  OG      -117.9900  -48.1080   12.0880 O.3    97  SER97      -0.2182
    105  N       -120.5820  -46.5370   13.8690 N.am   98  GLY98      -0.1942
    106  CA      -121.0110  -46.9710   15.1820 C.3    98  GLY98       0.2014
    107  C       -119.7800  -47.2840   15.9930 C.2    98  GLY98       0.2639
    108  O       -119.4030  -46.5090   16.8730 O.2    98  GLY98      -0.2714
    109  N       -119.1040  -48.3840   15.6420 N.am   99  ASP99      -0.1957
    110  CA      -117.8600  -48.8060   16.2890 C.3    99  ASP99       0.1840
    111  C       -116.6570  -47.9240   15.9090 C.2    99  ASP99       0.2622
    112  O       -115.6250  -47.9850   16.5760 O.2    99  ASP99      -0.2715
    113  CB      -117.5790  -50.3190   16.0750 C.3    99  ASP99       0.1450
    114  CG      -117.7560  -50.8640   14.6670 C.2    99  ASP99       0.3671
    115  OD1     -118.8010  -50.5760   14.0430 O.co2  99  ASP99      -0.2456
    116  OD2     -116.8950  -51.6590   14.2260 O.co2  99  ASP99      -0.2456
    117  N       -116.7950  -47.0970   14.8550 N.am  100  TYR100     -0.1960
    118  CA      -115.7290  -46.2080   14.3930 C.3   100  TYR100      0.1771
    119  C       -116.2210  -44.8040   14.0930 C.2   100  TYR100      0.2619
    120  O       -117.2470  -44.6400   13.4330 O.2   100  TYR100     -0.2715
    121  CB      -114.9850  -46.8090   13.1960 C.3   100  TYR100      0.0574
    122  CG      -114.1330  -48.0000   13.5740 C.ar  100  TYR100     -0.0198
    123  CD1     -112.8630  -47.8270   14.1210 C.ar  100  TYR100     -0.0009
    124  CD2     -114.5980  -49.2980   13.4030 C.ar  100  TYR100     -0.0009
    125  CE1     -112.0760  -48.9170   14.4800 C.ar  100  TYR100      0.0417
    126  CE2     -113.8160  -50.3970   13.7490 C.ar  100  TYR100      0.0417
    127  CZ      -112.5540  -50.2000   14.2850 C.ar  100  TYR100      0.1957
    128  OH      -111.7710  -51.2730   14.6350 O.3   100  TYR100     -0.2866
    129  N       -115.4960  -43.7950   14.6140 N.am  101  TRP101     -0.1974
    130  CA      -115.7990  -42.3730   14.4680 C.3   101  TRP101      0.1640
    131  C       -114.5970  -41.6350   13.8730 C.2   101  TRP101      0.2290
    132  O       -113.4550  -41.8600   14.2890 O.2   101  TRP101     -0.2864
    133  CB      -116.1510  -41.7440   15.8440 C.3   101  TRP101      0.0576
    134  CG      -117.3520  -42.3230   16.5410 C.ar  101  TRP101      0.0006
    135  CD1     -117.5180  -43.6120   16.9580 C.ar  101  TRP101      0.0946
    136  CD2     -118.5090  -41.6050   16.9930 C.ar  101  TRP101      0.0152
    137  NE1     -118.7460  -43.7620   17.5540 N.ar  101  TRP101     -0.2442
    138  CE2     -119.3610  -42.5380   17.6240 C.ar  101  TRP101      0.0810
    139  CE3     -118.9250  -40.2670   16.9010 C.ar  101  TRP101      0.0012
    140  CZ2     -120.6010  -42.1750   18.1640 C.ar  101  TRP101      0.0191
    141  CZ3     -120.1510  -39.9090   17.4410 C.ar  101  TRP101      0.0001
    142  CH2     -120.9770  -40.8580   18.0560 C.ar  101  TRP101      0.0015
@<TRIPOS>BOND
     1    90    89    2
     2    89    88    1
     3    93    94    1
     4    85    84    2
     5    19    20    1
     6    24    25    1
     7    24    23    1
     8    82    81    2
     9    25    26    1
    10    92    91    1
    11    86    84   am
    12    88    91    1
    13    88    87    1
    14    84    83    1
    15    94    95    1
    16    94    97    1
    17    20    23    1
    18    20    21    1
    19    96    95    2
    20    81    87   am
    21    81    80    1
    22    26    27    2
    23    98    97    1
    24    21    30   am
    25    21    22    2
    26    83    80    1
    27    79    80    1
    28     8     9    1
    29    30    31    1
    30    10     9    1
    31    10    11    2
    32    33    32    2
    33    28    27    1
    34    27    29    1
    35     9    12    1
    36    53    52    1
    37    53    54    1
    38    18    17   ar
    39    18    16   ar
    40    17    15   ar
    41    16    14   ar
    42    32    31    1
    43    32    42   am
    44    31    34    1
    45    52    49    1
    46    15    13   ar
    47    14    13   ar
    48    13    12    1
    49    73    72    2
    50    37    39   ar
    51    37    35   ar
    52    54    55    1
    53    39    40   ar
    54    42    43    1
    55    48    49    1
    56    48    44   am
    57    72    71    1
    58    34    35    1
    59    43    44    1
    60    43    46    1
    61    35    36   ar
    62    49    50    1
    63    51    50    2
    64    44    45    2
    65    47    46    1
    66    40    41    1
    67    40    38   ar
    68    50    56   am
    69    36    38   ar
    70    71    70    1
    71    71    74    1
    72    56    57    1
    73     2     3    1
    74     2     1    1
    75     2     5    1
    76     3     4    2
    77    57    58    1
    78    57    60    1
    79    59    58    2
    80     7     5    1
    81     6     5    1
    82    74    75    1
    83   103   100    1
    84   103   104    1
    85    75    76    1
    86    60    61    1
    87   100    99    1
    88   100   101    1
    89    78    76   am
    90    76    77    2
    91   101   102    2
    92   101   105   am
    93   121   122    1
    94   121   118    1
    95   124   122   ar
    96   124   126   ar
    97   120   119    2
    98   122   123   ar
    99   126   127   ar
   100   105   106    1
   101   131   132    2
   102   131   130    1
   103    69    67    1
   104   115   114   ar
   105   119   118    1
   106   119   129   am
   107   123   125   ar
   108    67    68    1
   109    67    66    1
   110   116   114   ar
   111   127   125   ar
   112   127   128    1
   113   118   117    1
   114    64    65    2
   115    64    63    1
   116   130   129    1
   117   130   133    1
   118   114   113    1
   119   117   111   am
   120   106   107    1
   121    63    66    1
   122    63    62    1
   123   109   107   am
   124   109   110    1
   125   133   134    1
   126   111   110    1
   127   111   112    2
   128   107   108    2
   129   113   110    1
   130   134   135   ar
   131   134   136   ar
   132   139   136   ar
   133   139   141   ar
   134   135   137   ar
   135   136   138   ar
   136   141   142   ar
   137   137   138   ar
   138   138   140   ar
   139   142   140   ar
