@<TRIPOS>MOLECULE
tmp/4xxdA00.pdb
 127 124 0 0 0
SMALL
GASTEIGER

@<TRIPOS>ATOM
      1  N        -96.4870  -39.8900  -32.5310 N.3    31  TYR31      -0.1241
      2  CA       -96.1930  -40.9440  -31.5670 C.3    31  TYR31       0.1605
      3  C        -96.1180  -42.3240  -32.2540 C.2    31  TYR31       0.2264
      4  O        -96.4530  -42.4340  -33.4410 O.2    31  TYR31      -0.2867
      5  CB       -97.2130  -40.9090  -30.4090 C.3    31  TYR31       0.0534
      6  CG       -96.6950  -41.4980  -29.1140 C.ar   31  TYR31      -0.0201
      7  CD1      -95.6860  -40.8660  -28.3900 C.ar   31  TYR31      -0.0009
      8  CD2      -97.2160  -42.6850  -28.6070 C.ar   31  TYR31      -0.0009
      9  CE1      -95.2050  -41.4040  -27.1960 C.ar   31  TYR31       0.0417
     10  CE2      -96.7440  -43.2310  -27.4130 C.ar   31  TYR31       0.0417
     11  CZ       -95.7330  -42.5920  -26.7150 C.ar   31  TYR31       0.1957
     12  OH       -95.2620  -43.1330  -25.5430 O.3    31  TYR31      -0.2866
     13  N        -97.9560  -44.9080  -32.1250 N.3    33  ASP33      -0.1239
     14  CA       -99.2550  -45.3920  -32.6060 C.3    33  ASP33       0.1674
     15  C        -99.6960  -44.7210  -33.9260 C.2    33  ASP33       0.2266
     16  O       -100.7360  -45.0830  -34.4810 O.2    33  ASP33      -0.2867
     17  CB      -100.3330  -45.2470  -31.5140 C.3    33  ASP33       0.1410
     18  CG      -100.6740  -43.8190  -31.1200 C.2    33  ASP33       0.3668
     19  OD1      -99.7450  -42.9890  -31.0220 O.co2  33  ASP33      -0.2456
     20  OD2     -101.8640  -43.5470  -30.8540 O.co2  33  ASP33      -0.2456
     21  N       -100.0990  -35.9890  -31.3250 N.3    37  TYR37      -0.1241
     22  CA      -100.8660  -35.4670  -30.1930 C.3    37  TYR37       0.1605
     23  C       -100.9540  -33.9420  -30.0250 C.2    37  TYR37       0.2264
     24  O       -100.6920  -33.4090  -28.9460 O.2    37  TYR37      -0.2867
     25  CB      -100.5290  -36.2510  -28.9020 C.3    37  TYR37       0.0534
     26  CG      -101.0590  -37.6690  -28.9400 C.ar   37  TYR37      -0.0201
     27  CD1     -100.3850  -38.6690  -29.6370 C.ar   37  TYR37      -0.0009
     28  CD2     -102.2660  -37.9980  -28.3320 C.ar   37  TYR37      -0.0009
     29  CE1     -100.9000  -39.9620  -29.7280 C.ar   37  TYR37       0.0417
     30  CE2     -102.7830  -39.2910  -28.4010 C.ar   37  TYR37       0.0417
     31  CZ      -102.0980  -40.2700  -29.1020 C.ar   37  TYR37       0.1957
     32  OH      -102.6210  -41.5370  -29.1770 O.3    37  TYR37      -0.2866
     33  N       -103.3970  -30.6410  -30.0090 N.3    39  HIS39      -0.1241
     34  CA      -104.7730  -30.2150  -29.7420 C.3    39  HIS39       0.1621
     35  C       -104.9550  -28.7010  -29.7570 C.2    39  HIS39       0.2264
     36  O       -103.9880  -27.9440  -29.6610 O.2    39  HIS39      -0.2867
     37  CB      -105.2540  -30.7600  -28.3770 C.3    39  HIS39       0.0745
     38  CG      -104.5450  -31.9890  -27.9030 C.ar   39  HIS39       0.0817
     39  ND1     -105.0200  -33.2510  -28.1910 N.ar   39  HIS39      -0.2268
     40  CD2     -103.4150  -32.1040  -27.1710 C.ar   39  HIS39       0.1154
     41  CE1     -104.1650  -34.0920  -27.6370 C.ar   39  HIS39       0.1986
     42  NE2     -103.1880  -33.4470  -27.0070 N.ar   39  HIS39      -0.2212
     43  N       -107.5090  -25.6410  -27.9310 N.3    41  PHE41      -0.1241
     44  CA      -108.4120  -25.3150  -26.8300 C.3    41  PHE41       0.1605
     45  C       -108.9250  -23.9050  -26.9430 C.2    41  PHE41       0.2264
     46  O       -108.1780  -23.0290  -27.3730 O.2    41  PHE41      -0.2867
     47  CB      -107.6700  -25.4380  -25.4810 C.3    41  PHE41       0.0534
     48  CG      -107.1880  -26.8190  -25.1280 C.ar   41  PHE41      -0.0203
     49  CD1     -107.9950  -27.6900  -24.4090 C.ar   41  PHE41      -0.0042
     50  CD2     -105.9190  -27.2480  -25.5040 C.ar   41  PHE41      -0.0042
     51  CE1     -107.5510  -28.9720  -24.0890 C.ar   41  PHE41      -0.0003
     52  CE2     -105.4770  -28.5310  -25.1810 C.ar   41  PHE41      -0.0003
     53  CZ      -106.2920  -29.3780  -24.4640 C.ar   41  PHE41      -0.0000
     54  N       -111.7710  -28.0560  -24.9890 N.3    51  LEU51      -0.1245
     55  CA      -111.1360  -28.7140  -26.1310 C.3    51  LEU51       0.1561
     56  C       -112.0230  -28.5970  -27.3780 C.2    51  LEU51       0.2260
     57  O       -113.2260  -28.8840  -27.3110 O.2    51  LEU51      -0.2867
     58  CB      -110.8320  -30.1980  -25.7980 C.3    51  LEU51       0.0270
     59  CG      -110.1480  -31.0440  -26.8880 C.3    51  LEU51       0.0019
     60  CD1     -108.6640  -30.7660  -26.9600 C.3    51  LEU51       0.0001
     61  CD2     -110.3530  -32.5150  -26.6430 C.3    51  LEU51       0.0001
     62  N       -108.7100  -32.3160  -31.2450 N.3    54  TYR54      -0.1227
     63  CA      -107.8500  -33.1700  -30.4300 C.3    54  TYR54       0.1736
     64  C       -106.6170  -33.7710  -31.1060 C.2    54  TYR54       0.2595
     65  O       -105.5110  -33.4480  -30.6880 O.2    54  TYR54      -0.2718
     66  CB      -108.6060  -34.1650  -29.5350 C.3    54  TYR54       0.0548
     67  CG      -109.5960  -35.0740  -30.2220 C.ar   54  TYR54      -0.0200
     68  CD1     -109.1870  -36.2830  -30.7860 C.ar   54  TYR54      -0.0009
     69  CD2     -110.9560  -34.7950  -30.1970 C.ar   54  TYR54      -0.0009
     70  CE1     -110.1070  -37.1580  -31.3690 C.ar   54  TYR54       0.0417
     71  CE2     -111.8850  -35.6590  -30.7780 C.ar   54  TYR54       0.0417
     72  CZ      -111.4570  -36.8430  -31.3580 C.ar   54  TYR54       0.1957
     73  OH      -112.3660  -37.7000  -31.9360 O.3    54  TYR54      -0.2866
     74  N       -106.7720  -34.5700  -32.1260 N.am   55  LYS55      -0.1980
     75  CA      -105.5730  -35.0620  -32.7480 C.3    55  LYS55       0.1596
     76  C       -105.4220  -34.5800  -34.1740 C.2    55  LYS55       0.2287
     77  O       -105.8140  -35.2430  -35.1100 O.2    55  LYS55      -0.2864
     78  CB      -105.4930  -36.5640  -32.6220 C.3    55  LYS55       0.0298
     79  CG      -105.5600  -37.0230  -31.1970 C.3    55  LYS55       0.0038
     80  CD      -104.8420  -38.3430  -31.0050 C.3    55  LYS55       0.0206
     81  CE      -105.8010  -39.5040  -30.8830 C.3    55  LYS55       0.1093
     82  NZ      -106.6790  -39.5180  -29.6970 N.3    55  LYS55      -0.1314
     83  N       -114.0820  -32.2320  -31.3090 N.3    60  PHE60      -0.1241
     84  CA      -114.6050  -32.7720  -30.0510 C.3    60  PHE60       0.1605
     85  C       -116.1430  -32.7040  -30.0170 C.2    60  PHE60       0.2264
     86  O       -116.7450  -32.1080  -30.9170 O.2    60  PHE60      -0.2867
     87  CB      -113.9490  -32.0570  -28.8400 C.3    60  PHE60       0.0534
     88  CG      -114.1170  -32.7310  -27.4950 C.ar   60  PHE60      -0.0203
     89  CD1     -113.5840  -33.9950  -27.2560 C.ar   60  PHE60      -0.0042
     90  CD2     -114.8050  -32.0990  -26.4640 C.ar   60  PHE60      -0.0042
     91  CE1     -113.7480  -34.6200  -26.0140 C.ar   60  PHE60      -0.0003
     92  CE2     -114.9690  -32.7250  -25.2230 C.ar   60  PHE60      -0.0003
     93  CZ      -114.4410  -33.9810  -25.0070 C.ar   60  PHE60      -0.0000
     94  N        -99.2470  -33.2570  -26.2180 N.3    96  SER96      -0.1202
     95  CA       -99.3670  -34.3040  -25.1960 C.3    96  SER96       0.2020
     96  C        -98.6850  -35.6200  -25.6360 C.2    96  SER96       0.2619
     97  O        -99.0230  -36.7030  -25.1390 O.2    96  SER96      -0.2717
     98  CB      -100.8240  -34.5160  -24.7990 C.3    96  SER96       0.2103
     99  OG      -101.5650  -35.0440  -25.8840 O.3    96  SER96      -0.2182
    100  N        -97.6900  -35.4970  -26.5530 N.am   97  THR97      -0.1952
    101  CA       -96.8640  -36.5790  -27.0940 C.3    97  THR97       0.1897
    102  C        -95.7830  -36.9170  -26.0700 C.2    97  THR97       0.2313
    103  O        -95.5740  -38.0920  -25.7600 O.2    97  THR97      -0.2863
    104  CB       -96.2530  -36.1560  -28.4510 C.3    97  THR97       0.1794
    105  OG1      -97.2950  -35.7850  -29.3510 O.3    97  THR97      -0.2208
    106  CG2      -95.3810  -37.2430  -29.0790 C.3    97  THR97       0.0378
    107  N        -93.6850  -35.7810  -22.1540 N.3    99  VAL99      -0.1245
    108  CA       -93.8720  -35.2870  -20.7870 C.3    99  VAL99       0.1561
    109  C        -92.8170  -34.1730  -20.5610 C.2    99  VAL99       0.2260
    110  O        -91.6340  -34.4060  -20.8340 O.2    99  VAL99      -0.2867
    111  CB       -93.8190  -36.4240  -19.7210 C.3    99  VAL99       0.0252
    112  CG1      -93.9120  -35.8690  -18.3010 C.3    99  VAL99       0.0019
    113  CG2      -94.9300  -37.4470  -19.9560 C.3    99  VAL99       0.0019
    114  N        -96.7890  -32.0410  -20.6660 N.3   101  TRP101     -0.1241
    115  CA       -97.8550  -31.5430  -21.5290 C.3   101  TRP101      0.1605
    116  C        -97.6170  -30.0260  -21.5840 C.2   101  TRP101      0.2264
    117  O        -97.6010  -29.3830  -20.5270 O.2   101  TRP101     -0.2867
    118  CB       -99.2200  -31.8640  -20.8700 C.3   101  TRP101      0.0550
    119  CG      -100.4450  -31.1830  -21.4320 C.ar  101  TRP101      0.0003
    120  CD1     -100.6300  -30.7310  -22.7070 C.ar  101  TRP101      0.0946
    121  CD2     -101.7060  -31.0160  -20.7630 C.ar  101  TRP101      0.0152
    122  NE1     -101.9070  -30.2400  -22.8570 N.ar  101  TRP101     -0.2442
    123  CE2     -102.5970  -30.4250  -21.6890 C.ar  101  TRP101      0.0810
    124  CE3     -102.1690  -31.3000  -19.4670 C.ar  101  TRP101      0.0012
    125  CZ2     -103.9170  -30.0980  -21.3540 C.ar  101  TRP101      0.0191
    126  CZ3     -103.4860  -31.0050  -19.1480 C.ar  101  TRP101      0.0001
    127  CH2     -104.3400  -30.4000  -20.0780 C.ar  101  TRP101      0.0015
@<TRIPOS>BOND
     1    77    76    2
     2    16    15    2
     3    76    75    1
     4    15    14    1
     5     4     3    2
     6    75    78    1
     7    75    74    1
     8    78    79    1
     9    14    13    1
    10    14    17    1
    11     1     2    1
    12     3     2    1
    13    74    64   am
    14    73    72    1
    15     2     5    1
    16    17    18    1
    17    70    72   ar
    18    70    68   ar
    19    72    71   ar
    20    21    22    1
    21    83    84    1
    22    62    63    1
    23    79    80    1
    24    18    19   ar
    25    18    20   ar
    26    64    65    2
    27    64    63    1
    28    80    81    1
    29    86    85    2
    30    81    82    1
    31    68    67   ar
    32    71    69   ar
    33    63    66    1
    34     5     6    1
    35    67    69   ar
    36    67    66    1
    37    22    23    1
    38    22    25    1
    39    84    85    1
    40    84    87    1
    41    23    24    2
    42    33    34    1
    43    35    34    1
    44    35    36    2
    45    34    37    1
    46    29    27   ar
    47    29    31   ar
    48    27    26   ar
    49   105   104    1
    50    32    31    1
    51     6     8   ar
    52     6     7   ar
    53    31    30   ar
    54   106   104    1
    55    26    25    1
    56    26    28   ar
    57    87    88    1
    58     8    10   ar
    59   104   101    1
    60    30    28   ar
    61     7     9   ar
    62    37    38    1
    63    39    38   ar
    64    39    41   ar
    65    43    44    1
    66    38    40   ar
    67    41    42   ar
    68    88    89   ar
    69    88    90   ar
    70    10    11   ar
    71    56    57    2
    72    56    55    1
    73    46    45    2
    74    89    91   ar
    75     9    11   ar
    76    40    42   ar
    77   101   100    1
    78   101   102    1
    79    60    59    1
    80    45    44    1
    81    59    61    1
    82    59    58    1
    83    44    47    1
    84    11    12    1
    85   100    96   am
    86    90    92   ar
    87    94    95    1
    88    55    58    1
    89    55    54    1
    90   102   103    2
    91    91    93   ar
    92    99    98    1
    93    96    95    1
    94    96    97    2
    95    50    52   ar
    96    50    48   ar
    97    47    48    1
    98    92    93   ar
    99    95    98    1
   100    52    53   ar
   101    48    49   ar
   102    53    51   ar
   103    49    51   ar
   104   122   120   ar
   105   122   123   ar
   106   120   119   ar
   107   107   108    1
   108   123   125   ar
   109   123   121   ar
   110   116   115    1
   111   116   117    2
   112   115   118    1
   113   115   114    1
   114   119   118    1
   115   119   121   ar
   116   125   127   ar
   117   110   109    2
   118   108   109    1
   119   108   111    1
   120   121   124   ar
   121   127   126   ar
   122   113   111    1
   123   111   112    1
   124   124   126   ar
