@<TRIPOS>MOLECULE
tmp/4xxhB00.pdb
 213 204 0 0 0
SMALL
GASTEIGER

@<TRIPOS>ATOM
      1  N         19.4780   10.2930   22.1560 N.3    10  THR10      -0.1203
      2  CA        19.7860   10.5420   20.7320 C.3    10  THR10       0.1994
      3  C         20.5500    9.3240   20.2100 C.2    10  THR10       0.2617
      4  O         20.2360    8.8210   19.1340 O.2    10  THR10      -0.2717
      5  CB        20.5570   11.8660   20.4970 C.3    10  THR10       0.1784
      6  OG1       21.8520   11.7830   21.0940 O.3    10  THR10      -0.2211
      7  CG2       19.8170   13.0940   21.0130 C.3    10  THR10       0.0376
      8  N         21.5300    8.8180   21.0080 N.am   11  ARG11      -0.1979
      9  CA        22.3810    7.6820   20.6120 C.3    11  ARG11       0.1597
     10  C         22.4780    6.6900   21.7450 C.2    11  ARG11       0.2287
     11  O         22.8510    7.0760   22.8590 O.2    11  ARG11      -0.2864
     12  CB        23.8110    8.1710   20.2240 C.3    11  ARG11       0.0334
     13  CG        23.8670    9.1570   19.0430 C.3    11  ARG11       0.0492
     14  CD        24.9120   10.2550   19.2240 C.3    11  ARG11       0.2205
     15  NE        24.6440   11.0640   20.4190 N.pl3  11  ARG11      -0.0865
     16  CZ        25.5760   11.5630   21.2270 C.cat  11  ARG11       0.5346
     17  NH1       26.8590   11.3540   20.9790 N.pl3  11  ARG11       0.1354
     18  NH2       25.2290   12.2690   22.2940 N.pl3  11  ARG11       0.1354
     19  N         26.0730    6.4100   23.1920 N.3    14  SER14      -0.1202
     20  CA        26.6730    7.6150   23.7710 C.3    14  SER14       0.2020
     21  C         26.9140    7.3490   25.2490 C.2    14  SER14       0.2619
     22  O         25.9660    7.0640   25.9820 O.2    14  SER14      -0.2717
     23  CB        25.7630    8.8310   23.5880 C.3    14  SER14       0.2103
     24  OG        26.1690    9.8800   24.4560 O.3    14  SER14      -0.2182
     25  N         28.1750    7.4520   25.6870 N.am   15  LEU15      -0.1965
     26  CA        28.5420    7.2600   27.0850 C.3    15  LEU15       0.1728
     27  C         27.9970    8.3600   27.9720 C.2    15  LEU15       0.2617
     28  O         27.4650    8.0680   29.0360 O.2    15  LEU15      -0.2715
     29  CB        30.0580    7.1020   27.2630 C.3    15  LEU15       0.0311
     30  CG        30.7390    5.9730   26.4340 C.3    15  LEU15       0.0022
     31  CD1       32.2540    6.0360   26.5800 C.3    15  LEU15       0.0001
     32  CD2       30.2270    4.5440   26.8000 C.3    15  LEU15       0.0001
     33  N         28.0850    9.6190   27.5160 N.am   16  SER16      -0.1936
     34  CA        27.5900   10.8100   28.2180 C.3    16  SER16       0.2055
     35  C         26.1060   10.7060   28.5220 C.2    16  SER16       0.2642
     36  O         25.6940   11.0140   29.6380 O.2    16  SER16      -0.2714
     37  CB        27.8710   12.0670   27.4060 C.3    16  SER16       0.2130
     38  OG        29.2680   12.3070   27.4120 O.3    16  SER16      -0.2179
     39  N         25.3090   10.2300   27.5420 N.am   17  GLU17      -0.1976
     40  CA        23.8680   10.0690   27.7380 C.3    17  GLU17       0.1602
     41  C         23.5690    8.9160   28.6620 C.2    17  GLU17       0.2287
     42  O         22.7420    9.0700   29.5560 O.2    17  GLU17      -0.2864
     43  CB        23.1520    9.9220   26.4060 C.3    17  GLU17       0.0415
     44  CG        23.2250   11.2130   25.6200 C.3    17  GLU17       0.1163
     45  CD        22.5010   11.1910   24.2960 C.2    17  GLU17       0.3649
     46  OE1       21.7660   10.2120   24.0240 O.co2  17  GLU17      -0.2457
     47  OE2       22.6350   12.1890   23.5500 O.co2  17  GLU17      -0.2457
     48  N         18.9950   12.2180   16.4460 N.3    42  PHE42      -0.1241
     49  CA        18.8850   13.6400   16.0590 C.3    42  PHE42       0.1605
     50  C         17.8450   13.9270   14.9870 C.2    42  PHE42       0.2264
     51  O         17.9120   14.9710   14.3350 O.2    42  PHE42      -0.2867
     52  CB        20.2590   14.2180   15.6370 C.3    42  PHE42       0.0534
     53  CG        21.3080   14.0770   16.7120 C.ar   42  PHE42      -0.0203
     54  CD1       21.3300   14.9390   17.8010 C.ar   42  PHE42      -0.0042
     55  CD2       22.2700   13.0790   16.6370 C.ar   42  PHE42      -0.0042
     56  CE1       22.3140   14.8230   18.7900 C.ar   42  PHE42      -0.0003
     57  CE2       23.2610   12.9740   17.6110 C.ar   42  PHE42      -0.0003
     58  CZ        23.2790   13.8540   18.6830 C.ar   42  PHE42      -0.0000
     59  N         15.9140   13.6710   25.4470 N.3    65  PHE65      -0.1227
     60  CA        17.2510   14.2890   25.2790 C.3    65  PHE65       0.1736
     61  C         17.1260   15.2290   24.0680 C.2    65  PHE65       0.2596
     62  O         16.8970   14.7830   22.9370 O.2    65  PHE65      -0.2718
     63  CB        18.3270   13.2150   25.0580 C.3    65  PHE65       0.0547
     64  CG        18.7700   12.5200   26.3210 C.ar   65  PHE65      -0.0202
     65  CD1       17.9500   11.5730   26.9440 C.ar   65  PHE65      -0.0042
     66  CD2       20.0280   12.7680   26.8660 C.ar   65  PHE65      -0.0042
     67  CE1       18.3610   10.9290   28.1100 C.ar   65  PHE65      -0.0003
     68  CE2       20.4500   12.1070   28.0350 C.ar   65  PHE65      -0.0003
     69  CZ        19.6220   11.1860   28.6400 C.ar   65  PHE65      -0.0000
     70  N         17.1140   16.5260   24.3460 N.am   66  GLY66      -0.1942
     71  CA        16.8880   17.5540   23.3320 C.3    66  GLY66       0.2014
     72  C         18.0430   17.7680   22.3800 C.2    66  GLY66       0.2638
     73  O         19.1940   17.4760   22.7050 O.2    66  GLY66      -0.2714
     74  N         17.7440   18.3260   21.2180 N.am   67  PHE67      -0.1973
     75  CA        18.7200   18.6380   20.1740 C.3    67  PHE67       0.1639
     76  C         18.0580   19.6430   19.2370 C.2    67  PHE67       0.2290
     77  O         16.8430   19.8780   19.3520 O.2    67  PHE67      -0.2864
     78  CB        19.1860   17.3420   19.4320 C.3    67  PHE67       0.0560
     79  CG        18.0510   16.5510   18.8200 C.ar   67  PHE67      -0.0200
     80  CD1       17.5380   16.8950   17.5660 C.ar   67  PHE67      -0.0042
     81  CD2       17.4310   15.5260   19.5370 C.ar   67  PHE67      -0.0042
     82  CE1       16.4420   16.2190   17.0380 C.ar   67  PHE67      -0.0003
     83  CE2       16.3400   14.8380   19.0000 C.ar   67  PHE67      -0.0003
     84  CZ        15.8810   15.1590   17.7370 C.ar   67  PHE67      -0.0000
     85  N         19.2250   18.6110   28.4110 N.3    86  ALA86      -0.1231
     86  CA        20.3010   19.2740   27.6670 C.3    86  ALA86       0.1694
     87  C         19.8510   20.4840   26.8590 C.2    86  ALA86       0.2591
     88  O         20.6940   21.3090   26.5020 O.2    86  ALA86      -0.2718
     89  CB        21.0870   18.2920   26.7910 C.3    86  ALA86       0.0304
     90  N         18.5360   20.6260   26.6050 N.am   87  ARG87      -0.1980
     91  CA        17.9820   21.8020   25.9300 C.3    87  ARG87       0.1597
     92  C         16.7280   22.2360   26.6690 C.2    87  ARG87       0.2287
     93  O         16.1300   21.4420   27.3940 O.2    87  ARG87      -0.2864
     94  CB        17.6820   21.5480   24.4280 C.3    87  ARG87       0.0334
     95  CG        18.8460   21.0340   23.5840 C.3    87  ARG87       0.0492
     96  CD        19.7270   22.1410   23.0620 C.3    87  ARG87       0.2205
     97  NE        20.0560   21.9200   21.6450 N.pl3  87  ARG87      -0.0865
     98  CZ        21.1840   21.3600   21.2400 C.cat  87  ARG87       0.5346
     99  NH1       22.0920   20.9760   22.1210 N.pl3  87  ARG87       0.1354
    100  NH2       21.4100   21.1720   19.9530 N.pl3  87  ARG87       0.1354
    101  N         22.7880   21.5590   31.3420 N.3    97  TYR97      -0.1241
    102  CA        24.1640   21.6460   31.7930 C.3    97  TYR97       0.1605
    103  C         24.6940   23.0650   31.6040 C.2    97  TYR97       0.2264
    104  O         24.1820   23.8460   30.8070 O.2    97  TYR97      -0.2867
    105  CB        25.0460   20.6370   31.0420 C.3    97  TYR97       0.0534
    106  CG        24.5430   19.2200   31.1740 C.ar   97  TYR97      -0.0201
    107  CD1       24.6520   18.5300   32.3800 C.ar   97  TYR97      -0.0009
    108  CD2       23.9530   18.5630   30.0930 C.ar   97  TYR97      -0.0009
    109  CE1       24.1860   17.2240   32.5080 C.ar   97  TYR97       0.0417
    110  CE2       23.4900   17.2530   30.2100 C.ar   97  TYR97       0.0417
    111  CZ        23.6010   16.5910   31.4220 C.ar   97  TYR97       0.1957
    112  OH        23.1490   15.2980   31.5520 O.3    97  TYR97      -0.2866
    113  N         25.4820   22.6870   16.4570 N.3   127  ASP127     -0.1239
    114  CA        25.2440   21.9890   17.7220 C.3   127  ASP127      0.1674
    115  C         25.3900   23.1000   18.7860 C.2   127  ASP127      0.2266
    116  O         26.5060   23.4980   19.1450 O.2   127  ASP127     -0.2867
    117  CB        26.2790   20.8970   17.9160 C.3   127  ASP127      0.1410
    118  CG        26.1200   20.1300   19.2070 C.2   127  ASP127      0.3668
    119  OD1       25.5120   20.6680   20.1470 O.co2 127  ASP127     -0.2456
    120  OD2       26.6360   19.0150   19.2940 O.co2 127  ASP127     -0.2456
    121  N         24.7940   23.5880   22.1200 N.3   129  THR129     -0.1203
    122  CA        25.3980   23.4370   23.4350 C.3   129  THR129      0.1994
    123  C         26.8710   22.9920   23.3510 C.2   129  THR129      0.2618
    124  O         27.7550   23.7780   23.6830 O.2   129  THR129     -0.2717
    125  CB        24.5180   22.5550   24.3230 C.3   129  THR129      0.1784
    126  OG1       24.3180   21.2770   23.6990 O.3   129  THR129     -0.2211
    127  CG2       23.1790   23.2120   24.6210 C.3   129  THR129      0.0376
    128  N         27.1220   21.7660   22.8650 N.am  130  THR130     -0.1952
    129  CA        28.4520   21.1630   22.7490 C.3   130  THR130      0.1897
    130  C         29.3540   21.9250   21.7840 C.2   130  THR130      0.2313
    131  O         30.5750   21.9490   21.9790 O.2   130  THR130     -0.2863
    132  CB        28.3030   19.6900   22.3400 C.3   130  THR130      0.1794
    133  OG1       27.2860   19.0920   23.1400 O.3   130  THR130     -0.2208
    134  CG2       29.5830   18.9010   22.4920 C.3   130  THR130      0.0378
    135  N         30.2340   25.9490   24.0660 N.3   134  ARG134     -0.1245
    136  CA        31.5640   25.5300   24.5170 C.3   134  ARG134      0.1563
    137  C         32.7050   26.2960   23.8130 C.2   134  ARG134      0.2260
    138  O         33.6140   26.7800   24.4840 O.2   134  ARG134     -0.2867
    139  CB        31.7270   24.0130   24.4080 C.3   134  ARG134      0.0307
    140  CG        30.9300   23.3230   25.4780 C.3   134  ARG134      0.0489
    141  CD        31.1180   21.8230   25.5240 C.3   134  ARG134      0.2205
    142  NE        29.9990   21.2560   26.2690 N.pl3 134  ARG134     -0.0865
    143  CZ        29.7680   19.9650   26.4370 C.cat 134  ARG134      0.5346
    144  NH1       30.5930   19.0640   25.9270 N.pl3 134  ARG134      0.1354
    145  NH2       28.7060   19.5630   27.1090 N.pl3 134  ARG134      0.1354
    146  N         31.5010   15.2950   16.6780 N.3   156  LEU156     -0.1245
    147  CA        31.4120   14.4540   17.8760 C.3   156  LEU156      0.1561
    148  C         32.2480   13.1810   17.9110 C.2   156  LEU156      0.2260
    149  O         32.6000   12.7260   19.0010 O.2   156  LEU156     -0.2867
    150  CB        29.9400   14.0680   18.1270 C.3   156  LEU156      0.0270
    151  CG        28.9780   15.1690   18.5810 C.3   156  LEU156      0.0019
    152  CD1       27.5890   14.6160   18.6700 C.3   156  LEU156      0.0001
    153  CD2       29.3970   15.7670   19.9560 C.3   156  LEU156      0.0001
    154  N         36.3190   19.5630   23.6610 N.3   179  ALA179     -0.1231
    155  CA        34.9140   19.7980   24.0040 C.3   179  ALA179      0.1694
    156  C         34.2490   18.5720   24.6380 C.2   179  ALA179      0.2593
    157  O         33.2800   18.7310   25.3760 O.2   179  ALA179     -0.2718
    158  CB        34.1370   20.2450   22.7710 C.3   179  ALA179      0.0304
    159  N         34.7520   17.3480   24.3500 N.am  180  THR180     -0.1939
    160  CA        34.1880   16.0950   24.8840 C.3   180  THR180      0.2028
    161  C         35.3070   15.1000   25.1520 C.2   180  THR180      0.2642
    162  O         36.3330   15.1340   24.4570 O.2   180  THR180     -0.2714
    163  CB        33.1840   15.4310   23.8620 C.3   180  THR180      0.1808
    164  OG1       33.9050   14.8340   22.7980 O.3   180  THR180     -0.2208
    165  CG2       32.1860   16.4080   23.2450 C.3   180  THR180      0.0379
    166  N         35.0790   14.1640   26.0990 N.am  181  ASP181     -0.1957
    167  CA        36.0010   13.0690   26.4100 C.3   181  ASP181      0.1840
    168  C         36.3180   12.2370   25.1510 C.2   181  ASP181      0.2622
    169  O         37.4760   11.8790   24.9450 O.2   181  ASP181     -0.2715
    170  CB        35.4000   12.1430   27.4870 C.3   181  ASP181      0.1450
    171  CG        35.4860   12.6480   28.9110 C.2   181  ASP181      0.3671
    172  OD1       35.8510   13.8380   29.1080 O.co2 181  ASP181     -0.2456
    173  OD2       35.1700   11.8740   29.8250 O.co2 181  ASP181     -0.2456
    174  N         35.2930   11.9630   24.2960 N.am  182  THR182     -0.1951
    175  CA        35.4290   11.1940   23.0490 C.3   182  THR182      0.1897
    176  C         36.4600   11.8150   22.1160 C.2   182  THR182      0.2313
    177  O         37.2610   11.0940   21.5070 O.2   182  THR182     -0.2863
    178  CB        34.0610   11.0310   22.3510 C.3   182  THR182      0.1794
    179  OG1       33.1260   10.4940   23.2690 O.3   182  THR182     -0.2208
    180  CG2       34.1210   10.1390   21.1430 C.3   182  THR182      0.0378
    181  N         35.7160   17.7220   28.6580 N.3   204  VAL204     -0.1245
    182  CA        34.4470   17.8520   29.3590 C.3   204  VAL204      0.1561
    183  C         33.7760   16.4840   29.3300 C.2   204  VAL204      0.2260
    184  O         33.5380   15.9360   28.2580 O.2   204  VAL204     -0.2867
    185  CB        33.5550   18.9440   28.7030 C.3   204  VAL204      0.0252
    186  CG1       32.1860   19.0470   29.3910 C.3   204  VAL204      0.0019
    187  CG2       34.2700   20.2900   28.6750 C.3   204  VAL204      0.0019
    188  N         33.9260   10.9490   32.1560 N.3   207  THR207     -0.1218
    189  CA        33.3740    9.6080   31.9400 C.3   207  THR207      0.1862
    190  C         34.3080    8.5630   32.5550 C.2   207  THR207      0.2287
    191  O         35.5170    8.8140   32.6590 O.2   207  THR207     -0.2866
    192  CB        33.1200    9.3260   30.4520 C.3   207  THR207      0.1770
    193  OG1       34.3650    9.2850   29.7670 O.3   207  THR207     -0.2211
    194  CG2       32.1510   10.3110   29.8080 C.3   207  THR207      0.0375
    195  N         30.1850   17.5840   33.9640 N.3   222  PRO222     -0.2116
    196  CA        28.9780   18.4060   33.7160 C.3   222  PRO222      0.1372
    197  C         27.8150   18.0470   34.6550 C.2   222  PRO222      0.2244
    198  O         26.8650   18.8140   34.7620 O.2   222  PRO222     -0.2868
    199  CB        28.6350   18.1240   32.2380 C.3   222  PRO222      0.0268
    200  CG        29.7800   17.3110   31.6940 C.3   222  PRO222      0.0207
    201  CD        30.4140   16.6210   32.8660 C.3   222  PRO222      0.0892
    202  N         26.2430   14.5960   34.7900 N.3   224  TYR224     -0.1241
    203  CA        25.3220   13.6600   34.1250 C.3   224  TYR224      0.1605
    204  C         24.5190   12.8420   35.1310 C.2   224  TYR224      0.2264
    205  O         23.3050   12.6930   34.9650 O.2   224  TYR224     -0.2867
    206  CB        26.0560   12.7110   33.1460 C.3   224  TYR224      0.0534
    207  CG        26.8930   13.3910   32.0850 C.ar  224  TYR224     -0.0201
    208  CD1       26.3320   14.3300   31.2210 C.ar  224  TYR224     -0.0009
    209  CD2       28.2100   13.0040   31.8560 C.ar  224  TYR224     -0.0009
    210  CE1       27.0870   14.9210   30.2060 C.ar  224  TYR224      0.0417
    211  CE2       28.9650   13.5650   30.8240 C.ar  224  TYR224      0.0417
    212  CZ        28.4030   14.5280   30.0050 C.ar  224  TYR224      0.1957
    213  OH        29.1570   15.1140   29.0070 O.3   224  TYR224     -0.2866
@<TRIPOS>BOND
     1    51    50    2
     2    50    49    1
     3    52    49    1
     4    52    53    1
     5    49    48    1
     6   113   114    1
     7    55    53   ar
     8    55    57   ar
     9   146   147    1
    10    53    54   ar
    11    82    80   ar
    12    82    84   ar
    13    80    79   ar
    14    57    58   ar
    15   114   117    1
    16   114   115    1
    17    84    83   ar
    18    54    56   ar
    19   147   148    1
    20   147   150    1
    21   148   149    2
    22   117   118    1
    23   150   151    1
    24   151   152    1
    25   151   153    1
    26    58    56   ar
    27   115   116    2
    28    79    78    1
    29    79    81   ar
    30    83    81   ar
    31    13    14    1
    32    13    12    1
    33     4     3    2
    34   118   120   ar
    35   118   119   ar
    36    14    15    1
    37    76    77    2
    38    76    75    1
    39    78    75    1
    40   100    98    1
    41    75    74    1
    42     3     2    1
    43     3     8   am
    44    12     9    1
    45    15    16    2
    46     5     2    1
    47     5     7    1
    48     5     6    1
    49     9     8    1
    50     9    10    1
    51     2     1    1
    52    17    16    1
    53   180   178    1
    54    74    72   am
    55    16    18    1
    56    98    97    2
    57    98    99    1
    58   177   176    2
    59    97    96    1
    60    10    11    2
    61   130   131    2
    62   130   129    1
    63   176   175    1
    64   121   122    1
    65   132   134    1
    66   132   129    1
    67   132   133    1
    68   178   175    1
    69   178   179    1
    70    72    73    2
    71    72    71    1
    72   129   128    1
    73   158   155    1
    74   164   163    1
    75   128   123   am
    76    62    61    2
    77   175   174    1
    78    96    95    1
    79    19    20    1
    80   165   163    1
    81    71    70    1
    82   123   122    1
    83   123   124    2
    84   122   125    1
    85    47    45   ar
    86    95    94    1
    87    23    20    1
    88    23    24    1
    89   154   155    1
    90   126   125    1
    91    20    21    1
    92   137   138    2
    93   137   136    1
    94   163   160    1
    95   155   156    1
    96    46    45   ar
    97   135   136    1
    98    61    70   am
    99    61    60    1
   100   174   168   am
   101    45    44    1
   102   125   127    1
   103   159   156   am
   104   159   160    1
   105   139   136    1
   106   139   140    1
   107    94    91    1
   108   162   161    2
   109   156   157    2
   110   160   161    1
   111   169   168    2
   112    63    60    1
   113    63    64    1
   114   168   167    1
   115   161   166   am
   116    21    25   am
   117    21    22    2
   118    60    59    1
   119   140   141    1
   120   141   142    1
   121    44    43    1
   122    25    26    1
   123   144   143    1
   124    91    90    1
   125    91    92    1
   126   166   167    1
   127   142   143    2
   128    64    66   ar
   129    64    65   ar
   130    43    40    1
   131   167   170    1
   132    30    31    1
   133    30    32    1
   134    30    29    1
   135   143   145    1
   136    88    87    2
   137    90    87   am
   138    92    93    2
   139    89    86    1
   140    87    86    1
   141    66    68   ar
   142    65    67   ar
   143    26    29    1
   144    26    27    1
   145    37    38    1
   146    37    34    1
   147   170   171    1
   148    33    27   am
   149    33    34    1
   150    39    40    1
   151    39    35   am
   152    86    85    1
   153    40    41    1
   154    27    28    2
   155    68    69   ar
   156    67    69   ar
   157    34    35    1
   158   184   183    2
   159    35    36    2
   160   181   182    1
   161    41    42    2
   162   187   185    1
   163   185   182    1
   164   185   186    1
   165   171   172   ar
   166   171   173   ar
   167   213   212    1
   168   183   182    1
   169   193   192    1
   170   194   192    1
   171   212   210   ar
   172   212   211   ar
   173   108   110   ar
   174   108   106   ar
   175   210   208   ar
   176   110   111   ar
   177   192   189    1
   178   104   103    2
   179   211   209   ar
   180   105   106    1
   181   105   102    1
   182   106   107   ar
   183   208   207   ar
   184   101   102    1
   185   111   112    1
   186   111   109   ar
   187   103   102    1
   188   200   199    1
   189   200   201    1
   190   209   207   ar
   191   189   188    1
   192   189   190    1
   193   207   206    1
   194   199   196    1
   195   107   109   ar
   196   190   191    2
   197   201   195    1
   198   206   203    1
   199   196   195    1
   200   196   197    1
   201   203   202    1
   202   203   204    1
   203   197   198    2
   204   205   204    2
