@<TRIPOS>MOLECULE
tmp/4xxjA02.pdb
 71 66 0 0 0
SMALL
GASTEIGER

@<TRIPOS>ATOM
      1  N         15.2720   -4.0690   23.1930 N.3    84  LEU84      -0.1245
      2  CA        14.0250   -4.5200   23.7940 C.3    84  LEU84       0.1561
      3  C         14.2730   -5.2490   25.1090 C.2    84  LEU84       0.2260
      4  O         13.4970   -5.1030   26.0520 O.2    84  LEU84      -0.2867
      5  CB        13.2830   -5.4530   22.8280 C.3    84  LEU84       0.0270
      6  CG        11.8970   -5.9060   23.2600 C.3    84  LEU84       0.0019
      7  CD1       10.9620   -4.7070   23.3560 C.3    84  LEU84       0.0001
      8  CD2       11.3620   -6.9380   22.2720 C.3    84  LEU84       0.0001
      9  N          7.5710   -1.2940   37.0200 N.3   106  LEU106     -0.1245
     10  CA         6.6520   -1.5880   35.9250 C.3   106  LEU106      0.1561
     11  C          6.4840   -0.3790   35.0000 C.2   106  LEU106      0.2260
     12  O          6.4590   -0.5300   33.7900 O.2   106  LEU106     -0.2867
     13  CB         5.2880   -2.0210   36.4640 C.3   106  LEU106      0.0270
     14  CG         4.2150   -2.2120   35.3860 C.3   106  LEU106      0.0019
     15  CD1        4.5740   -3.3790   34.4820 C.3   106  LEU106      0.0001
     16  CD2        2.8450   -2.4160   36.0040 C.3   106  LEU106      0.0001
     17  N          9.7440   -0.1860   32.9370 N.3   109  VAL109     -0.1231
     18  CA         9.8260   -1.2600   31.9710 C.3   109  VAL109      0.1692
     19  C          8.8000   -1.0510   30.8520 C.2   109  VAL109      0.2592
     20  O          9.1240   -1.2060   29.6850 O.2   109  VAL109     -0.2718
     21  CB         9.6360   -2.6270   32.6460 C.3   109  VAL109      0.0266
     22  CG1        9.4840   -3.7180   31.6010 C.3   109  VAL109      0.0020
     23  CG2       10.8190   -2.9080   33.5590 C.3   109  VAL109      0.0020
     24  N          7.5780   -0.6700   31.2160 N.am  110  GLY110     -0.1957
     25  CA         6.5440   -0.3790   30.2360 C.3   110  GLY110      0.1869
     26  C          6.9110    0.7840   29.3340 C.2   110  GLY110      0.2309
     27  O          6.7340    0.7200   28.1140 O.2   110  GLY110     -0.2863
     28  N          9.6280   -0.3440   26.9580 N.3   113  GLY113     -0.1210
     29  CA         9.0430   -1.1510   25.8840 C.3   113  GLY113      0.1956
     30  C          8.4190   -0.2780   24.8060 C.2   113  GLY113      0.2611
     31  O          8.5590   -0.5510   23.6280 O.2   113  GLY113     -0.2717
     32  N          7.7240    0.7790   25.2140 N.am  114  ILE114     -0.1979
     33  CA         7.0990    1.6970   24.2720 C.3   114  ILE114      0.1595
     34  C          8.1770    2.4380   23.4820 C.2   114  ILE114      0.2287
     35  O          8.0800    2.5850   22.2600 O.2   114  ILE114     -0.2864
     36  CB         6.1770    2.6940   24.9940 C.3   114  ILE114      0.0276
     37  CG1        4.9500    1.9570   25.5330 C.3   114  ILE114      0.0022
     38  CG2        5.7760    3.8230   24.0530 C.3   114  ILE114      0.0022
     39  CD1        4.0970    2.7640   26.4760 C.3   114  ILE114      0.0001
     40  N          9.7690   -0.1630   21.0740 N.3   117  GLY117     -0.1210
     41  CA         8.7730   -0.5950   20.0960 C.3   117  GLY117      0.1956
     42  C          8.4150    0.4750   19.0770 C.2   117  GLY117      0.2612
     43  O          8.2720    0.1890   17.8830 O.2   117  GLY117     -0.2717
     44  N          8.2600    1.7150   19.5390 N.am  118  THR118     -0.1952
     45  CA         7.9560    2.8150   18.6290 C.3   118  THR118      0.1897
     46  C          9.1830    3.1890   17.8080 C.2   118  THR118      0.2313
     47  O          9.0580    3.6250   16.6670 O.2   118  THR118     -0.2863
     48  CB         7.3740    4.0470   19.3590 C.3   118  THR118      0.1794
     49  OG1        8.2630    4.5040   20.3880 O.3   118  THR118     -0.2208
     50  CG2        6.0460    3.7020   19.9570 C.3   118  THR118      0.0378
     51  N          9.1080    0.6290   15.0200 N.3   121  VAL121     -0.1245
     52  CA         8.0910    0.9680   14.0480 C.3   121  VAL121      0.1561
     53  C          8.5530    2.1290   13.1940 C.2   121  VAL121      0.2260
     54  O          8.3750    2.1320   11.9720 O.2   121  VAL121     -0.2867
     55  CB         6.7560    1.3470   14.7050 C.3   121  VAL121      0.0252
     56  CG1        5.8190    1.9410   13.6580 C.3   121  VAL121      0.0019
     57  CG2        6.1380    0.1290   15.3770 C.3   121  VAL121      0.0019
     58  N          6.9620    8.6820   14.9990 N.3   134  TRP134     -0.1241
     59  CA         7.3490    7.5910   15.8770 C.3   134  TRP134      0.1605
     60  C          8.5550    7.9440   16.7290 C.2   134  TRP134      0.2264
     61  O          8.5850    7.6280   17.9210 O.2   134  TRP134     -0.2867
     62  CB         7.6080    6.3300   15.0560 C.3   134  TRP134      0.0550
     63  CG         6.3650    5.8260   14.4260 C.ar  134  TRP134      0.0003
     64  CD1        6.0700    5.8060   13.1060 C.ar  134  TRP134      0.0946
     65  CD2        5.2180    5.2920   15.1060 C.ar  134  TRP134      0.0152
     66  NE1        4.8070    5.2950   12.9090 N.ar  134  TRP134     -0.2442
     67  CE2        4.2670    4.9640   14.1230 C.ar  134  TRP134      0.0810
     68  CE3        4.9080    5.0610   16.4470 C.ar  134  TRP134      0.0012
     69  CZ2        3.0300    4.3970   14.4370 C.ar  134  TRP134      0.0191
     70  CZ3        3.6780    4.4980   16.7620 C.ar  134  TRP134      0.0001
     71  CH2        2.7570    4.1740   15.7600 C.ar  134  TRP134      0.0015
@<TRIPOS>BOND
     1    54    53    2
     2    66    64   ar
     3    66    67   ar
     4    64    63   ar
     5    53    52    1
     6    56    55    1
     7    52    55    1
     8    52    51    1
     9    67    69   ar
    10    67    65   ar
    11    63    62    1
    12    63    65   ar
    13    69    71   ar
    14    55    57    1
    15    58    59    1
    16    62    59    1
    17    65    68   ar
    18    71    70   ar
    19    59    60    1
    20    68    70   ar
    21    47    46    2
    22    60    61    2
    23    46    45    1
    24    43    42    2
    25    45    48    1
    26    45    44    1
    27    42    44   am
    28    42    41    1
    29    48    50    1
    30    48    49    1
    31    41    40    1
    32    35    34    2
    33     8     6    1
    34     5     6    1
    35     5     2    1
    36     1     2    1
    37     6     7    1
    38    34    33    1
    39    31    30    2
    40     2     3    1
    41    38    36    1
    42    33    36    1
    43    33    32    1
    44    30    32   am
    45    30    29    1
    46    36    37    1
    47     3     4    2
    48    37    39    1
    49    29    28    1
    50    27    26    2
    51    26    25    1
    52    20    19    2
    53    25    24    1
    54    19    24   am
    55    19    18    1
    56    22    21    1
    57    18    21    1
    58    18    17    1
    59    21    23    1
    60    12    11    2
    61    15    14    1
    62    11    10    1
    63    14    16    1
    64    14    13    1
    65    10    13    1
    66    10     9    1
