@<TRIPOS>MOLECULE
tmp/4xxjA09.pdb
 70 63 0 0 0
SMALL
GASTEIGER

@<TRIPOS>ATOM
      1  N          5.7020   -0.6750   41.4490 N.3   103  GLY103     -0.1210
      2  CA         4.9270    0.1510   40.5290 C.3   103  GLY103      0.1956
      3  C          5.8190    1.0210   39.6700 C.2   103  GLY103      0.2612
      4  O          5.5530    1.2390   38.4980 O.2   103  GLY103     -0.2717
      5  N          6.8890    1.5230   40.2640 N.am  104  THR104     -0.1952
      6  CA         7.8530    2.3300   39.5390 C.3   104  THR104      0.1897
      7  C          8.6400    1.4830   38.5240 C.2   104  THR104      0.2313
      8  O          8.9300    1.9370   37.4100 O.2   104  THR104     -0.2863
      9  CB         8.8220    3.0000   40.5260 C.3   104  THR104      0.1794
     10  OG1        8.0630    3.7100   41.5150 O.3   104  THR104     -0.2208
     11  CG2        9.7440    3.9640   39.8090 C.3   104  THR104      0.0378
     12  N          6.3700    0.8140   35.5770 N.3   107  ALA107     -0.1245
     13  CA         6.2830    2.0390   34.7950 C.3   107  ALA107      0.1562
     14  C          7.5080    2.2110   33.9080 C.2   107  ALA107      0.2260
     15  O          7.3750    2.5970   32.7480 O.2   107  ALA107     -0.2867
     16  CB         6.1460    3.2490   35.7090 C.3   107  ALA107      0.0290
     17  N          7.5780   -0.6700   31.2160 N.3   110  GLY110     -0.1210
     18  CA         6.5440   -0.3790   30.2360 C.3   110  GLY110      0.1956
     19  C          6.9110    0.7840   29.3340 C.2   110  GLY110      0.2611
     20  O          6.7340    0.7200   28.1140 O.2   110  GLY110     -0.2717
     21  N          7.3950    1.8740   29.9250 N.am  111  ALA111     -0.1979
     22  CA         7.7820    3.0310   29.1270 C.3   111  ALA111      0.1597
     23  C          8.9470    2.6670   28.2000 C.2   111  ALA111      0.2287
     24  O          9.0180    3.1230   27.0580 O.2   111  ALA111     -0.2864
     25  CB         8.1620    4.2020   30.0160 C.3   111  ALA111      0.0319
     26  N          7.7240    0.7790   25.2140 N.3   114  ILE114     -0.1245
     27  CA         7.0990    1.6970   24.2720 C.3   114  ILE114      0.1561
     28  C          8.1770    2.4380   23.4820 C.2   114  ILE114      0.2260
     29  O          8.0800    2.5850   22.2600 O.2   114  ILE114     -0.2867
     30  CB         6.1770    2.6940   24.9940 C.3   114  ILE114      0.0252
     31  CG1        4.9500    1.9570   25.5330 C.3   114  ILE114      0.0019
     32  CG2        5.7760    3.8230   24.0530 C.3   114  ILE114      0.0019
     33  CD1        4.0970    2.7640   26.4760 C.3   114  ILE114      0.0001
     34  N          7.4190   10.0940   19.5970 N.3   137  ILE137     -0.1245
     35  CA         6.7580    9.3260   20.6520 C.3   137  ILE137      0.1561
     36  C          7.7930    8.5720   21.4900 C.2   137  ILE137      0.2260
     37  O          7.7350    8.5960   22.7290 O.2   137  ILE137     -0.2867
     38  CB         5.6840    8.3640   20.0790 C.3   137  ILE137      0.0252
     39  CG1        4.5000    9.1660   19.5530 C.3   137  ILE137      0.0019
     40  CG2        5.1990    7.3860   21.1450 C.3   137  ILE137      0.0019
     41  CD1        3.7430    8.4810   18.4420 C.3   137  ILE137      0.0001
     42  N          9.5860   10.8820   23.7320 N.3   140  ALA140     -0.1231
     43  CA         8.7300   11.2080   24.8760 C.3   140  ALA140      0.1694
     44  C          8.8410   10.1390   25.9600 C.2   140  ALA140      0.2591
     45  O          8.9780   10.4500   27.1540 O.2   140  ALA140     -0.2718
     46  CB         7.2860   11.3630   24.4370 C.3   140  ALA140      0.0304
     47  N          8.7830    8.8770   25.5480 N.am  141  ALA141     -0.1980
     48  CA         8.9330    7.7670   26.4940 C.3   141  ALA141      0.1597
     49  C         10.3060    7.7880   27.1670 C.2   141  ALA141      0.2287
     50  O         10.4020    7.5620   28.3730 O.2   141  ALA141     -0.2864
     51  CB         8.6870    6.4320   25.8010 C.3   141  ALA141      0.0319
     52  N         10.3510   10.4560   29.7330 N.3   144  TYR144     -0.1241
     53  CA         9.6360    9.9820   30.9150 C.3   144  TYR144      0.1605
     54  C         10.5390    9.1200   31.8000 C.2   144  TYR144      0.2264
     55  O         10.5640    9.2760   33.0240 O.2   144  TYR144     -0.2867
     56  CB         8.3790    9.2050   30.5320 C.3   144  TYR144      0.0534
     57  CG         7.7210    8.5880   31.7360 C.ar  144  TYR144     -0.0201
     58  CD1        6.8340    9.3180   32.5200 C.ar  144  TYR144     -0.0009
     59  CD2        8.0350    7.3010   32.1270 C.ar  144  TYR144     -0.0009
     60  CE1        6.2500    8.7600   33.6420 C.ar  144  TYR144      0.0417
     61  CE2        7.4570    6.7320   33.2440 C.ar  144  TYR144      0.0417
     62  CZ         6.5680    7.4660   33.9970 C.ar  144  TYR144      0.1957
     63  OH         6.0000    6.8920   35.1070 O.3   144  TYR144     -0.2866
     64  N         11.9580    9.8530   35.6530 N.3   148  VAL148     -0.1245
     65  CA        11.7880    8.9330   36.7660 C.3   148  VAL148      0.1561
     66  C         13.1120    8.6440   37.4390 C.2   148  VAL148      0.2260
     67  O         13.1730    8.5420   38.6630 O.2   148  VAL148     -0.2867
     68  CB        11.1590    7.6020   36.3130 C.3   148  VAL148      0.0252
     69  CG1       11.3680    6.5290   37.3640 C.3   148  VAL148      0.0019
     70  CG2        9.6810    7.7850   36.0340 C.3   148  VAL148      0.0019
@<TRIPOS>BOND
     1    41    39    1
     2    39    38    1
     3    34    35    1
     4    38    35    1
     5    38    40    1
     6    35    36    1
     7    36    37    2
     8    29    28    2
     9    28    27    1
    10    42    43    1
    11    32    30    1
    12    27    30    1
    13    27    26    1
    14    46    43    1
    15    43    44    1
    16    30    31    1
    17    31    33    1
    18    47    44   am
    19    47    48    1
    20    51    48    1
    21    44    45    2
    22    48    49    1
    23    24    23    2
    24    49    50    2
    25    20    19    2
    26    23    22    1
    27    22    21    1
    28    22    25    1
    29    19    21   am
    30    19    18    1
    31    52    53    1
    32    18    17    1
    33    56    53    1
    34    56    57    1
    35    53    54    1
    36    57    59   ar
    37    57    58   ar
    38    54    55    2
    39    59    61   ar
    40    58    60   ar
    41    15    14    2
    42    61    62   ar
    43    60    62   ar
    44    14    13    1
    45    62    63    1
    46    13    12    1
    47    13    16    1
    48    64    65    1
    49    70    68    1
    50    68    65    1
    51    68    69    1
    52    65    66    1
    53     8     7    2
    54    66    67    2
    55     4     3    2
    56     7     6    1
    57     6     5    1
    58     6     9    1
    59     3     5   am
    60     3     2    1
    61    11     9    1
    62     9    10    1
    63     2     1    1
