@<TRIPOS>MOLECULE
tmp/4xxkA00.pdb
 193 184 0 0 0
SMALL
GASTEIGER

@<TRIPOS>ATOM
      1  N          2.3270    6.9310  101.7560 N.3    56  ILE56      -0.1245
      2  CA         1.0850    7.2740  102.4610 C.3    56  ILE56       0.1561
      3  C          0.4440    6.1680  103.3090 C.2    56  ILE56       0.2260
      4  O         -0.7290    6.2880  103.6460 O.2    56  ILE56      -0.2867
      5  CB        -0.0460    7.7410  101.4810 C.3    56  ILE56       0.0252
      6  CG1       -0.3700    6.6350  100.4740 C.3    56  ILE56       0.0019
      7  CG2        0.2650    9.0870  100.8160 C.3    56  ILE56       0.0019
      8  CD1       -1.7960    6.6570  100.0050 C.3    56  ILE56       0.0001
      9  N         -2.1720    6.2690  106.5970 N.3    59  LYS59      -0.1231
     10  CA        -3.5090    6.8360  106.5070 C.3    59  LYS59       0.1693
     11  C         -4.4950    5.8950  105.8220 C.2    59  LYS59       0.2591
     12  O         -5.6790    6.2080  105.6960 O.2    59  LYS59      -0.2718
     13  CB        -3.4560    8.1670  105.7450 C.3    59  LYS59       0.0285
     14  CG        -2.1840    8.9820  105.9650 C.3    59  LYS59       0.0035
     15  CD        -1.7600    9.6540  104.6650 C.3    59  LYS59       0.0206
     16  CE        -0.2460    9.9740  104.6300 C.3    59  LYS59       0.1093
     17  NZ         0.1130   11.0890  103.6650 N.3    59  LYS59      -0.1314
     18  N         -4.0020    4.7410  105.3840 N.am   60  ILE60      -0.1980
     19  CA        -4.7860    3.8390  104.5490 C.3    60  ILE60       0.1595
     20  C         -5.6830    2.8680  105.3270 C.2    60  ILE60       0.2287
     21  O         -5.2120    2.0060  106.0660 O.2    60  ILE60      -0.2864
     22  CB        -3.8710    3.0350  103.6280 C.3    60  ILE60       0.0276
     23  CG1       -3.2450    3.9530  102.5880 C.3    60  ILE60       0.0022
     24  CG2       -4.6440    1.9250  102.9220 C.3    60  ILE60       0.0022
     25  CD1       -2.3440    3.2060  101.5960 C.3    60  ILE60       0.0001
     26  N         -7.8780    1.0100  103.6810 N.3    62  ASN62      -0.1240
     27  CA        -8.1960   -0.0970  102.7670 C.3    62  ASN62       0.1653
     28  C         -7.0500   -0.3790  101.8200 C.2    62  ASN62       0.2266
     29  O         -7.0110    0.1300  100.7000 O.2    62  ASN62      -0.2867
     30  CB        -9.4690    0.1920  101.9630 C.3    62  ASN62       0.1155
     31  CG       -10.0010   -1.0450  101.2320 C.2    62  ASN62       0.2627
     32  OD1       -9.2860   -2.0220  101.0050 O.2    62  ASN62      -0.2716
     33  ND2      -11.2640   -0.9910  100.8510 N.am   62  ASN62      -0.0877
     34  N         -7.7290   -1.8610   97.9360 N.3    64  LYS64      -0.1231
     35  CA        -8.2370   -0.8700   96.9900 C.3    64  LYS64       0.1693
     36  C         -7.2070    0.2390   96.7040 C.2    64  LYS64       0.2592
     37  O         -7.0450    0.6440   95.5490 O.2    64  LYS64      -0.2718
     38  CB        -9.5500   -0.2550   97.4950 C.3    64  LYS64       0.0285
     39  CG       -10.7500   -1.1800   97.4220 C.3    64  LYS64       0.0035
     40  CD       -11.3870   -1.2070   96.0400 C.3    64  LYS64       0.0206
     41  CE       -12.7760   -1.8240   96.1220 C.3    64  LYS64       0.1093
     42  NZ       -13.5080   -1.8310   94.8260 N.3    64  LYS64      -0.1314
     43  N         -6.5090    0.7230   97.7310 N.am   65  SER65      -0.1952
     44  CA        -5.5470    1.8020   97.5030 C.3    65  SER65       0.1924
     45  C         -4.4370    1.3870   96.5590 C.2    65  SER65       0.2314
     46  O         -4.0830    2.1420   95.6430 O.2    65  SER65      -0.2863
     47  CB        -4.9340    2.2800   98.8030 C.3    65  SER65       0.2116
     48  OG        -5.9470    2.7770   99.6360 O.3    65  SER65      -0.2180
     49  N         -4.7190   -1.0210   94.3840 N.3    67  ARG67      -0.1231
     50  CA        -5.4010   -1.2240   93.1170 C.3    67  ARG67       0.1694
     51  C         -5.5230    0.0800   92.3570 C.2    67  ARG67       0.2592
     52  O         -5.2510    0.1300   91.1660 O.2    67  ARG67      -0.2718
     53  CB        -6.7800   -1.8340   93.3600 C.3    67  ARG67       0.0321
     54  CG        -7.8940   -1.4800   92.3690 C.3    67  ARG67       0.0489
     55  CD        -9.1610   -2.1300   92.8700 C.3    67  ARG67       0.2205
     56  NE       -10.4070   -1.7850   92.1750 N.pl3  67  ARG67      -0.0865
     57  CZ       -11.0570   -0.6210   92.2680 C.cat  67  ARG67       0.5346
     58  NH1      -10.5990    0.3740   93.0030 N.pl3  67  ARG67       0.1354
     59  NH2      -12.1870   -0.4490   91.6120 N.pl3  67  ARG67       0.1354
     60  N         -5.9170    1.1400   93.0460 N.am   68  ASP68      -0.1960
     61  CA        -6.1570    2.4060   92.3850 C.3    68  ASP68       0.1840
     62  C         -4.8790    3.0540   91.9840 C.2    68  ASP68       0.2621
     63  O         -4.7980    3.6900   90.9540 O.2    68  ASP68      -0.2715
     64  CB        -6.9120    3.3500   93.2920 C.3    68  ASP68       0.1450
     65  CG        -8.3520    3.0090   93.3870 C.2    68  ASP68       0.3671
     66  OD1       -8.7330    1.9400   92.8720 O.co2  68  ASP68      -0.2456
     67  OD2       -9.0810    3.8040   93.9970 O.co2  68  ASP68      -0.2456
     68  N         -3.8790    2.9210   92.8330 N.am   69  LEU69      -0.1977
     69  CA        -2.5500    3.3980   92.4840 C.3    69  LEU69       0.1596
     70  C         -2.0890    2.7200   91.1960 C.2    69  LEU69       0.2287
     71  O         -1.5660    3.3810   90.2940 O.2    69  LEU69      -0.2864
     72  CB        -1.5560    3.1460   93.6280 C.3    69  LEU69       0.0297
     73  CG        -1.7520    4.0610   94.8360 C.3    69  LEU69       0.0022
     74  CD1       -0.7270    3.7790   95.9170 C.3    69  LEU69       0.0001
     75  CD2       -1.7160    5.5250   94.4110 C.3    69  LEU69       0.0001
     76  N         -4.0540    1.4420   88.9400 N.3    71  TRP71      -0.1227
     77  CA        -4.9240    1.8620   87.8710 C.3    71  TRP71       0.1737
     78  C         -4.5050    3.2130   87.3160 C.2    71  TRP71       0.2595
     79  O         -4.6340    3.4450   86.1150 O.2    71  TRP71      -0.2718
     80  CB        -6.3710    1.9070   88.3550 C.3    71  TRP71       0.0564
     81  CG        -6.9930    0.5600   88.4340 C.ar   71  TRP71       0.0003
     82  CD1       -6.3560   -0.6450   88.3390 C.ar   71  TRP71       0.0946
     83  CD2       -8.3780    0.2680   88.6140 C.ar   71  TRP71       0.0152
     84  NE1       -7.2650   -1.6700   88.4280 N.ar   71  TRP71      -0.2442
     85  CE2       -8.5170   -1.1360   88.6030 C.ar   71  TRP71       0.0810
     86  CE3       -9.5220    1.0550   88.7850 C.ar   71  TRP71       0.0012
     87  CZ2       -9.7490   -1.7650   88.7550 C.ar   71  TRP71       0.0191
     88  CZ3      -10.7360    0.4310   88.9350 C.ar   71  TRP71       0.0001
     89  CH2      -10.8430   -0.9650   88.9170 C.ar   71  TRP71       0.0015
     90  N         -4.0120    4.1110   88.1630 N.am   72  PHE72      -0.1976
     91  CA        -3.5470    5.4050   87.6490 C.3    72  PHE72       0.1639
     92  C         -2.3580    5.1990   86.6870 C.2    72  PHE72       0.2290
     93  O         -2.4110    5.5890   85.5270 O.2    72  PHE72      -0.2864
     94  CB        -3.1370    6.3650   88.7820 C.3    72  PHE72       0.0560
     95  CG        -4.2970    7.0430   89.5010 C.ar   72  PHE72      -0.0200
     96  CD1       -5.1420    7.9240   88.8310 C.ar   72  PHE72      -0.0042
     97  CD2       -4.4910    6.8520   90.8650 C.ar   72  PHE72      -0.0042
     98  CE1       -6.1930    8.5630   89.4950 C.ar   72  PHE72      -0.0003
     99  CE2       -5.5330    7.4850   91.5320 C.ar   72  PHE72      -0.0003
    100  CZ        -6.3840    8.3420   90.8460 C.ar   72  PHE72      -0.0000
    101  N         -3.3710    3.5920   83.2450 N.3    75  TYR75      -0.1241
    102  CA        -3.9310    4.4880   82.2370 C.3    75  TYR75       0.1605
    103  C         -2.8920    5.5170   81.7550 C.2    75  TYR75       0.2264
    104  O         -3.0060    6.0350   80.6650 O.2    75  TYR75      -0.2867
    105  CB        -5.2050    5.1890   82.7520 C.3    75  TYR75       0.0534
    106  CG        -6.5150    4.3900   82.5830 C.ar   75  TYR75      -0.0201
    107  CD1       -6.9510    3.5010   83.5570 C.ar   75  TYR75      -0.0009
    108  CD2       -7.3110    4.5300   81.4490 C.ar   75  TYR75      -0.0009
    109  CE1       -8.1450    2.7740   83.4030 C.ar   75  TYR75       0.0417
    110  CE2       -8.4990    3.7960   81.2870 C.ar   75  TYR75       0.0417
    111  CZ        -8.9140    2.9290   82.2720 C.ar   75  TYR75       0.1957
    112  OH       -10.0880    2.2020   82.1360 O.3    75  TYR75      -0.2866
    113  N        -10.6450    9.4930   81.5950 N.3    91  ASN91      -0.1225
    114  CA       -10.7970    8.4800   82.6370 C.3    91  ASN91       0.1785
    115  C        -10.5850    8.9760   84.0660 C.2    91  ASN91       0.2597
    116  O        -10.7360    8.1880   85.0000 O.2    91  ASN91      -0.2718
    117  CB        -9.8380    7.3200   82.3860 C.3    91  ASN91       0.1169
    118  CG       -10.2650    6.4510   81.2310 C.2    91  ASN91       0.2627
    119  OD1      -11.0980    5.5520   81.3770 O.2    91  ASN91      -0.2716
    120  ND2       -9.6810    6.7000   80.0730 N.am   91  ASN91      -0.0877
    121  N        -10.2280   10.2540   84.2470 N.am   92  THR92      -0.1953
    122  CA       -10.1030   10.8240   85.5960 C.3    92  THR92       0.1897
    123  C        -11.1370   11.9300   85.8670 C.2    92  THR92       0.2313
    124  O        -11.1300   12.5630   86.9360 O.2    92  THR92      -0.2863
    125  CB        -8.6600   11.3710   85.8780 C.3    92  THR92       0.1794
    126  OG1       -8.3410   12.4290   84.9750 O.3    92  THR92      -0.2208
    127  CG2       -7.6190   10.2740   85.7430 C.3    92  THR92       0.0378
    128  N        -13.1840   11.8020   89.2020 N.3    95  LEU95      -0.1245
    129  CA       -12.5550   10.7760   90.0150 C.3    95  LEU95       0.1561
    130  C        -12.2170   11.3680   91.3900 C.2    95  LEU95       0.2260
    131  O        -12.1780   10.6640   92.3970 O.2    95  LEU95      -0.2867
    132  CB       -11.3080   10.2210   89.3010 C.3    95  LEU95       0.0270
    133  CG       -10.8800    8.7550   89.4290 C.3    95  LEU95       0.0019
    134  CD1      -12.0360    7.7810   89.3600 C.3    95  LEU95       0.0001
    135  CD2       -9.9010    8.4490   88.3370 C.3    95  LEU95       0.0001
    136  N        -15.2130   10.9900   93.9430 N.3    98  ILE98      -0.1231
    137  CA       -15.3470    9.6010   94.3380 C.3    98  ILE98       0.1692
    138  C        -14.3260    9.2410   95.4050 C.2    98  ILE98       0.2591
    139  O        -14.6500    8.6260   96.4230 O.2    98  ILE98      -0.2718
    140  CB       -15.1730    8.6770   93.1250 C.3    98  ILE98       0.0266
    141  CG1      -16.4470    8.6800   92.2830 C.3    98  ILE98       0.0019
    142  CG2      -14.8430    7.2590   93.5610 C.3    98  ILE98       0.0020
    143  CD1      -16.3330    7.9090   90.9980 C.3    98  ILE98       0.0001
    144  N        -13.0950    9.6820   95.1710 N.am   99  ILE99      -0.1980
    145  CA       -11.9480    9.3110   95.9850 C.3    99  ILE99       0.1595
    146  C        -11.8280   10.1200   97.2880 C.2    99  ILE99       0.2287
    147  O        -11.3610    9.5930   98.2990 O.2    99  ILE99      -0.2864
    148  CB       -10.6600    9.4250   95.1270 C.3    99  ILE99       0.0276
    149  CG1      -10.6080    8.2460   94.1380 C.3    99  ILE99       0.0022
    150  CG2       -9.4130    9.4680   95.9810 C.3    99  ILE99       0.0022
    151  CD1       -9.3290    8.1260   93.3460 C.3    99  ILE99       0.0001
    152  N        -14.3480   10.9700   99.0070 N.3   101  ASN101     -0.1225
    153  CA       -15.3600   10.3090   99.8160 C.3   101  ASN101      0.1785
    154  C        -14.8110    8.9670  100.3550 C.2   101  ASN101      0.2597
    155  O        -14.9050    8.6980  101.5610 O.2   101  ASN101     -0.2718
    156  CB       -16.6540   10.1720   98.9760 C.3   101  ASN101      0.1169
    157  CG       -17.5760    9.0160   99.4080 C.2   101  ASN101      0.2627
    158  OD1      -17.3520    8.3290  100.3960 O.2   101  ASN101     -0.2716
    159  ND2      -18.6500    8.8310   98.6570 N.am  101  ASN101     -0.0877
    160  N        -14.2350    8.1460   99.4730 N.am  102  ALA102     -0.1966
    161  CA       -13.6220    6.8550   99.8310 C.3   102  ALA102      0.1728
    162  C        -12.4830    6.9280  100.8500 C.2   102  ALA102      0.2616
    163  O        -12.3350    6.0370  101.6940 O.2   102  ALA102     -0.2715
    164  CB       -13.1140    6.2000   98.5990 C.3   102  ALA102      0.0334
    165  N        -11.6540    7.9640  100.7270 N.am  103  CYS103     -0.1954
    166  CA       -10.5100    8.1840  101.6160 C.3   103  CYS103      0.1843
    167  C        -10.0990    9.6550  101.6140 C.2   103  CYS103      0.2626
    168  O        -10.9120   10.5220  101.9330 O.2   103  CYS103     -0.2714
    169  CB        -9.3310    7.2950  101.2150 C.3   103  CYS103      0.0997
    170  SG        -8.8710    7.4580   99.4940 S.3   103  CYS103     -0.0797
    171  N         -8.8420    9.9340  101.2860 N.am  104  SER104     -0.1950
    172  CA        -8.3200   11.2940  101.3540 C.3   104  SER104      0.1924
    173  C         -7.8240   11.7840  100.0040 C.2   104  SER104      0.2314
    174  O         -7.0580   11.0950   99.3440 O.2   104  SER104     -0.2863
    175  CB        -7.1860   11.3640  102.3750 C.3   104  SER104      0.2116
    176  OG        -6.3630   12.4970  102.1470 O.3   104  SER104     -0.2180
    177  N         -4.1490   12.7260  100.4980 N.3   107  ALA107     -0.1231
    178  CA        -3.2790   11.5510  100.5120 C.3   107  ALA107      0.1694
    179  C         -2.9820   11.0470   99.1060 C.2   107  ALA107      0.2592
    180  O         -1.8230   10.8330   98.7530 O.2   107  ALA107     -0.2718
    181  CB        -3.9010   10.4530  101.3280 C.3   107  ALA107      0.0304
    182  N         -4.0440   10.8490   98.3230 N.am  108  THR108     -0.1953
    183  CA        -3.9450   10.5040   96.9020 C.3   108  THR108      0.1897
    184  C         -2.9780   11.3910   96.1130 C.2   108  THR108      0.2313
    185  O         -2.2000   10.8820   95.3050 O.2   108  THR108     -0.2863
    186  CB        -5.3330   10.5750   96.1990 C.3   108  THR108      0.1794
    187  OG1       -6.1630    9.5030   96.6520 O.3   108  THR108     -0.2208
    188  CG2       -5.1760   10.4160   94.7120 C.3   108  THR108      0.0378
    189  N          0.5450   10.6300   96.9210 N.3   111  ALA111     -0.1245
    190  CA         0.8930    9.3350   96.3520 C.3   111  ALA111      0.1562
    191  C          1.1470    9.4820   94.8530 C.2   111  ALA111      0.2260
    192  O          2.1440    8.9710   94.3220 O.2   111  ALA111     -0.2867
    193  CB        -0.2060    8.3110   96.6290 C.3   111  ALA111      0.0290
@<TRIPOS>BOND
     1   120   118   am
     2   104   103    2
     3   118   119    2
     4   118   117    1
     5   110   108   ar
     6   110   111   ar
     7   108   106   ar
     8   113   114    1
     9   103   102    1
    10   112   111    1
    11   102   105    1
    12   102   101    1
    13   111   109   ar
    14   117   114    1
    15   106   105    1
    16   106   107   ar
    17   114   115    1
    18   109   107   ar
    19   115   121   am
    20   115   116    2
    21   121   122    1
    22   126   125    1
    23    93    92    2
    24   122   123    1
    25   122   125    1
    26   127   125    1
    27   123   124    2
    28    79    78    2
    29    92    91    1
    30    78    77    1
    31    78    90   am
    32    91    90    1
    33    91    94    1
    34    77    80    1
    35    77    76    1
    36   135   133    1
    37    82    84   ar
    38    82    81   ar
    39    80    81    1
    40    84    85   ar
    41    81    83   ar
    42    85    83   ar
    43    85    87   ar
    44    83    86   ar
    45    87    89   ar
    46    94    95    1
    47    86    88   ar
    48    96    98   ar
    49    96    95   ar
    50    89    88   ar
    51   128   129    1
    52   132   133    1
    53   132   129    1
    54   134   133    1
    55    98   100   ar
    56    95    97   ar
    57   129   130    1
    58    71    70    2
    59   100    99   ar
    60    97    99   ar
    61    63    62    2
    62   143   141    1
    63    52    51    2
    64    70    69    1
    65   130   131    2
    66    59    57    1
    67    62    61    1
    68    62    68   am
    69    56    57    2
    70    56    55    1
    71    57    58    1
    72   141   140    1
    73    51    60   am
    74    51    50    1
    75    54    55    1
    76    54    53    1
    77    61    60    1
    78    61    64    1
    79    69    68    1
    80    69    72    1
    81    66    65   ar
    82    50    53    1
    83    50    49    1
    84   140   142    1
    85   140   137    1
    86    64    65    1
    87   151   149    1
    88    65    67   ar
    89    72    73    1
    90   136   137    1
    91   149   148    1
    92   192   191    2
    93   137   138    1
    94    75    73    1
    95   188   186    1
    96    42    41    1
    97    73    74    1
    98   191   190    1
    99   148   150    1
   100   148   145    1
   101   144   138   am
   102   144   145    1
   103   185   184    2
   104   138   139    2
   105    37    36    2
   106    46    45    2
   107   145   146    1
   108    40    41    1
   109    40    39    1
   110   184   183    1
   111   186   187    1
   112   186   183    1
   113   190   193    1
   114   190   189    1
   115    45    44    1
   116    36    35    1
   117    36    43   am
   118   183   182    1
   119    35    38    1
   120    35    34    1
   121   146   147    2
   122    39    38    1
   123    44    43    1
   124    44    47    1
   125   182   179   am
   126   164   161    1
   127   159   157   am
   128   180   179    2
   129    47    48    1
   130   156   157    1
   131   156   153    1
   132   152   153    1
   133   179   178    1
   134   174   173    2
   135   157   158    2
   136   160   161    1
   137   160   154   am
   138   170   169    1
   139   153   154    1
   140   161   162    1
   141   173   172    1
   142     8     6    1
   143   154   155    2
   144     6     5    1
   145   177   178    1
   146   178   181    1
   147    29    28    2
   148   165   162   am
   149   165   166    1
   150     7     5    1
   151   162   163    2
   152    33    31   am
   153    32    31    2
   154   169   166    1
   155    31    30    1
   156   171   172    1
   157   171   167   am
   158   172   175    1
   159     5     2    1
   160    25    23    1
   161   167   166    1
   162   167   168    2
   163     1     2    1
   164    28    27    1
   165    30    27    1
   166   176   175    1
   167     2     3    1
   168    23    22    1
   169    27    26    1
   170    24    22    1
   171     3     4    2
   172    22    19    1
   173    17    16    1
   174    19    20    1
   175    19    18    1
   176    16    15    1
   177    15    14    1
   178    20    21    2
   179    18    11   am
   180    12    11    2
   181    13    14    1
   182    13    10    1
   183    11    10    1
   184    10     9    1
