@<TRIPOS>MOLECULE
tmp/4xxlA00.pdb
 224 217 0 0 0
SMALL
GASTEIGER

@<TRIPOS>ATOM
      1  N         14.2700   61.7470   47.3360 N.3    14  ASN14      -0.1225
      2  CA        13.5660   60.5450   47.7400 C.3    14  ASN14       0.1785
      3  C         14.4320   59.2950   47.8260 C.2    14  ASN14       0.2597
      4  O         13.9840   58.1800   47.8430 O.2    14  ASN14      -0.2718
      5  CB        12.3850   60.3630   46.8230 C.3    14  ASN14       0.1169
      6  CG        11.3130   61.3870   47.0610 C.2    14  ASN14       0.2627
      7  OD1       10.5510   61.2830   48.0240 O.2    14  ASN14      -0.2716
      8  ND2       11.2510   62.3980   46.1980 N.am   14  ASN14      -0.0877
      9  N         15.7310   59.5250   47.9390 N.am   15  ASN15      -0.1960
     10  CA        16.7460   58.5160   48.2540 C.3    15  ASN15       0.1819
     11  C         17.0630   57.5840   47.0990 C.2    15  ASN15       0.2621
     12  O         17.6600   56.5210   47.2850 O.2    15  ASN15      -0.2715
     13  CB        16.3810   57.7280   49.5370 C.3    15  ASN15       0.1195
     14  CG        16.7880   58.4390   50.8040 C.2    15  ASN15       0.2630
     15  OD1       17.5930   59.3620   50.7810 O.2    15  ASN15      -0.2716
     16  ND2       16.3150   57.9240   51.9440 N.am   15  ASN15      -0.0877
     17  N         16.5380   57.9120   45.9280 N.am   16  CYS16      -0.1968
     18  CA        16.6830   57.0220   44.8010 C.3    16  CYS16       0.1712
     19  C         18.1310   56.7190   44.4860 C.2    16  CYS16       0.2296
     20  O         18.4450   55.5410   44.2250 O.2    16  CYS16      -0.2864
     21  CB        15.9430   57.6440   43.5920 C.3    16  CYS16       0.0983
     22  SG        14.2460   58.0790   43.8320 S.3    16  CYS16      -0.0798
     23  N         20.5540   56.6120   46.4740 N.3    18  LYS18      -0.1231
     24  CA        21.2600   55.8020   47.4910 C.3    18  LYS18       0.1693
     25  C         21.3860   54.3510   47.0340 C.2    18  LYS18       0.2592
     26  O         22.3230   53.6610   47.4170 O.2    18  LYS18      -0.2718
     27  CB        20.5290   55.8660   48.8260 C.3    18  LYS18       0.0285
     28  CG        20.3840   57.2530   49.3910 C.3    18  LYS18       0.0035
     29  CD        21.7350   57.9310   49.5460 C.3    18  LYS18       0.0206
     30  CE        21.7380   59.0710   50.5440 C.3    18  LYS18       0.1093
     31  NZ        20.5660   59.9470   50.4370 N.3    18  LYS18      -0.1314
     32  N         20.4470   53.9110   46.2190 N.am   19  CYS19      -0.1956
     33  CA        20.4850   52.5520   45.7320 C.3    19  CYS19       0.1843
     34  C         20.7320   52.3870   44.2200 C.2    19  CYS19       0.2625
     35  O         20.9550   51.2830   43.7710 O.2    19  CYS19      -0.2714
     36  CB        19.1820   51.9110   46.0830 C.3    19  CYS19       0.0997
     37  SG        18.9130   51.6570   47.8670 S.3    19  CYS19      -0.0797
     38  N         20.5170   53.4560   43.4390 N.am   20  HIS20      -0.1973
     39  CA        20.5880   53.3950   41.9660 C.3    20  HIS20       0.1656
     40  C         21.6120   54.3840   41.4850 C.2    20  HIS20       0.2291
     41  O         21.6570   55.5020   41.9970 O.2    20  HIS20      -0.2864
     42  CB        19.2280   53.7100   41.3310 C.3    20  HIS20       0.0771
     43  CG        18.1340   52.7100   41.6470 C.ar   20  HIS20       0.0820
     44  ND1       17.9870   51.5360   40.9450 N.ar   20  HIS20      -0.2267
     45  CD2       17.1000   52.7520   42.5270 C.ar   20  HIS20       0.1154
     46  CE1       16.8800   50.9340   41.3540 C.ar   20  HIS20       0.1986
     47  NE2       16.3570   51.6170   42.3690 N.ar   20  HIS20      -0.2212
     48  N         22.7160   48.7370   45.0650 N.3    27  ASP27      -0.1225
     49  CA        21.7070   47.8200   45.6460 C.3    27  ASP27       0.1805
     50  C         20.6230   47.4960   44.5910 C.2    27  ASP27       0.2598
     51  O         20.1730   46.3450   44.3910 O.2    27  ASP27      -0.2718
     52  CB        21.0790   48.4370   46.9130 C.3    27  ASP27       0.1424
     53  CG        22.1160   49.0590   47.8950 C.2    27  ASP27       0.3668
     54  OD1       22.6950   50.1550   47.5980 O.co2  27  ASP27      -0.2456
     55  OD2       22.2560   48.4820   49.0110 O.co2  27  ASP27      -0.2456
     56  N         20.2700   48.5380   43.8320 N.am   28  GLY28      -0.1943
     57  CA        19.3070   48.4610   42.7650 C.3    28  GLY28       0.1998
     58  C         19.9820   48.5430   41.3810 C.2    28  GLY28       0.2480
     59  O         21.1700   48.8440   41.2670 O.2    28  GLY28      -0.2729
     60  N         19.2960   48.1490   40.3130 N.am   29  PRO29      -0.2726
     61  CA        19.8790   48.1910   38.9300 C.3    29  PRO29       0.1402
     62  C         20.2060   49.6090   38.5010 C.2    29  PRO29       0.2269
     63  O         19.5550   50.5910   38.9660 O.2    29  PRO29      -0.2865
     64  CB        18.7830   47.6200   38.0530 C.3    29  PRO29       0.0296
     65  CG        17.5450   47.9050   38.8510 C.3    29  PRO29       0.0237
     66  CD        17.9100   47.6890   40.2800 C.3    29  PRO29       0.0939
     67  N         20.1140   52.8300   36.1580 N.3    31  TYR31      -0.1241
     68  CA        18.9730   53.2800   35.4070 C.3    31  TYR31       0.1605
     69  C         19.1800   53.0470   33.9310 C.2    31  TYR31       0.2264
     70  O         18.2210   52.9230   33.2150 O.2    31  TYR31      -0.2867
     71  CB        18.6230   54.7260   35.7020 C.3    31  TYR31       0.0534
     72  CG        18.0340   54.9200   37.0940 C.ar   31  TYR31      -0.0201
     73  CD1       17.1980   53.9680   37.6560 C.ar   31  TYR31      -0.0009
     74  CD2       18.2210   56.1030   37.8020 C.ar   31  TYR31      -0.0009
     75  CE1       16.5970   54.2010   38.9140 C.ar   31  TYR31       0.0417
     76  CE2       17.6400   56.3270   39.0340 C.ar   31  TYR31       0.0417
     77  CZ        16.8200   55.3900   39.5890 C.ar   31  TYR31       0.1957
     78  OH        16.2320   55.6270   40.7990 O.3    31  TYR31      -0.2866
     79  N         17.8110   49.6370   33.4590 N.3    34  VAL34      -0.1245
     80  CA        16.3530   49.7120   33.4640 C.3    34  VAL34       0.1561
     81  C         15.8620   50.2250   32.1300 C.2    34  VAL34       0.2260
     82  O         14.8480   49.7440   31.5720 O.2    34  VAL34      -0.2867
     83  CB        15.8400   50.6580   34.5740 C.3    34  VAL34       0.0252
     84  CG1       14.3450   50.8310   34.4790 C.3    34  VAL34       0.0019
     85  CG2       16.1750   50.0140   35.9420 C.3    34  VAL34       0.0019
     86  N         15.9870   47.5640   29.6480 N.3    37  LYS37      -0.1231
     87  CA        14.9590   46.5770   29.8540 C.3    37  LYS37       0.1693
     88  C         13.6230   47.0070   29.2970 C.2    37  LYS37       0.2592
     89  O         12.9210   46.2400   28.7010 O.2    37  LYS37      -0.2718
     90  CB        14.8120   46.3360   31.3540 C.3    37  LYS37       0.0285
     91  CG        13.5340   45.6360   31.7100 C.3    37  LYS37       0.0035
     92  CD        13.5100   45.2160   33.1950 C.3    37  LYS37       0.0206
     93  CE        12.1260   44.7570   33.5950 C.3    37  LYS37       0.1093
     94  NZ        11.9270   44.5720   35.0600 N.3    37  LYS37      -0.1314
     95  N         13.3380   48.2970   29.4030 N.am   38  TYR38      -0.1976
     96  CA        12.0320   48.7600   29.0050 C.3    38  TYR38       0.1639
     97  C         12.0050   49.4030   27.6070 C.2    38  TYR38       0.2290
     98  O         10.9290   49.7880   27.1580 O.2    38  TYR38      -0.2864
     99  CB        11.5040   49.8240   30.0100 C.3    38  TYR38       0.0560
    100  CG        10.9200   49.1270   31.2240 C.ar   38  TYR38      -0.0198
    101  CD1        9.5950   48.7110   31.2050 C.ar   38  TYR38      -0.0009
    102  CD2       11.6800   48.8320   32.3520 C.ar   38  TYR38      -0.0009
    103  CE1        9.0520   48.0140   32.2750 C.ar   38  TYR38       0.0417
    104  CE2       11.1350   48.1360   33.4310 C.ar   38  TYR38       0.0417
    105  CZ         9.8220   47.7310   33.3900 C.ar   38  TYR38       0.1957
    106  OH         9.2780   47.0480   34.4690 O.3    38  TYR38      -0.2866
    107  N          6.4140   51.9140   35.0580 N.3    48  LEU48      -0.1245
    108  CA         7.3650   52.4490   36.0550 C.3    48  LEU48       0.1561
    109  C          6.6750   53.4330   37.0040 C.2    48  LEU48       0.2260
    110  O          7.0370   53.5010   38.1930 O.2    48  LEU48      -0.2867
    111  CB         8.6080   53.1050   35.4230 C.3    48  LEU48       0.0270
    112  CG         9.6360   52.1600   34.7330 C.3    48  LEU48       0.0019
    113  CD1       10.9200   52.8830   34.4180 C.3    48  LEU48       0.0001
    114  CD2        9.9440   50.9260   35.6130 C.3    48  LEU48       0.0001
    115  N          5.3390   51.0960   39.3900 N.3    51  HIS51      -0.1226
    116  CA         6.3790   50.5160   40.2240 C.3    51  HIS51       0.1752
    117  C          6.8030   51.4460   41.3640 C.2    51  HIS51       0.2595
    118  O          7.0700   50.9780   42.4590 O.2    51  HIS51      -0.2718
    119  CB         7.6240   50.2390   39.3790 C.3    51  HIS51       0.0759
    120  CG         8.7940   49.7890   40.1880 C.ar   51  HIS51       0.0818
    121  ND1        9.8140   50.6170   40.5860 N.ar   51  HIS51      -0.2268
    122  CD2        9.0630   48.5740   40.7240 C.ar   51  HIS51       0.1154
    123  CE1       10.6560   49.9300   41.3220 C.ar   51  HIS51       0.1986
    124  NE2       10.2530   48.6850   41.3740 N.ar   51  HIS51      -0.2212
    125  N          6.9080   52.7440   41.0980 N.am   52  VAL52      -0.1980
    126  CA         7.3600   53.6810   42.1390 C.3    52  VAL52       0.1595
    127  C          6.3020   54.2040   43.1120 C.2    52  VAL52       0.2287
    128  O          6.6220   54.9400   44.0770 O.2    52  VAL52      -0.2864
    129  CB         8.1210   54.8040   41.4650 C.3    52  VAL52       0.0276
    130  CG1        7.2240   55.8480   40.8190 C.3    52  VAL52       0.0022
    131  CG2        9.1830   55.3990   42.3880 C.3    52  VAL52       0.0022
    132  N          7.1200   44.1100   46.1320 N.3    57  LYS57      -0.1231
    133  CA         8.3850   43.4780   46.5130 C.3    57  LYS57       0.1693
    134  C          9.5320   43.8180   45.5560 C.2    57  LYS57       0.2592
    135  O          9.3980   43.9310   44.3230 O.2    57  LYS57      -0.2718
    136  CB         8.2260   41.9550   46.6940 C.3    57  LYS57       0.0285
    137  CG         7.3340   41.6170   47.8910 C.3    57  LYS57       0.0035
    138  CD         8.0750   41.6780   49.2410 C.3    57  LYS57       0.0206
    139  CE         8.6160   40.3000   49.6440 C.3    57  LYS57       0.1093
    140  NZ         9.0490   40.1600   51.0700 N.3    57  LYS57      -0.1314
    141  N         10.6830   44.0060   46.1660 N.am   58  ALA58      -0.1966
    142  CA        11.9130   44.3320   45.4590 C.3    58  ALA58       0.1728
    143  C         12.9040   43.3220   45.9790 C.2    58  ALA58       0.2616
    144  O         13.0430   43.1410   47.2040 O.2    58  ALA58      -0.2715
    145  CB        12.3740   45.7720   45.7270 C.3    58  ALA58       0.0334
    146  N         13.4760   42.5560   45.0330 N.am   59  LYS59      -0.1963
    147  CA        14.4380   41.5270   45.3960 C.3    59  LYS59       0.1728
    148  C         15.8190   42.1270   45.3060 C.2    59  LYS59       0.2616
    149  O         16.2370   42.6870   44.2900 O.2    59  LYS59      -0.2715
    150  CB        14.3110   40.3180   44.4860 C.3    59  LYS59       0.0311
    151  CG        15.4610   39.3480   44.6190 C.3    59  LYS59       0.0038
    152  CD        15.4880   38.7080   45.9830 C.3    59  LYS59       0.0206
    153  CE        15.5600   37.1940   45.8510 C.3    59  LYS59       0.1093
    154  NZ        14.2130   36.6570   45.4970 N.3    59  LYS59      -0.1314
    155  N         16.5670   42.0120   46.4250 N.am   60  PHE60      -0.1974
    156  CA        17.9200   42.5870   46.4970 C.3    60  PHE60       0.1639
    157  C         18.9910   41.5990   46.0540 C.2    60  PHE60       0.2290
    158  O         18.7660   40.3420   46.0850 O.2    60  PHE60      -0.2864
    159  CB        18.2190   43.1470   47.8970 C.3    60  PHE60       0.0560
    160  CG        17.5180   44.4650   48.2130 C.ar   60  PHE60      -0.0200
    161  CD1       16.1480   44.5210   48.2840 C.ar   60  PHE60      -0.0042
    162  CD2       18.2410   45.6350   48.3930 C.ar   60  PHE60      -0.0042
    163  CE1       15.5220   45.7210   48.5640 C.ar   60  PHE60      -0.0003
    164  CE2       17.5940   46.8530   48.6800 C.ar   60  PHE60      -0.0003
    165  CZ        16.2460   46.8780   48.7100 C.ar   60  PHE60      -0.0000
    166  N         12.4530   43.4980   50.1600 N.3    66  GLU66      -0.1245
    167  CA        11.8410   44.6530   50.8820 C.3    66  GLU66       0.1567
    168  C         10.7240   45.1590   49.9800 C.2    66  GLU66       0.2260
    169  O         10.7270   44.9190   48.8010 O.2    66  GLU66      -0.2867
    170  CB        12.8120   45.8180   51.0680 C.3    66  GLU66       0.0388
    171  CG        14.0840   45.4410   51.8190 C.3    66  GLU66       0.1160
    172  CD        15.0440   46.6060   52.0480 C.2    66  GLU66       0.3649
    173  OE1       14.7040   47.7950   51.7800 O.co2  66  GLU66      -0.2457
    174  OE2       16.2010   46.3130   52.5050 O.co2  66  GLU66      -0.2457
    175  N          9.4200   48.0330   47.8010 N.3    68  HIS68      -0.1226
    176  CA        10.1740   49.1320   47.1500 C.3    68  HIS68       0.1752
    177  C          9.7220   50.4860   47.6870 C.2    68  HIS68       0.2595
    178  O          8.5240   50.6330   48.0330 O.2    68  HIS68      -0.2718
    179  CB        10.0720   49.0570   45.6350 C.3    68  HIS68       0.0759
    180  CG        11.0320   49.9700   44.8760 C.ar   68  HIS68       0.0818
    181  ND1       10.7630   51.2960   44.6770 N.ar   68  HIS68      -0.2268
    182  CD2       12.3190   49.8070   44.4740 C.ar   68  HIS68       0.1154
    183  CE1       11.7820   51.8820   44.0750 C.ar   68  HIS68       0.1986
    184  NE2       12.7390   50.9870   43.8480 N.ar   68  HIS68      -0.2212
    185  N         10.6460   51.4440   47.7460 N.am   69  LYS69      -0.1980
    186  CA        10.3730   52.8770   48.0370 C.3    69  LYS69       0.1596
    187  C          9.0980   53.2990   47.2770 C.2    69  LYS69       0.2287
    188  O          8.9570   53.0090   46.0790 O.2    69  LYS69      -0.2864
    189  CB        11.5520   53.7280   47.6100 C.3    69  LYS69       0.0298
    190  CG        11.3350   55.2230   47.8140 C.3    69  LYS69       0.0038
    191  CD        11.3020   55.5370   49.2600 C.3    69  LYS69       0.0206
    192  CE        11.2800   57.0470   49.4840 C.3    69  LYS69       0.1093
    193  NZ        11.1710   57.3260   50.9250 N.3    69  LYS69      -0.1314
    194  N          6.7270   56.4800   46.4530 N.3    71  ILE71      -0.1245
    195  CA         6.6000   57.9190   46.5170 C.3    71  ILE71       0.1561
    196  C          5.1580   58.4200   46.2370 C.2    71  ILE71       0.2260
    197  O          4.9390   59.6580   46.0250 O.2    71  ILE71      -0.2867
    198  CB         7.6500   58.6550   45.6590 C.3    71  ILE71       0.0252
    199  CG1        7.5160   58.2630   44.2090 C.3    71  ILE71       0.0019
    200  CG2        9.0530   58.3860   46.2490 C.3    71  ILE71       0.0019
    201  CD1        8.4620   59.0410   43.3010 C.3    71  ILE71       0.0001
    202  N         10.1880   62.1950   36.2380 N.3    83  LEU83      -0.1231
    203  CA        11.2970   61.3520   36.6940 C.3    83  LEU83       0.1693
    204  C         11.3380   59.9780   35.9420 C.2    83  LEU83       0.2591
    205  O         12.4050   59.5660   35.4820 O.2    83  LEU83      -0.2718
    206  CB        11.2080   61.0620   38.1720 C.3    83  LEU83       0.0284
    207  CG        12.1710   60.0150   38.7370 C.3    83  LEU83       0.0019
    208  CD1       13.6330   60.3270   38.4880 C.3    83  LEU83       0.0001
    209  CD2       11.9600   59.9410   40.2280 C.3    83  LEU83       0.0001
    210  N         10.1950   59.3370   35.7570 N.am   84  VAL84      -0.1980
    211  CA        10.0810   58.1070   34.9840 C.3    84  VAL84       0.1595
    212  C         10.5760   58.3390   33.5770 C.2    84  VAL84       0.2287
    213  O         11.3200   57.5410   33.0070 O.2    84  VAL84      -0.2864
    214  CB         8.6320   57.5590   35.0490 C.3    84  VAL84       0.0276
    215  CG1        8.3750   56.4230   34.0160 C.3    84  VAL84       0.0022
    216  CG2        8.4040   57.0010   36.4670 C.3    84  VAL84       0.0022
    217  N         14.3700   58.5000   33.5250 N.3    87  ILE87      -0.1245
    218  CA        14.8990   57.1490   33.6110 C.3    87  ILE87       0.1561
    219  C         14.8500   56.3750   32.2990 C.2    87  ILE87       0.2260
    220  O         15.8720   55.7740   31.8950 O.2    87  ILE87      -0.2867
    221  CB        14.2250   56.3490   34.7660 C.3    87  ILE87       0.0252
    222  CG1       14.6730   56.9380   36.1350 C.3    87  ILE87       0.0019
    223  CG2       14.5200   54.8520   34.6690 C.3    87  ILE87       0.0019
    224  CD1       13.8290   56.4650   37.3160 C.3    87  ILE87       0.0001
@<TRIPOS>BOND
     1    98    97    2
     2    97    96    1
     3    89    88    2
     4    96    95    1
     5    96    99    1
     6    88    95   am
     7    88    87    1
     8    86    87    1
     9    87    90    1
    10    99   100    1
    11   101   100   ar
    12   101   103   ar
    13   100   102   ar
    14    90    91    1
    15    82    81    2
    16    91    92    1
    17   220   219    2
    18    81    80    1
    19   103   105   ar
    20   219   218    1
    21   102   104   ar
    22   213   212    2
    23    92    93    1
    24    70    69    2
    25   105   104   ar
    26   105   106    1
    27    79    80    1
    28    80    83    1
    29   217   218    1
    30   212   211    1
    31    93    94    1
    32   218   221    1
    33    69    68    1
    34   215   214    1
    35   113   112    1
    36    84    83    1
    37    83    85    1
    38   223   221    1
    39   112   111    1
    40   112   114    1
    41   221   222    1
    42   211   214    1
    43   211   210    1
    44   214   216    1
    45   107   108    1
    46    68    71    1
    47    68    67    1
    48   111   108    1
    49   205   204    2
    50    71    72    1
    51   210   204   am
    52   204   203    1
    53   108   109    1
    54   222   224    1
    55   202   203    1
    56   203   206    1
    57   109   110    2
    58    72    73   ar
    59    72    74   ar
    60    73    75   ar
    61    74    76   ar
    62    64    65    1
    63    64    61    1
    64   206   207    1
    65   208   207    1
    66    62    61    1
    67    62    63    2
    68   207   209    1
    69    65    66    1
    70    75    77   ar
    71    61    60    1
    72    76    77   ar
    73   119   120    1
    74   119   116    1
    75   115   116    1
    76    77    78    1
    77   120   121   ar
    78   120   122   ar
    79   116   117    1
    80    66    60    1
    81    60    58   am
    82   121   123   ar
    83   122   124   ar
    84   130   129    1
    85    44    46   ar
    86    44    43   ar
    87   125   117   am
    88   125   126    1
    89    59    58    2
    90   123   124   ar
    91    42    43    1
    92    42    39    1
    93    46    47   ar
    94   117   118    2
    95    58    57    1
    96   129   126    1
    97   129   131    1
    98    40    39    1
    99    40    41    2
   100    43    45   ar
   101    39    38    1
   102   126   127    1
   103    47    45   ar
   104    57    56    1
   105   127   128    2
   106   201   199    1
   107    38    34   am
   108    21    22    1
   109    21    18    1
   110    35    34    2
   111    56    50   am
   112   184   183   ar
   113   184   182   ar
   114   183   181   ar
   115   199   198    1
   116    34    33    1
   117    20    19    2
   118   149   148    2
   119   135   134    2
   120    51    50    2
   121   182   180   ar
   122    19    18    1
   123   150   151    1
   124   150   147    1
   125    50    49    1
   126   151   152    1
   127   181   180   ar
   128    18    17    1
   129   180   179    1
   130   146   147    1
   131   146   143   am
   132    48    49    1
   133   148   147    1
   134   148   155   am
   135   142   145    1
   136   142   143    1
   137   142   141    1
   138   154   153    1
   139   134   141   am
   140   134   133    1
   141   179   176    1
   142    49    52    1
   143   198   200    1
   144   198   195    1
   145    33    36    1
   146    33    32    1
   147   153   152    1
   148    17    11   am
   149   143   144    2
   150   197   196    2
   151   157   158    2
   152   157   156    1
   153   188   187    2
   154    36    37    1
   155   132   133    1
   156     8     6   am
   157    32    25   am
   158   196   195    1
   159   155   156    1
   160   194   195    1
   161    23    24    1
   162   156   159    1
   163   133   136    1
   164   136   137    1
   165     5     6    1
   166     5     2    1
   167    52    53    1
   168    25    26    2
   169    25    24    1
   170     6     7    2
   171    11    12    2
   172    11    10    1
   173   176   177    1
   174   176   175    1
   175   187   186    1
   176     1     2    1
   177    24    27    1
   178    54    53   ar
   179   189   190    1
   180   189   186    1
   181   177   185   am
   182   177   178    2
   183     2     3    1
   184   185   186    1
   185   190   191    1
   186     3     4    2
   187     3     9   am
   188   137   138    1
   189    53    55   ar
   190   159   160    1
   191     9    10    1
   192   160   161   ar
   193   160   162   ar
   194    10    13    1
   195   161   163   ar
   196   162   164   ar
   197   163   165   ar
   198   164   165   ar
   199   169   168    2
   200    27    28    1
   201   138   139    1
   202   191   192    1
   203    28    29    1
   204   192   193    1
   205    13    14    1
   206    29    30    1
   207   139   140    1
   208   168   167    1
   209   166   167    1
   210    31    30    1
   211    15    14    2
   212    14    16   am
   213   167   170    1
   214   170   171    1
   215   173   172   ar
   216   171   172    1
   217   172   174   ar
