@<TRIPOS>MOLECULE
tmp/4xxrA00.pdb
 125 118 0 0 0
SMALL
GASTEIGER

@<TRIPOS>ATOM
      1  N          2.4740    5.7650  -15.0970 N.3    44  SER44      -0.1217
      2  CA         2.1220    4.9630  -16.2610 C.3    44  SER44       0.1889
      3  C          0.6840    5.0880  -16.7400 C.2    44  SER44       0.2288
      4  O          0.3520    4.5290  -17.7820 O.2    44  SER44      -0.2866
      5  CB         2.4320    3.4980  -16.0260 C.3    44  SER44       0.2089
      6  OG         3.8390    3.3040  -15.9390 O.3    44  SER44      -0.2183
      7  N         13.5850   -0.7610  -16.6620 N.3    78  ASN78      -0.1225
      8  CA        13.4500   -1.2710  -15.3090 C.3    78  ASN78       0.1785
      9  C         12.3430   -2.3100  -15.1610 C.2    78  ASN78       0.2597
     10  O         12.3220   -3.0480  -14.1810 O.2    78  ASN78      -0.2718
     11  CB        13.1680   -0.1210  -14.3420 C.3    78  ASN78       0.1169
     12  CG        11.8680    0.5780  -14.6350 C.2    78  ASN78       0.2627
     13  OD1       11.5550    0.8600  -15.7920 O.2    78  ASN78      -0.2716
     14  ND2       11.0690    0.8050  -13.6040 N.am   78  ASN78      -0.0877
     15  N         11.4020   -2.3450  -16.0940 N.am   79  TYR79      -0.1976
     16  CA        10.2470   -3.2300  -15.9930 C.3    79  TYR79       0.1639
     17  C          9.7330   -3.4960  -17.3800 C.2    79  TYR79       0.2290
     18  O          9.1670   -2.6350  -18.0250 O.2    79  TYR79      -0.2864
     19  CB         9.1500   -2.6160  -15.1290 C.3    79  TYR79       0.0560
     20  CG         8.0350   -3.5940  -14.8180 C.ar   79  TYR79      -0.0198
     21  CD1        6.7900   -3.4920  -15.4280 C.ar   79  TYR79      -0.0009
     22  CD2        8.2840   -4.7280  -14.0450 C.ar   79  TYR79      -0.0009
     23  CE1        5.7910   -4.4480  -15.2040 C.ar   79  TYR79       0.0417
     24  CE2        7.3180   -5.6940  -13.8230 C.ar   79  TYR79       0.0417
     25  CZ         6.0520   -5.5440  -14.3690 C.ar   79  TYR79       0.1957
     26  OH         5.1380   -6.5530  -14.1670 O.3    79  TYR79      -0.2866
     27  N          1.8580   -2.9930  -18.3670 N.3   104  SER104     -0.1217
     28  CA         2.6520   -1.8120  -18.0270 C.3   104  SER104      0.1889
     29  C          4.1380   -1.9940  -18.3270 C.2   104  SER104      0.2288
     30  O          4.9960   -1.5690  -17.5690 O.2   104  SER104     -0.2866
     31  CB         2.4180   -1.3890  -16.5820 C.3   104  SER104      0.2089
     32  OG         2.5180    0.0250  -16.4520 O.3   104  SER104     -0.2183
     33  N          7.4650   -1.0000  -19.7380 N.3   106  ASN106     -0.1240
     34  CA         8.0560    0.3120  -19.9810 C.3   106  ASN106      0.1653
     35  C          8.8200    0.3740  -21.2960 C.2   106  ASN106      0.2266
     36  O          8.9020    1.4220  -21.8950 O.2   106  ASN106     -0.2867
     37  CB         8.9630    0.7150  -18.8300 C.3   106  ASN106      0.1155
     38  CG         8.1910    1.2590  -17.6600 C.2   106  ASN106      0.2627
     39  OD1        7.0330    1.6570  -17.7900 O.2   106  ASN106     -0.2716
     40  ND2        8.8390    1.3450  -16.5220 N.am  106  ASN106     -0.0877
     41  N         11.8970    5.0460  -17.6040 N.3   141  PRO141     -0.2102
     42  CA        11.0870    5.1770  -16.4070 C.3   141  PRO141      0.1504
     43  C         11.0850    6.5610  -15.7690 C.2   141  PRO141      0.2576
     44  O         10.3870    6.7440  -14.7610 O.2   141  PRO141     -0.2718
     45  CB        11.7590    4.1990  -15.4480 C.3   141  PRO141      0.0282
     46  CG        13.1900    4.3330  -15.8000 C.3   141  PRO141      0.0208
     47  CD        13.2060    4.4430  -17.3000 C.3   141  PRO141      0.0893
     48  N         11.8490    7.5160  -16.3030 N.am  142  THR142     -0.1953
     49  CA        11.9810    8.7930  -15.6070 C.3   142  THR142      0.1897
     50  C         10.6980    9.6240  -15.5580 C.2   142  THR142      0.2313
     51  O         10.5600   10.4500  -14.6850 O.2   142  THR142     -0.2863
     52  CB        13.1710    9.6490  -16.0830 C.3   142  THR142      0.1794
     53  OG1       12.9850   10.0490  -17.4370 O.3   142  THR142     -0.2208
     54  CG2       14.5060    8.9290  -15.8840 C.3   142  THR142      0.0378
     55  N          8.2260    8.6980  -14.2300 N.3   144  ASN144     -0.1225
     56  CA         7.6240    8.3140  -12.9460 C.3   144  ASN144      0.1785
     57  C          8.3420    8.8800  -11.7040 C.2   144  ASN144      0.2597
     58  O          8.0730    8.4430  -10.6050 O.2   144  ASN144     -0.2718
     59  CB         7.5610    6.7830  -12.7940 C.3   144  ASN144      0.1169
     60  CG         6.8300    6.1060  -13.9310 C.2   144  ASN144      0.2627
     61  OD1        5.6110    6.1740  -14.0260 O.2   144  ASN144     -0.2716
     62  ND2        7.5650    5.4560  -14.8150 N.am  144  ASN144     -0.0877
     63  N          9.2380    9.8560  -11.8560 N.am  145  THR145     -0.1953
     64  CA         9.9130   10.3880  -10.6890 C.3   145  THR145      0.1897
     65  C          8.9470   11.0460   -9.7000 C.2   145  THR145      0.2313
     66  O          9.2040   11.0240   -8.5010 O.2   145  THR145     -0.2863
     67  CB        11.0290   11.3880  -11.0740 C.3   145  THR145      0.1794
     68  OG1       10.5330   12.3980  -11.9630 O.3   145  THR145     -0.2208
     69  CG2       12.2230   10.6940  -11.7230 C.3   145  THR145      0.0378
     70  N         -3.2480   -5.4260  -14.0540 N.3   190  THR190     -0.1218
     71  CA        -2.6220   -4.8060  -12.8850 C.3   190  THR190      0.1862
     72  C         -3.5990   -4.0810  -11.9630 C.2   190  THR190      0.2287
     73  O         -3.1440   -3.4660  -11.0020 O.2   190  THR190     -0.2866
     74  CB        -1.5350   -3.7720  -13.3020 C.3   190  THR190      0.1770
     75  OG1       -2.1810   -2.6530  -13.9300 O.3   190  THR190     -0.2211
     76  CG2       -0.5270   -4.3880  -14.2330 C.3   190  THR190      0.0375
     77  N         -6.1610    1.6150  -16.4170 N.3   208  LYS208     -0.1231
     78  CA        -4.6890    1.6370  -16.4590 C.3   208  LYS208      0.1693
     79  C         -4.2050    2.2430  -15.1540 C.2   208  LYS208      0.2593
     80  O         -4.5520    3.3660  -14.8190 O.2   208  LYS208     -0.2718
     81  CB        -4.1900    2.4890  -17.6190 C.3   208  LYS208      0.0285
     82  CG        -2.6570    2.5480  -17.6910 C.3   208  LYS208      0.0035
     83  CD        -2.0460    1.2170  -18.1600 C.3   208  LYS208      0.0206
     84  CE        -0.5520    1.1130  -17.9160 C.3   208  LYS208      0.1093
     85  NZ        -0.2660    0.7640  -16.5150 N.3   208  LYS208     -0.1314
     86  N         -3.3330    1.5050  -14.4750 N.am  209  THR209     -0.1939
     87  CA        -2.7010    1.9450  -13.2520 C.3   209  THR209      0.2028
     88  C         -1.4430    2.7550  -13.5430 C.2   209  THR209      0.2643
     89  O         -0.8950    2.7590  -14.6740 O.2   209  THR209     -0.2714
     90  CB        -2.3350    0.7290  -12.4080 C.3   209  THR209      0.1808
     91  OG1       -1.5220   -0.1620  -13.1880 O.3   209  THR209     -0.2208
     92  CG2       -3.5800   -0.0240  -11.8960 C.3   209  THR209      0.0379
     93  N         -0.9210    3.3880  -12.5120 N.am  210  GLY210     -0.1939
     94  CA         0.4390    3.9230  -12.5360 C.3   210  GLY210      0.2014
     95  C          0.9840    4.0170  -11.1380 C.2   210  GLY210      0.2640
     96  O          0.2310    4.1770  -10.1650 O.2   210  GLY210     -0.2714
     97  N          2.3030    4.0600  -11.0370 N.am  211  SER211     -0.1935
     98  CA         2.9180    4.3120   -9.7660 C.3   211  SER211      0.2055
     99  C          4.3520    4.7000   -9.9670 C.2   211  SER211      0.2644
    100  O          4.9480    4.4240  -11.0010 O.2   211  SER211     -0.2714
    101  CB         2.8140    3.0870   -8.8680 C.3   211  SER211      0.2130
    102  OG         3.3240    1.9370   -9.5130 O.3   211  SER211     -0.2179
    103  N          4.8760    5.3800   -8.9670 N.am  212  GLY212     -0.1939
    104  CA         6.1660    6.0500   -9.0680 C.3   212  GLY212      0.2014
    105  C          6.6820    6.3400   -7.6850 C.2   212  GLY212      0.2638
    106  O          6.1720    5.8600   -6.7010 O.2   212  GLY212     -0.2714
    107  N          7.7860    7.1860   -7.7230 N.am  213  ASP213     -0.1971
    108  CA         8.3030    7.6290   -6.4260 C.3   213  ASP213      0.1709
    109  C          7.2750    8.4920   -5.7010 C.2   213  ASP213      0.2293
    110  O          6.1740    8.7760   -6.2210 O.2   213  ASP213     -0.2864
    111  CB         9.6090    8.4150   -6.5940 C.3   213  ASP213      0.1436
    112  CG        10.8740    7.5880   -6.4090 C.2   213  ASP213      0.3671
    113  OD1       10.7850    6.4030   -6.0120 O.co2 213  ASP213     -0.2456
    114  OD2       11.9570    8.1620   -6.7000 O.co2 213  ASP213     -0.2456
    115  N         -2.7140    1.5170   -2.9060 N.3   248  ARG248     -0.1245
    116  CA        -3.8180    1.2030   -3.7970 C.3   248  ARG248      0.1563
    117  C         -5.1650    1.1400   -3.0540 C.2   248  ARG248      0.2260
    118  O         -6.2020    1.4530   -3.6230 O.2   248  ARG248     -0.2867
    119  CB        -3.5310   -0.0710   -4.5900 C.3   248  ARG248      0.0307
    120  CG        -2.4150    0.0750   -5.6090 C.3   248  ARG248      0.0489
    121  CD        -2.0490   -1.2330   -6.2940 C.3   248  ARG248      0.2205
    122  NE        -1.4780   -2.1750   -5.3350 N.pl3 248  ARG248     -0.0865
    123  CZ        -0.9770   -3.3680   -5.6380 C.cat 248  ARG248      0.5346
    124  NH1       -0.9270   -3.7880   -6.9040 N.pl3 248  ARG248      0.1354
    125  NH2       -0.5420   -4.1430   -4.6500 N.pl3 248  ARG248      0.1354
@<TRIPOS>BOND
     1    36    35    2
     2    35    34    1
     3    34    33    1
     4    34    37    1
     5    37    38    1
     6    27    28    1
     7    29    28    1
     8    29    30    2
     9    83    84    1
    10    83    82    1
    11    28    31    1
    12    18    17    2
    13    84    85    1
    14    39    38    2
    15     4     3    2
    16    82    81    1
    17    38    40   am
    18    81    78    1
    19    41    47    1
    20    41    42    1
    21    53    52    1
    22    17    16    1
    23    47    46    1
    24     3     2    1
    25     7     8    1
    26    31    32    1
    27    78    77    1
    28    78    79    1
    29    42    43    1
    30    42    45    1
    31    48    43   am
    32    48    49    1
    33     2     5    1
    34     2     1    1
    35    15    16    1
    36    15     9   am
    37    52    54    1
    38    52    49    1
    39     5     6    1
    40    16    19    1
    41    46    45    1
    42    13    12    2
    43    43    44    2
    44    49    50    1
    45    50    51    2
    46    21    23   ar
    47    21    20   ar
    48     8     9    1
    49     8    11    1
    50    23    25   ar
    51     9    10    2
    52    79    80    2
    53    79    86   am
    54    19    20    1
    55    20    22   ar
    56    62    60   am
    57    89    88    2
    58    12    11    1
    59    12    14   am
    60    86    87    1
    61    25    26    1
    62    25    24   ar
    63    76    74    1
    64    55    56    1
    65    70    71    1
    66    22    24   ar
    67    61    60    2
    68    60    59    1
    69    75    74    1
    70    88    87    1
    71    88    93   am
    72    74    71    1
    73    87    90    1
    74    91    90    1
    75    56    59    1
    76    56    57    1
    77    71    72    1
    78    94    93    1
    79    94    95    1
    80    90    92    1
    81    72    73    2
    82    68    67    1
    83    63    57   am
    84    63    64    1
    85    69    67    1
    86    57    58    2
    87    95    97   am
    88    95    96    2
    89    67    64    1
    90    97    98    1
    91   100    99    2
    92    64    65    1
    93    99    98    1
    94    99   103   am
    95    98   101    1
    96    65    66    2
    97   102   101    1
    98   104   103    1
    99   104   105    1
   100   107   105   am
   101   107   108    1
   102   105   106    2
   103   124   123    1
   104   114   112   ar
   105   111   108    1
   106   111   112    1
   107   108   109    1
   108   112   113   ar
   109   121   120    1
   110   121   122    1
   111   110   109    2
   112   123   122    2
   113   123   125    1
   114   120   119    1
   115   119   116    1
   116   116   117    1
   117   116   115    1
   118   118   117    2
