@<TRIPOS>MOLECULE
tmp/4xxrA02.pdb
 91 84 0 0 0
SMALL
GASTEIGER

@<TRIPOS>ATOM
      1  N        -16.7950   11.3820  -14.3190 N.3    24  ILE24      -0.1245
      2  CA       -17.8350   11.7800  -15.2620 C.3    24  ILE24       0.1561
      3  C        -18.8640   10.6640  -15.3080 C.2    24  ILE24       0.2260
      4  O        -18.5300    9.5090  -15.5270 O.2    24  ILE24      -0.2867
      5  CB       -17.2890   12.0290  -16.6730 C.3    24  ILE24       0.0252
      6  CG1      -16.2790   13.1730  -16.6730 C.3    24  ILE24       0.0019
      7  CG2      -18.4630   12.3040  -17.5920 C.3    24  ILE24       0.0019
      8  CD1      -15.5430   13.3320  -17.9720 C.3    24  ILE24       0.0001
      9  N        -21.7730    9.4100  -17.4110 N.3    26  THR26      -0.1218
     10  CA       -22.3110    9.6670  -18.7500 C.3    26  THR26       0.1862
     11  C        -23.8420    9.5510  -18.8290 C.2    26  THR26       0.2287
     12  O        -24.4200    9.9020  -19.8480 O.2    26  THR26      -0.2866
     13  CB       -21.6880    8.7730  -19.8310 C.3    26  THR26       0.1770
     14  OG1      -22.1410    7.4190  -19.6890 O.3    26  THR26      -0.2211
     15  CG2      -20.1660    8.8390  -19.7910 C.3    26  THR26       0.0375
     16  N        -24.0100   13.2960  -17.9060 N.3    29  ASN29      -0.1225
     17  CA       -22.8870   14.0740  -18.4250 C.3    29  ASN29       0.1785
     18  C        -22.4720   15.1230  -17.4120 C.2    29  ASN29       0.2598
     19  O        -22.1650   16.2770  -17.7530 O.2    29  ASN29      -0.2718
     20  CB       -23.2370   14.7080  -19.7720 C.3    29  ASN29       0.1169
     21  CG       -23.1660   13.7120  -20.9140 C.2    29  ASN29       0.2627
     22  OD1      -22.5860   12.6370  -20.7760 O.2    29  ASN29      -0.2716
     23  ND2      -23.7880   14.0520  -22.0420 N.am   29  ASN29      -0.0877
     24  N        -22.5390   14.7240  -16.1490 N.am   30  THR30      -0.1939
     25  CA       -22.0730   15.5380  -15.0420 C.3    30  THR30       0.2028
     26  C        -20.7420   15.0310  -14.4760 C.2    30  THR30       0.2642
     27  O        -20.3370   13.8760  -14.6670 O.2    30  THR30      -0.2714
     28  CB       -23.0850   15.5310  -13.8710 C.3    30  THR30       0.1808
     29  OG1      -23.2680   14.1950  -13.3860 O.3    30  THR30      -0.2208
     30  CG2      -24.4310   16.0880  -14.3100 C.3    30  THR30       0.0379
     31  N        -20.0700   15.8970  -13.7360 N.am   31  GLN31      -0.1976
     32  CA       -18.7760   15.5770  -13.1630 C.3    31  GLN31       0.1601
     33  C        -18.7620   15.8340  -11.6580 C.2    31  GLN31       0.2287
     34  O        -19.4060   16.7710  -11.1680 O.2    31  GLN31      -0.2864
     35  CB       -17.6210   16.2530  -13.9370 C.3    31  GLN31       0.0394
     36  CG       -17.6380   17.7650  -14.0910 C.3    31  GLN31       0.0908
     37  CD       -16.6000   18.2630  -15.0910 C.2    31  GLN31       0.2608
     38  OE1      -15.7320   17.5120  -15.5290 O.2    31  GLN31      -0.2717
     39  NE2      -16.7090   19.5320  -15.4800 N.am   31  GLN31      -0.0878
     40  N         -9.5230   16.5200  -13.7080 N.3   158  ARG158     -0.1245
     41  CA       -10.5790   16.9920  -14.6080 C.3   158  ARG158      0.1563
     42  C        -10.2030   16.7200  -16.0610 C.2   158  ARG158      0.2260
     43  O        -11.0150   16.1810  -16.8420 O.2   158  ARG158     -0.2867
     44  CB       -10.8240   18.4850  -14.4070 C.3   158  ARG158      0.0307
     45  CG       -11.9690   19.0200  -15.2600 C.3   158  ARG158      0.0489
     46  CD       -11.9830   20.5390  -15.3950 C.3   158  ARG158      0.2205
     47  NE       -12.0790   21.2350  -14.1180 N.pl3 158  ARG158     -0.0865
     48  CZ       -13.2050   21.7470  -13.6290 C.cat 158  ARG158      0.5346
     49  NH1      -14.3640   21.5380  -14.2430 N.pl3 158  ARG158      0.1354
     50  NH2      -13.1800   22.4200  -12.4890 N.pl3 158  ARG158      0.1354
     51  N        -11.9670   13.8050  -18.7540 N.3   162  GLN162     -0.1245
     52  CA       -12.5820   14.2630  -19.9890 C.3   162  GLN162      0.1566
     53  C        -11.9370   13.5810  -21.2070 C.2   162  GLN162      0.2260
     54  O        -12.6270   13.0830  -22.1070 O.2   162  GLN162     -0.2867
     55  CB       -12.5240   15.7810  -20.0480 C.3   162  GLN162      0.0367
     56  CG       -13.5610   16.4220  -19.1220 C.3   162  GLN162      0.0905
     57  CD       -13.3510   17.9040  -18.8930 C.2   162  GLN162      0.2608
     58  OE1      -12.4760   18.5300  -19.4960 O.2   162  GLN162     -0.2717
     59  NE2      -14.0950   18.4510  -17.9620 N.am  162  GLN162     -0.0878
     60  N        -12.8480    9.8390  -21.3770 N.3   165  ARG165     -0.1231
     61  CA       -14.2040    9.6890  -21.9080 C.3   165  ARG165      0.1694
     62  C        -14.2200    9.8290  -23.4280 C.2   165  ARG165      0.2591
     63  O        -14.8360    9.0360  -24.1240 O.2   165  ARG165     -0.2718
     64  CB       -15.1820   10.6660  -21.2460 C.3   165  ARG165      0.0321
     65  CG       -16.6210   10.4200  -21.6810 C.3   165  ARG165      0.0489
     66  CD       -17.0540   11.2890  -22.8360 C.3   165  ARG165      0.2205
     67  NE       -17.2210   12.6740  -22.3810 N.pl3 165  ARG165     -0.0865
     68  CZ       -18.2560   13.1430  -21.6880 C.cat 165  ARG165      0.5346
     69  NH1      -19.3490   12.3900  -21.5220 N.pl3 165  ARG165      0.1354
     70  NH2      -18.2150   14.3880  -21.2180 N.pl3 165  ARG165      0.1354
     71  N        -13.5610   10.8600  -23.9440 N.am  166  GLN166     -0.1979
     72  CA       -13.5270   11.0640  -25.3920 C.3   166  GLN166      0.1601
     73  C        -12.9170    9.8710  -26.1370 C.2   166  GLN166      0.2287
     74  O        -13.3650    9.4900  -27.2140 O.2   166  GLN166     -0.2864
     75  CB       -12.7800   12.3520  -25.7370 C.3   166  GLN166      0.0394
     76  CG       -13.4810   13.6470  -25.3150 C.3   166  GLN166      0.0908
     77  CD       -14.6800   13.9640  -26.1630 C.2   166  GLN166      0.2608
     78  OE1      -15.6170   13.1590  -26.2790 O.2   166  GLN166     -0.2717
     79  NE2      -14.7120   15.1840  -26.6920 N.am  166  GLN166     -0.0878
     80  N        -15.4160    6.3380  -24.9820 N.3   169  LEU169     -0.1231
     81  CA       -16.8590    6.4030  -25.1300 C.3   169  LEU169      0.1693
     82  C        -17.2920    7.4030  -26.2060 C.2   169  LEU169      0.2592
     83  O        -18.3840    7.2970  -26.7430 O.2   169  LEU169     -0.2718
     84  CB       -17.5080    6.7470  -23.7790 C.3   169  LEU169      0.0284
     85  CG       -17.2270    5.7370  -22.6650 C.3   169  LEU169      0.0019
     86  CD1      -17.7270    6.3040  -21.3540 C.3   169  LEU169      0.0001
     87  CD2      -17.8670    4.3830  -22.9300 C.3   169  LEU169      0.0001
     88  N        -16.4680    8.3900  -26.4800 N.am  170  GLY170     -0.1957
     89  CA       -16.7450    9.4030  -27.4650 C.3   170  GLY170      0.1869
     90  C        -16.0710    9.1010  -28.7880 C.2   170  GLY170      0.2309
     91  O        -15.7550    7.9470  -29.0940 O.2   170  GLY170     -0.2863
@<TRIPOS>BOND
     1    91    90    2
     2    90    89    1
     3    89    88    1
     4    74    73    2
     5    83    82    2
     6    79    77   am
     7    88    82   am
     8    78    77    2
     9    82    81    1
    10    77    76    1
    11    73    72    1
    12    75    72    1
    13    75    76    1
    14    72    71    1
    15    81    80    1
    16    81    84    1
    17    63    62    2
    18    71    62   am
    19    84    85    1
    20    62    61    1
    21    87    85    1
    22    66    67    1
    23    66    65    1
    24    85    86    1
    25    67    68    2
    26    54    53    2
    27    23    21   am
    28    61    60    1
    29    61    64    1
    30    68    69    1
    31    68    70    1
    32    65    64    1
    33    53    52    1
    34    21    22    2
    35    21    20    1
    36    55    52    1
    37    55    56    1
    38    52    51    1
    39    12    11    2
    40    13    15    1
    41    13    14    1
    42    13    10    1
    43    20    17    1
    44    58    57    2
    45    56    57    1
    46    57    59   am
    47    11    10    1
    48    10     9    1
    49    17    16    1
    50    17    18    1
    51     8     6    1
    52    19    18    2
    53     7     5    1
    54    18    24   am
    55    43    42    2
    56     5     6    1
    57     5     2    1
    58    24    25    1
    59    42    41    1
    60    38    37    2
    61     4     3    2
    62    39    37   am
    63    46    45    1
    64    46    47    1
    65     3     2    1
    66     2     1    1
    67    45    44    1
    68    37    36    1
    69    25    26    1
    70    25    28    1
    71    27    26    2
    72    41    44    1
    73    41    40    1
    74    26    31   am
    75    30    28    1
    76    49    48    1
    77    47    48    2
    78    36    35    1
    79    35    32    1
    80    28    29    1
    81    31    32    1
    82    48    50    1
    83    32    33    1
    84    33    34    2
