@<TRIPOS>MOLECULE
tmp/4xxsA00.pdb
 184 176 0 0 0
SMALL
GASTEIGER

@<TRIPOS>ATOM
      1  N         26.2510  -43.3630    1.2160 N.3    17  GLN17      -0.1245
      2  CA        26.4580  -42.1050    1.9600 C.3    17  GLN17       0.1566
      3  C         25.4410  -41.0010    1.5590 C.2    17  GLN17       0.2260
      4  O         25.5670  -39.8590    2.0230 O.2    17  GLN17      -0.2867
      5  CB        27.9070  -41.5990    1.8100 C.3    17  GLN17       0.0367
      6  CG        28.9730  -42.5380    2.3760 C.3    17  GLN17       0.0905
      7  CD        30.3640  -41.9590    2.2460 C.2    17  GLN17       0.2608
      8  OE1       30.6110  -41.0130    1.4920 O.2    17  GLN17      -0.2717
      9  NE2       31.3250  -42.5570    2.9290 N.am   17  GLN17      -0.0878
     10  N         22.9190  -32.9790    1.6760 N.3    35  LEU35      -0.1245
     11  CA        22.2100  -34.2380    1.4470 C.3    35  LEU35       0.1561
     12  C         20.7110  -33.9660    1.1800 C.2    35  LEU35       0.2260
     13  O         20.0320  -33.2590    1.9500 O.2    35  LEU35      -0.2867
     14  CB        22.4030  -35.1830    2.6520 C.3    35  LEU35       0.0270
     15  CG        21.8740  -36.6250    2.4470 C.3    35  LEU35       0.0019
     16  CD1       22.8290  -37.6390    2.9970 C.3    35  LEU35       0.0001
     17  CD2       20.5530  -36.8210    3.1380 C.3    35  LEU35       0.0001
     18  N         17.0760  -35.0200    1.3580 N.3    37  ASP37      -0.1239
     19  CA        16.2990  -35.9220    2.2000 C.3    37  ASP37       0.1674
     20  C         14.7840  -35.7120    2.1560 C.2    37  ASP37       0.2266
     21  O         14.2840  -34.8010    2.8040 O.2    37  ASP37      -0.2867
     22  CB        16.8120  -35.8100    3.6580 C.3    37  ASP37       0.1410
     23  CG        16.2160  -36.8060    4.6430 C.2    37  ASP37       0.3668
     24  OD1       15.6880  -37.8470    4.1960 O.co2  37  ASP37      -0.2456
     25  OD2       16.3780  -36.5980    5.8630 O.co2  37  ASP37      -0.2456
     26  N         12.7980  -37.5590    3.6420 N.3    39  GLY39      -0.1210
     27  CA        12.3530  -38.1630    4.8920 C.3    39  GLY39       0.1956
     28  C         12.3950  -37.2460    6.1000 C.2    39  GLY39       0.2612
     29  O         12.2380  -37.7190    7.2270 O.2    39  GLY39      -0.2717
     30  N         12.6670  -35.9510    5.8950 N.am   40  SER40      -0.1952
     31  CA        12.7100  -34.9840    7.0060 C.3    40  SER40       0.1924
     32  C         12.3760  -33.6160    6.4460 C.2    40  SER40       0.2314
     33  O         12.2610  -33.4640    5.2250 O.2    40  SER40      -0.2863
     34  CB        14.0910  -34.9960    7.6970 C.3    40  SER40       0.2116
     35  OG        15.1050  -34.4520    6.8610 O.3    40  SER40      -0.2180
     36  N         17.3150  -32.3140   17.9960 N.3    74  VAL74      -0.1231
     37  CA        16.7570  -33.3570   17.1070 C.3    74  VAL74       0.1678
     38  C         17.3610  -34.7410   17.3470 C.2    74  VAL74       0.2434
     39  O         18.2230  -35.1890   16.5860 O.2    74  VAL74      -0.2733
     40  CB        16.8510  -32.9310   15.6010 C.3    74  VAL74       0.0265
     41  CG1       16.0850  -33.8970   14.6760 C.3    74  VAL74       0.0020
     42  CG2       16.3720  -31.4950   15.4000 C.3    74  VAL74       0.0020
     43  N         16.8870  -35.4660   18.3720 N.am   75  PRO75      -0.2718
     44  CA        17.3030  -36.8660   18.5080 C.3    75  PRO75       0.1535
     45  C         16.4480  -37.6650   17.5340 C.2    75  PRO75       0.2598
     46  O         15.3090  -37.2980   17.2600 O.2    75  PRO75      -0.2715
     47  CB        16.8970  -37.2270   19.9480 C.3    75  PRO75       0.0310
     48  CG        15.8210  -36.2680   20.3120 C.3    75  PRO75       0.0237
     49  CD        15.8590  -35.0920   19.3760 C.3    75  PRO75       0.0939
     50  N         16.9840  -38.7360   16.9980 N.am   76  TYR76      -0.1974
     51  CA        16.2410  -39.6380   16.1070 C.3    76  TYR76       0.1639
     52  C         16.8040  -41.0420   16.3410 C.2    76  TYR76       0.2290
     53  O         17.7100  -41.2040   17.1610 O.2    76  TYR76      -0.2864
     54  CB        16.2460  -39.1820   14.6300 C.3    76  TYR76       0.0560
     55  CG        17.6400  -39.0280   14.0650 C.ar   76  TYR76      -0.0198
     56  CD1       18.3600  -37.8440   14.2420 C.ar   76  TYR76      -0.0009
     57  CD2       18.2440  -40.0650   13.3560 C.ar   76  TYR76      -0.0009
     58  CE1       19.6710  -37.7230   13.7860 C.ar   76  TYR76       0.0417
     59  CE2       19.5550  -39.9510   12.8890 C.ar   76  TYR76       0.0417
     60  CZ        20.2550  -38.7720   13.0930 C.ar   76  TYR76       0.1957
     61  OH        21.5460  -38.6760   12.6440 O.3    76  TYR76      -0.2866
     62  N         18.7920  -43.3200   14.8840 N.3    78  GLN78      -0.1245
     63  CA        20.1950  -43.6220   14.7180 C.3    78  GLN78       0.1566
     64  C         21.2010  -42.5280   15.0980 C.2    78  GLN78       0.2260
     65  O         22.3810  -42.7200   14.8590 O.2    78  GLN78      -0.2867
     66  CB        20.4630  -44.1990   13.3060 C.3    78  GLN78       0.0367
     67  CG        19.7400  -43.5030   12.1350 C.3    78  GLN78       0.0905
     68  CD        18.2790  -43.8980   12.0130 C.2    78  GLN78       0.2608
     69  OE1       17.3760  -43.1000   12.2790 O.2    78  GLN78      -0.2717
     70  NE2       18.0120  -45.1510   11.6570 N.am   78  GLN78      -0.0878
     71  N         21.2020  -34.4180   16.2410 N.3    81  TRP81      -0.1241
     72  CA        21.8330  -33.1450   15.9130 C.3    81  TRP81       0.1605
     73  C         21.1350  -32.0620   16.7160 C.2    81  TRP81       0.2264
     74  O         19.9530  -32.1960   17.0790 O.2    81  TRP81      -0.2867
     75  CB        21.9450  -32.8270   14.3990 C.3    81  TRP81       0.0550
     76  CG        20.6450  -32.6700   13.6540 C.ar   81  TRP81       0.0003
     77  CD1       20.0130  -33.6190   12.8970 C.ar   81  TRP81       0.0946
     78  CD2       19.8640  -31.4740   13.5330 C.ar   81  TRP81       0.0152
     79  NE1       18.9010  -33.0790   12.2890 N.ar   81  TRP81      -0.2442
     80  CE2       18.8050  -31.7530   12.6350 C.ar   81  TRP81       0.0810
     81  CE3       19.9950  -30.1670   14.0410 C.ar   81  TRP81       0.0012
     82  CZ2       17.8620  -30.7850   12.2650 C.ar   81  TRP81       0.0191
     83  CZ3       19.0580  -29.2100   13.6820 C.ar   81  TRP81       0.0001
     84  CH2       17.9880  -29.5260   12.8290 C.ar   81  TRP81       0.0015
     85  N         26.6770  -39.2940   15.5200 N.3   112  LYS112     -0.1231
     86  CA        26.3620  -40.3150   14.5050 C.3   112  LYS112      0.1693
     87  C         25.5350  -39.7210   13.3740 C.2   112  LYS112      0.2592
     88  O         24.8150  -40.4540   12.6930 O.2   112  LYS112     -0.2718
     89  CB        25.6090  -41.5180   15.1250 C.3   112  LYS112      0.0285
     90  CG        26.4100  -42.2840   16.1910 C.3   112  LYS112      0.0035
     91  CD        25.5470  -43.3680   16.8060 C.3   112  LYS112      0.0206
     92  CE        26.2140  -44.0510   17.9830 C.3   112  LYS112      0.1093
     93  NZ        27.4020  -44.8510   17.5830 N.3   112  LYS112     -0.1314
     94  N         25.6200  -38.4010   13.1900 N.am  113  PHE113     -0.1976
     95  CA        24.8710  -37.6850   12.1490 C.3   113  PHE113      0.1639
     96  C         25.7320  -37.5410   10.9070 C.2   113  PHE113      0.2290
     97  O         25.3740  -38.0540    9.8430 O.2   113  PHE113     -0.2864
     98  CB        24.4080  -36.3070   12.6520 C.3   113  PHE113      0.0560
     99  CG        23.6910  -35.4950   11.5930 C.ar  113  PHE113     -0.0200
    100  CD1       22.4440  -35.8910   11.1150 C.ar  113  PHE113     -0.0042
    101  CD2       24.2940  -34.3670   11.0270 C.ar  113  PHE113     -0.0042
    102  CE1       21.7870  -35.1490   10.1150 C.ar  113  PHE113     -0.0003
    103  CE2       23.6410  -33.6360   10.0250 C.ar  113  PHE113     -0.0003
    104  CZ        22.3920  -34.0270    9.5810 C.ar  113  PHE113     -0.0000
    105  N         28.8590  -38.2990    8.4220 N.3   115  ILE115     -0.1245
    106  CA        29.5000  -39.5530    8.0300 C.3   115  ILE115      0.1561
    107  C         30.9820  -39.3180    7.8170 C.2   115  ILE115      0.2260
    108  O         31.3330  -38.4710    7.0020 O.2   115  ILE115     -0.2867
    109  CB        28.7910  -40.1380    6.7710 C.3   115  ILE115      0.0252
    110  CG1       27.2880  -40.4910    7.0890 C.3   115  ILE115      0.0019
    111  CG2       29.5690  -41.3830    6.2240 C.3   115  ILE115      0.0019
    112  CD1       26.4420  -40.9390    5.8470 C.3   115  ILE115      0.0001
    113  N         29.4770  -34.2790    2.2280 N.3   120  TRP120     -0.1241
    114  CA        28.3820  -33.3550    2.4930 C.3   120  TRP120      0.1605
    115  C         28.4880  -32.8500    3.9070 C.2   120  TRP120      0.2264
    116  O         29.0830  -33.5240    4.7400 O.2   120  TRP120     -0.2867
    117  CB        27.0030  -33.9800    2.1860 C.3   120  TRP120      0.0550
    118  CG        26.6800  -35.2520    2.9120 C.ar  120  TRP120      0.0003
    119  CD1       26.7880  -36.5180    2.4170 C.ar  120  TRP120      0.0946
    120  CD2       26.1380  -35.3850    4.2500 C.ar  120  TRP120      0.0152
    121  NE1       26.3300  -37.4310    3.3460 N.ar  120  TRP120     -0.2442
    122  CE2       25.9370  -36.7680    4.4810 C.ar  120  TRP120      0.0810
    123  CE3       25.7370  -34.4640    5.2460 C.ar  120  TRP120      0.0012
    124  CZ2       25.4160  -37.2660    5.6890 C.ar  120  TRP120      0.0191
    125  CZ3       25.2380  -34.9560    6.4520 C.ar  120  TRP120      0.0001
    126  CH2       25.0560  -36.3410    6.6560 C.ar  120  TRP120      0.0015
    127  N         21.9770  -31.0330    5.5700 N.3   123  ILE123     -0.1245
    128  CA        20.8550  -31.8160    5.0680 C.3   123  ILE123      0.1561
    129  C         19.7280  -30.9150    4.6450 C.2   123  ILE123      0.2260
    130  O         19.4740  -29.9140    5.3160 O.2   123  ILE123     -0.2867
    131  CB        20.4260  -32.8640    6.1120 C.3   123  ILE123      0.0252
    132  CG1       19.3600  -33.8290    5.5320 C.3   123  ILE123      0.0019
    133  CG2       19.9580  -32.1960    7.4270 C.3   123  ILE123      0.0019
    134  CD1       19.3560  -35.1310    6.3500 C.3   123  ILE123      0.0001
    135  N          6.3260  -32.2980   10.2850 N.3   131  ILE131     -0.1245
    136  CA         7.4100  -33.0500   10.9580 C.3   131  ILE131      0.1561
    137  C          8.7080  -32.2650   11.1590 C.2   131  ILE131      0.2260
    138  O          9.7300  -32.8510   11.5300 O.2   131  ILE131     -0.2867
    139  CB         7.6500  -34.4280   10.2790 C.3   131  ILE131      0.0252
    140  CG1        8.1120  -34.2320    8.8130 C.3   131  ILE131      0.0019
    141  CG2        6.4200  -35.3480   10.4360 C.3   131  ILE131      0.0019
    142  CD1        8.6700  -35.4990    8.1030 C.3   131  ILE131      0.0001
    143  N         11.4230  -29.7770   12.9580 N.3   133  ARG133     -0.1245
    144  CA        11.7680  -29.5270   14.3600 C.3   133  ARG133      0.1563
    145  C         12.0980  -28.0450   14.5240 C.2   133  ARG133      0.2260
    146  O         12.7480  -27.5120   13.6320 O.2   133  ARG133     -0.2867
    147  CB        12.9500  -30.3990   14.8080 C.3   133  ARG133      0.0307
    148  CG        12.5410  -31.7700   15.3700 C.3   133  ARG133      0.0489
    149  CD        12.0870  -32.7330   14.2980 C.3   133  ARG133      0.2205
    150  NE        11.8780  -34.0880   14.8120 N.pl3 133  ARG133     -0.0865
    151  CZ        10.8330  -34.8540   14.5110 C.cat 133  ARG133      0.5346
    152  NH1        9.8740  -34.4000   13.7080 N.pl3 133  ARG133      0.1354
    153  NH2       10.7390  -36.0790   15.0040 N.pl3 133  ARG133      0.1354
    154  N          5.2710  -36.7440    6.2260 N.3   194  TYR194     -0.1241
    155  CA         6.2620  -37.4390    5.4070 C.3   194  TYR194      0.1605
    156  C          5.5740  -37.4800    4.0300 C.2   194  TYR194      0.2264
    157  O          4.4110  -37.0810    3.9230 O.2   194  TYR194     -0.2867
    158  CB         6.3860  -38.8840    5.8820 C.3   194  TYR194      0.0534
    159  CG         7.0950  -39.0340    7.2140 C.ar  194  TYR194     -0.0201
    160  CD1        8.4920  -39.0610    7.2880 C.ar  194  TYR194     -0.0009
    161  CD2        6.3750  -39.1140    8.4030 C.ar  194  TYR194     -0.0009
    162  CE1        9.1510  -39.1480    8.5190 C.ar  194  TYR194      0.0417
    163  CE2        7.0230  -39.1720    9.6400 C.ar  194  TYR194      0.0417
    164  CZ         8.4080  -39.2050    9.6910 C.ar  194  TYR194      0.1957
    165  OH         9.0280  -39.3360   10.9100 O.3   194  TYR194     -0.2866
    166  N         11.4430  -42.0900    0.8550 N.3   224  ASP224     -0.1239
    167  CA        12.5670  -41.4780    1.5910 C.3   224  ASP224      0.1674
    168  C         13.9440  -41.5360    0.9140 C.2   224  ASP224      0.2266
    169  O         14.6400  -42.5280    1.0620 O.2   224  ASP224     -0.2867
    170  CB        12.6420  -42.1440    2.9890 C.3   224  ASP224      0.1410
    171  CG        13.5890  -41.4550    3.9350 C.2   224  ASP224      0.3668
    172  OD1       14.1950  -40.4430    3.5230 O.co2 224  ASP224     -0.2456
    173  OD2       13.7730  -41.9670    5.0830 O.co2 224  ASP224     -0.2456
    174  N         16.5980  -40.1920    1.8670 N.3   226  GLY226     -0.1210
    175  CA        17.6420  -40.1860    2.8980 C.3   226  GLY226      0.1956
    176  C         17.9070  -41.5500    3.5340 C.2   226  GLY226      0.2612
    177  O         18.6720  -41.6400    4.4950 O.2   226  GLY226     -0.2717
    178  N         17.2580  -42.6230    3.0350 N.am  227  THR227     -0.1952
    179  CA        17.4260  -44.0090    3.5240 C.3   227  THR227      0.1897
    180  C         17.9260  -44.8640    2.3570 C.2   227  THR227      0.2313
    181  O         17.4280  -44.7300    1.2450 O.2   227  THR227     -0.2863
    182  CB        16.0820  -44.5760    4.0760 C.3   227  THR227      0.1794
    183  OG1       15.7350  -43.8390    5.2290 O.3   227  THR227     -0.2208
    184  CG2       16.1540  -46.0680    4.4720 C.3   227  THR227      0.0378
@<TRIPOS>BOND
     1   166   167    1
     2   168   169    2
     3   168   167    1
     4    12    11    1
     5    12    13    2
     6     1     2    1
     7   181   180    2
     8    18    19    1
     9    11    10    1
    10    11    14    1
    11     8     7    2
    12     3     2    1
    13     3     4    2
    14   167   170    1
    15     5     2    1
    16     5     6    1
    17   174   175    1
    18    20    19    1
    19    20    21    2
    20   117   114    1
    21   117   118    1
    22    19    22    1
    23   113   114    1
    24     7     6    1
    25     7     9   am
    26   180   179    1
    27   119   118   ar
    28   119   121   ar
    29    15    14    1
    30    15    16    1
    31    15    17    1
    32   114   115    1
    33   175   176    1
    34   118   120   ar
    35   170   171    1
    36   178   179    1
    37   178   176   am
    38   121   122   ar
    39   172   171   ar
    40   179   182    1
    41   176   177    2
    42    26    27    1
    43    22    23    1
    44   115   116    2
    45   157   156    2
    46   171   173   ar
    47   156   155    1
    48   182   184    1
    49   182   183    1
    50    24    23   ar
    51   120   122   ar
    52   120   123   ar
    53   122   124   ar
    54    23    25   ar
    55   129   128    1
    56   129   130    2
    57    27    28    1
    58   128   127    1
    59   128   131    1
    60    33    32    2
    61   123   125   ar
    62   155   158    1
    63   155   154    1
    64   132   131    1
    65   132   134    1
    66   124   126   ar
    67   112   110    1
    68   158   159    1
    69    30    28   am
    70    30    31    1
    71    28    29    2
    72   131   133    1
    73   111   109    1
    74    32    31    1
    75   125   126   ar
    76   109   110    1
    77   109   106    1
    78    35    34    1
    79   108   107    2
    80    31    34    1
    81   159   160   ar
    82   159   161   ar
    83   160   162   ar
    84   107   106    1
    85   106   105    1
    86   142   140    1
    87   161   163   ar
    88   162   164   ar
    89   140   139    1
    90   104   103   ar
    91   104   102   ar
    92   163   164   ar
    93   164   165    1
    94    97    96    2
    95   103   101   ar
    96   102   100   ar
    97   139   141    1
    98   139   136    1
    99   135   136    1
   100    96    95    1
   101   136   137    1
   102   101    99   ar
   103   100    99   ar
   104   137   138    2
   105    99    98    1
   106    70    68   am
   107    68    67    1
   108    68    69    2
   109    67    66    1
   110    95    98    1
   111    95    94    1
   112    82    80   ar
   113    82    84   ar
   114    79    80   ar
   115    79    77   ar
   116    80    78   ar
   117    61    60    1
   118    88    87    2
   119    84    83   ar
   120    59    60   ar
   121    59    57   ar
   122    77    76   ar
   123   143   144    1
   124    60    58   ar
   125    94    87   am
   126    66    63    1
   127    57    55   ar
   128    87    86    1
   129    78    76   ar
   130    78    81   ar
   131   146   145    2
   132    76    75    1
   133    83    81   ar
   134   152   151    1
   135    58    56   ar
   136    55    56   ar
   137    55    54    1
   138   149   150    1
   139   149   148    1
   140   144   145    1
   141   144   147    1
   142    75    72    1
   143    86    89    1
   144    86    85    1
   145   151   150    2
   146   151   153    1
   147    54    51    1
   148    41    40    1
   149    63    62    1
   150    63    64    1
   151   147   148    1
   152    65    64    2
   153    89    90    1
   154    42    40    1
   155    40    37    1
   156    72    71    1
   157    72    73    1
   158    51    52    1
   159    51    50    1
   160    90    91    1
   161    52    53    2
   162    39    38    2
   163    73    74    2
   164    91    92    1
   165    50    45   am
   166    37    38    1
   167    37    36    1
   168    46    45    2
   169    38    43   am
   170    45    44    1
   171    93    92    1
   172    43    44    1
   173    43    49    1
   174    44    47    1
   175    49    48    1
   176    47    48    1
