@<TRIPOS>MOLECULE
tmp/4xy2A00.pdb
 180 176 0 0 0
SMALL
GASTEIGER

@<TRIPOS>ATOM
      1  N         18.6460   -7.7580   64.0420 N.3    78  TYR78      -0.1227
      2  CA        17.7250   -6.6350   64.3600 C.3    78  TYR78       0.1736
      3  C         16.1630   -6.9440   64.2780 C.2    78  TYR78       0.2595
      4  O         15.4190   -6.5860   65.1600 O.2    78  TYR78      -0.2718
      5  CB        18.0480   -5.3910   63.5270 C.3    78  TYR78       0.0548
      6  CG        17.0690   -4.2500   63.8280 C.ar   78  TYR78      -0.0200
      7  CD1       17.1550   -3.5080   65.0540 C.ar   78  TYR78      -0.0009
      8  CD2       16.0150   -3.9470   62.9390 C.ar   78  TYR78      -0.0009
      9  CE1       16.2420   -2.4560   65.3270 C.ar   78  TYR78       0.0417
     10  CE2       15.0910   -2.9240   63.2200 C.ar   78  TYR78       0.0417
     11  CZ        15.2140   -2.1660   64.4060 C.ar   78  TYR78       0.1957
     12  OH        14.3010   -1.1270   64.6360 O.3    78  TYR78      -0.2866
     13  N         15.6890   -7.5650   63.2140 N.am   79  HIS79      -0.1975
     14  CA        14.2380   -7.8650   63.0550 C.3    79  HIS79       0.1656
     15  C         13.9050   -9.1830   63.7660 C.2    79  HIS79       0.2291
     16  O         13.5100  -10.1580   63.1440 O.2    79  HIS79      -0.2864
     17  CB        13.8230   -7.8740   61.5720 C.3    79  HIS79       0.0771
     18  CG        13.9810   -6.5480   60.8540 C.ar   79  HIS79       0.0820
     19  ND1       15.0990   -6.2280   60.0970 N.ar   79  HIS79      -0.2267
     20  CD2       13.1370   -5.4870   60.7290 C.ar   79  HIS79       0.1154
     21  CE1       14.9520   -5.0180   59.5820 C.ar   79  HIS79       0.1986
     22  NE2       13.7720   -4.5400   59.9480 N.ar   79  HIS79      -0.2212
     23  N          7.1720    1.1680   55.5680 N.3   177  LEU177     -0.1245
     24  CA         7.5370    2.5780   55.6570 C.3   177  LEU177      0.1561
     25  C          7.2680    3.3090   54.3590 C.2   177  LEU177      0.2260
     26  O          7.0920    4.5120   54.3800 O.2   177  LEU177     -0.2867
     27  CB         8.9890    2.7240   56.0950 C.3   177  LEU177      0.0270
     28  CG         9.6210    4.0470   56.5630 C.3   177  LEU177      0.0019
     29  CD1        9.0360    4.6130   57.8600 C.3   177  LEU177      0.0001
     30  CD2       11.0860    3.6480   56.8270 C.3   177  LEU177      0.0001
     31  N          7.4640    1.4520   65.6100 N.3   216  ASP216     -0.1225
     32  CA         8.3520    0.6470   64.8430 C.3   216  ASP216      0.1805
     33  C          9.7470    1.2700   64.8050 C.2   216  ASP216      0.2597
     34  O         10.7360    0.5570   64.7640 O.2   216  ASP216     -0.2718
     35  CB         7.8160    0.4740   63.4300 C.3   216  ASP216      0.1424
     36  CG         8.5290   -0.6570   62.6730 C.2   216  ASP216      0.3668
     37  OD1        9.0290   -1.5880   63.3400 O.co2 216  ASP216     -0.2456
     38  OD2        8.5710   -0.6080   61.4180 O.co2 216  ASP216     -0.2456
     39  N          9.7950    2.5970   64.7800 N.am  217  LEU217     -0.1979
     40  CA        11.0680    3.3520   64.8050 C.3   217  LEU217      0.1596
     41  C         11.6020    3.7780   66.1750 C.2   217  LEU217      0.2287
     42  O         12.5470    4.5440   66.2440 O.2   217  LEU217     -0.2864
     43  CB        10.9050    4.5970   63.9200 C.3   217  LEU217      0.0297
     44  CG        10.5110    4.3740   62.4630 C.3   217  LEU217      0.0022
     45  CD1       10.4910    5.7350   61.8150 C.3   217  LEU217      0.0001
     46  CD2       11.4120    3.4240   61.7030 C.3   217  LEU217      0.0001
     47  N         13.5500    2.9080   68.5460 N.3   219  SER219     -0.1202
     48  CA        14.9100    2.7650   69.0560 C.3   219  SER219      0.2020
     49  C         15.6770    4.0890   68.9360 C.2   219  SER219      0.2618
     50  O         16.6660    4.2910   69.6740 O.2   219  SER219     -0.2717
     51  CB        15.6880    1.6760   68.2920 C.3   219  SER219      0.2103
     52  OG        15.2200    0.3650   68.5810 O.3   219  SER219     -0.2182
     53  N         15.2180    4.9740   68.0310 N.am  220  VAL220     -0.1979
     54  CA        15.6910    6.3760   67.9390 C.3   220  VAL220      0.1595
     55  C         15.1850    7.3050   69.0440 C.2   220  VAL220      0.2287
     56  O         15.4560    8.5380   69.0170 O.2   220  VAL220     -0.2864
     57  CB        15.5430    7.0600   66.5300 C.3   220  VAL220      0.0276
     58  CG1       16.1660    6.1640   65.4220 C.3   220  VAL220      0.0022
     59  CG2       14.0750    7.4040   66.1780 C.3   220  VAL220      0.0022
     60  N         21.7180   -0.2340   69.4500 N.3   230  THR230     -0.1203
     61  CA        20.7340   -0.7070   68.4930 C.3   230  THR230      0.1994
     62  C         21.1820   -0.3930   67.0660 C.2   230  THR230      0.2617
     63  O         21.0000   -1.2220   66.1360 O.2   230  THR230     -0.2717
     64  CB        19.3430   -0.0750   68.7960 C.3   230  THR230      0.1784
     65  OG1       18.9220   -0.5380   70.0820 O.3   230  THR230     -0.2211
     66  CG2       18.3110   -0.4960   67.7620 C.3   230  THR230      0.0376
     67  N         21.7930    0.7750   66.8680 N.am  231  ALA231     -0.1979
     68  CA        22.1910    1.1190   65.4780 C.3   231  ALA231      0.1597
     69  C         23.2110    0.0770   64.9850 C.2   231  ALA231      0.2287
     70  O         23.1650   -0.3200   63.8200 O.2   231  ALA231     -0.2864
     71  CB        22.7240    2.5190   65.3540 C.3   231  ALA231      0.0319
     72  N         21.2010   -2.9350   63.5800 N.3   234  ILE234     -0.1231
     73  CA        20.6460   -2.5860   62.2700 C.3   234  ILE234      0.1692
     74  C         21.6980   -2.7360   61.1650 C.2   234  ILE234      0.2592
     75  O         21.4100   -3.2970   60.0860 O.2   234  ILE234     -0.2718
     76  CB        20.0410   -1.1450   62.2590 C.3   234  ILE234      0.0266
     77  CG1       18.7030   -1.1740   62.9660 C.3   234  ILE234      0.0019
     78  CG2       19.8180   -0.6420   60.8200 C.3   234  ILE234      0.0020
     79  CD1       18.2550    0.1500   63.5270 C.3   234  ILE234      0.0001
     80  N         22.9230   -2.2670   61.4480 N.am  235  TYR235     -0.1976
     81  CA        24.0610   -2.4000   60.5060 C.3   235  TYR235      0.1639
     82  C         24.6190   -3.8250   60.2990 C.2   235  TYR235      0.2290
     83  O         24.9970   -4.1960   59.1580 O.2   235  TYR235     -0.2864
     84  CB        25.2110   -1.3760   60.8080 C.3   235  TYR235      0.0560
     85  CG        24.8590    0.0600   60.4000 C.ar  235  TYR235     -0.0198
     86  CD1       24.6770    0.4160   59.0530 C.ar  235  TYR235     -0.0009
     87  CD2       24.7200    1.0620   61.3590 C.ar  235  TYR235     -0.0009
     88  CE1       24.3100    1.7130   58.6970 C.ar  235  TYR235      0.0417
     89  CE2       24.3790    2.3540   61.0040 C.ar  235  TYR235      0.0417
     90  CZ        24.1880    2.6750   59.6860 C.ar  235  TYR235      0.1957
     91  OH        23.8160    3.9620   59.3990 O.3   235  TYR235     -0.2866
     92  N         22.2990   -5.0060   57.8250 N.3   238  PHE238     -0.1227
     93  CA        22.3430   -4.3320   56.5010 C.3   238  PHE238      0.1736
     94  C         23.6470   -4.7700   55.7890 C.2   238  PHE238      0.2595
     95  O         23.6680   -5.0500   54.6270 O.2   238  PHE238     -0.2718
     96  CB        22.3170   -2.7900   56.6220 C.3   238  PHE238      0.0547
     97  CG        20.9380   -2.1820   56.8840 C.ar  238  PHE238     -0.0202
     98  CD1       19.7740   -2.9590   56.9060 C.ar  238  PHE238     -0.0042
     99  CD2       20.8080   -0.7870   57.0360 C.ar  238  PHE238     -0.0042
    100  CE1       18.5300   -2.3590   57.0930 C.ar  238  PHE238     -0.0003
    101  CE2       19.5580   -0.1890   57.2100 C.ar  238  PHE238     -0.0003
    102  CZ        18.4270   -0.9740   57.2410 C.ar  238  PHE238     -0.0000
    103  N         24.7250   -4.8030   56.5270 N.am  239  TRP239     -0.1976
    104  CA        26.0100   -5.1370   55.9630 C.3   239  TRP239      0.1640
    105  C         26.0790   -6.6120   55.5730 C.2   239  TRP239      0.2290
    106  O         26.6860   -6.9550   54.5480 O.2   239  TRP239     -0.2864
    107  CB        27.1130   -4.7030   56.9220 C.3   239  TRP239      0.0576
    108  CG        27.2210   -3.1900   56.9990 C.ar  239  TRP239      0.0006
    109  CD1       26.7760   -2.2830   56.0700 C.ar  239  TRP239      0.0946
    110  CD2       27.8180   -2.4270   58.0360 C.ar  239  TRP239      0.0152
    111  NE1       27.0520   -1.0150   56.4710 N.ar  239  TRP239     -0.2442
    112  CE2       27.7070   -1.0730   57.6720 C.ar  239  TRP239      0.0810
    113  CE3       28.4570   -2.7640   59.2480 C.ar  239  TRP239      0.0012
    114  CZ2       28.1820   -0.0460   58.4680 C.ar  239  TRP239      0.0191
    115  CZ3       28.9220   -1.7590   60.0380 C.ar  239  TRP239      0.0001
    116  CH2       28.7740   -0.3920   59.6500 C.ar  239  TRP239      0.0015
    117  N         25.2160    2.3950   49.2060 N.3   254  PRO254     -0.2102
    118  CA        26.0110    2.8080   50.3680 C.3   254  PRO254      0.1504
    119  C         25.5690    2.3240   51.7750 C.2   254  PRO254      0.2575
    120  O         26.4100    1.8770   52.5470 O.2   254  PRO254     -0.2718
    121  CB        25.9840    4.3300   50.2580 C.3   254  PRO254      0.0282
    122  CG        26.1080    4.5210   48.7580 C.3   254  PRO254      0.0208
    123  CD        25.2230    3.4530   48.1670 C.3   254  PRO254      0.0893
    124  N         24.2750    2.3890   52.0790 N.am  255  MET255     -0.1980
    125  CA        23.7710    2.0100   53.4150 C.3   255  MET255      0.1605
    126  C         24.0080    0.5410   53.7950 C.2   255  MET255      0.2287
    127  O         24.1280    0.2080   54.9830 O.2   255  MET255     -0.2864
    128  CB        22.3030    2.4390   53.5540 C.3   255  MET255      0.0413
    129  CG        21.2390    1.3600   53.6060 C.3   255  MET255      0.0598
    130  SD        19.6740    2.2320   53.9040 S.3   255  MET255     -0.1393
    131  CE        18.5030    1.0070   53.4120 C.3   255  MET255      0.0692
    132  N         31.5860    1.6270   53.4400 N.3   260  LYS260     -0.1245
    133  CA        31.1310    3.0030   53.6010 C.3   260  LYS260      0.1561
    134  C         30.8030    3.3810   55.0420 C.2   260  LYS260      0.2260
    135  O         29.9930    4.2810   55.2600 O.2   260  LYS260     -0.2867
    136  CB        29.9390    3.2970   52.6840 C.3   260  LYS260      0.0271
    137  CG        30.0940    2.7380   51.2780 C.3   260  LYS260      0.0035
    138  CD        30.8360    3.6450   50.3400 C.3   260  LYS260      0.0206
    139  CE        29.9090    3.8290   49.1460 C.3   260  LYS260      0.1093
    140  NZ        30.6270    4.2990   47.9520 N.3   260  LYS260     -0.1314
    141  N         30.4800    7.0480   56.5820 N.3   263  GLU263     -0.1231
    142  CA        29.3810    7.8670   56.1530 C.3   263  GLU263      0.1699
    143  C         28.1100    7.4850   56.9140 C.2   263  GLU263      0.2592
    144  O         27.0430    8.0220   56.6530 O.2   263  GLU263     -0.2718
    145  CB        29.1930    7.7250   54.6310 C.3   263  GLU263      0.0402
    146  CG        30.4380    8.1020   53.8360 C.3   263  GLU263      0.1161
    147  CD        30.4460    7.5000   52.4390 C.2   263  GLU263      0.3649
    148  OE1       29.3620    7.3240   51.8220 O.co2 263  GLU263     -0.2457
    149  OE2       31.5500    7.1810   51.9580 O.co2 263  GLU263     -0.2457
    150  N         28.2310    6.5150   57.8250 N.am  264  VAL264     -0.1980
    151  CA        27.2120    6.2550   58.8350 C.3   264  VAL264      0.1595
    152  C         26.5910    7.5320   59.5090 C.2   264  VAL264      0.2287
    153  O         25.4050    7.7280   59.4490 O.2   264  VAL264     -0.2864
    154  CB        27.7020    5.2030   59.8660 C.3   264  VAL264      0.0276
    155  CG1       26.9130    5.2200   61.1970 C.3   264  VAL264      0.0022
    156  CG2       27.6570    3.8290   59.2520 C.3   264  VAL264      0.0022
    157  N         24.4690    9.5020   57.1860 N.3   267  GLY267     -0.1210
    158  CA        23.2560    8.7250   56.8360 C.3   267  GLY267      0.1956
    159  C         22.1960    8.8280   57.9340 C.2   267  GLY267      0.2608
    160  O         21.0290    9.1590   57.6820 O.2   267  GLY267     -0.2717
    161  N         22.6260    8.5880   59.1690 N.am  268  GLN268     -0.2032
    162  CA        21.7210    8.6730   60.3200 C.3   268  GLN268      0.1287
    163  C         21.0510   10.0520   60.4050 C.3   268  GLN268      0.2036
    164  O         19.7750   10.1800   60.5110 O.3   268  GLN268     -0.2185
    165  CB        22.5040    8.3430   61.6000 C.3   268  GLN268      0.0340
    166  CG        22.9910    6.8880   61.7140 C.3   268  GLN268      0.0904
    167  CD        21.8660    5.9250   62.0330 C.2   268  GLN268      0.2608
    168  OE1       20.9030    6.2980   62.7070 O.2   268  GLN268     -0.2717
    169  NE2       21.9600    4.6790   61.5250 N.am  268  GLN268     -0.0878
    170  N         18.2010   10.5980   57.8050 N.3   271  PHE271     -0.1241
    171  CA        17.0280    9.7680   58.1880 C.3   271  PHE271      0.1605
    172  C         16.2320   10.3950   59.3220 C.2   271  PHE271      0.2264
    173  O         14.9680   10.4480   59.3220 O.2   271  PHE271     -0.2867
    174  CB        17.5140    8.3810   58.6050 C.3   271  PHE271      0.0534
    175  CG        16.4020    7.4740   59.1190 C.ar  271  PHE271     -0.0203
    176  CD1       15.6380    6.7260   58.2280 C.ar  271  PHE271     -0.0042
    177  CD2       16.1020    7.4080   60.4940 C.ar  271  PHE271     -0.0042
    178  CE1       14.6260    5.8930   58.6920 C.ar  271  PHE271     -0.0003
    179  CE2       15.0900    6.5850   60.9670 C.ar  271  PHE271     -0.0003
    180  CZ        14.3710    5.8140   60.0620 C.ar  271  PHE271     -0.0000
@<TRIPOS>BOND
     1   140   139    1
     2   123   122    1
     3   123   117    1
     4   122   121    1
     5   139   138    1
     6   117   118    1
     7   121   118    1
     8   138   137    1
     9   118   119    1
    10   137   136    1
    11   119   124   am
    12   119   120    2
    13   148   147   ar
    14   149   147   ar
    15   124   125    1
    16   147   146    1
    17   136   133    1
    18   131   130    1
    19   125   128    1
    20   125   126    1
    21   132   133    1
    22   128   129    1
    23   133   134    1
    24   129   130    1
    25   126   127    2
    26   146   145    1
    27    25    26    2
    28    25    24    1
    29   106   105    2
    30    95    94    2
    31   145   142    1
    32   134   135    2
    33    23    24    1
    34   105   104    1
    35    24    27    1
    36    94    93    1
    37    94   103   am
    38   104   103    1
    39   104   107    1
    40   109   111   ar
    41   109   108   ar
    42    27    28    1
    43   142   141    1
    44   142   143    1
    45   111   112   ar
    46    93    96    1
    47    93    92    1
    48    28    30    1
    49    28    29    1
    50    96    97    1
    51   144   143    2
    52   158   157    1
    53   158   159    1
    54    97    98   ar
    55    97    99   ar
    56    98   100   ar
    57   143   150   am
    58   107   108    1
    59   108   110   ar
    60    99   101   ar
    61   100   102   ar
    62   101   102   ar
    63   112   110   ar
    64   112   114   ar
    65   160   159    2
    66   170   171    1
    67   150   151    1
    68   159   161   am
    69   110   113   ar
    70   171   174    1
    71   171   172    1
    72   176   178   ar
    73   176   175   ar
    74   114   116   ar
    75   174   175    1
    76   178   180   ar
    77    88    86   ar
    78    88    90   ar
    79   151   152    1
    80   151   154    1
    81    86    85   ar
    82   175   177   ar
    83    83    82    2
    84   161   162    1
    85   113   115   ar
    86   156   154    1
    87   172   173    2
    88    91    90    1
    89   153   152    2
    90    21    22   ar
    91    21    19   ar
    92   116   115   ar
    93    90    89   ar
    94   154   155    1
    95    22    20   ar
    96   180   179   ar
    97    75    74    2
    98    19    18   ar
    99    82    81    1
   100   162   163    1
   101   162   165    1
   102    85    84    1
   103    85    87   ar
   104   163   164    1
   105   177   179   ar
   106    81    84    1
   107    81    80    1
   108    20    18   ar
   109    78    76    1
   110    18    17    1
   111    89    87   ar
   112    74    80   am
   113    74    73    1
   114    38    36   ar
   115   169   167   am
   116    17    14    1
   117   165   166    1
   118    46    44    1
   119   166   167    1
   120    45    44    1
   121   167   168    2
   122    76    73    1
   123    76    77    1
   124    73    72    1
   125    44    43    1
   126    36    37   ar
   127    36    35    1
   128     8    10   ar
   129     8     6   ar
   130    77    79    1
   131    14    13    1
   132    14    15    1
   133    16    15    2
   134    13     3   am
   135    10    11   ar
   136    35    32    1
   137     5     6    1
   138     5     2    1
   139    70    69    2
   140     6     7   ar
   141    43    40    1
   142     1     2    1
   143     3     2    1
   144     3     4    2
   145    11    12    1
   146    11     9   ar
   147    34    33    2
   148    39    40    1
   149    39    33   am
   150    40    41    1
   151    33    32    1
   152    32    31    1
   153    69    68    1
   154     7     9   ar
   155    71    68    1
   156    58    57    1
   157    68    67    1
   158    63    62    2
   159    41    42    2
   160    59    57    1
   161    57    54    1
   162    67    62   am
   163    62    61    1
   164    66    64    1
   165    54    53    1
   166    54    55    1
   167    53    49   am
   168    51    52    1
   169    51    48    1
   170    61    64    1
   171    61    60    1
   172    47    48    1
   173    64    65    1
   174    49    48    1
   175    49    50    2
   176    56    55    2
