@<TRIPOS>MOLECULE
tmp/4xy8A00.pdb
 106 104 0 0 0
SMALL
GASTEIGER

@<TRIPOS>ATOM
      1  N         26.4370   27.4020  -16.6380 N.3    22  GLY22      -0.1210
      2  CA        25.6460   27.3780  -15.3980 C.3    22  GLY22       0.1956
      3  C         24.2080   26.9030  -15.5650 C.2    22  GLY22       0.2612
      4  O         23.3220   27.2610  -14.7770 O.2    22  GLY22      -0.2717
      5  N         23.9550   26.0850  -16.5770 N.am   23  PHE23      -0.1962
      6  CA        22.6050   25.5020  -16.7960 C.3    23  PHE23       0.1771
      7  C         22.2280   24.5110  -15.6890 C.2    23  PHE23       0.2619
      8  O         21.0620   24.2680  -15.4560 O.2    23  PHE23      -0.2715
      9  CB        22.4990   24.8510  -18.1930 C.3    23  PHE23       0.0574
     10  CG        22.5760   25.8310  -19.3130 C.ar   23  PHE23      -0.0200
     11  CD1       21.6700   26.8700  -19.4080 C.ar   23  PHE23      -0.0042
     12  CD2       23.5740   25.6910  -20.3030 C.ar   23  PHE23      -0.0042
     13  CE1       21.7410   27.7970  -20.4450 C.ar   23  PHE23      -0.0003
     14  CE2       23.6340   26.6190  -21.3410 C.ar   23  PHE23      -0.0003
     15  CZ        22.7240   27.6680  -21.4000 C.ar   23  PHE23      -0.0000
     16  N         23.2160   23.9310  -15.0100 N.am   24  PHE24      -0.1974
     17  CA        23.0020   22.9450  -13.9400 C.3    24  PHE24       0.1639
     18  C         23.3120   23.4950  -12.5670 C.2    24  PHE24       0.2290
     19  O         23.3740   22.7420  -11.5850 O.2    24  PHE24      -0.2864
     20  CB        23.8150   21.6470  -14.2580 C.3    24  PHE24       0.0560
     21  CG        23.2580   20.8750  -15.4330 C.ar   24  PHE24      -0.0200
     22  CD1       22.3490   19.8440  -15.2240 C.ar   24  PHE24      -0.0042
     23  CD2       23.6150   21.1840  -16.7330 C.ar   24  PHE24      -0.0042
     24  CE1       21.7980   19.1790  -16.3010 C.ar   24  PHE24      -0.0003
     25  CE2       23.0470   20.5240  -17.8320 C.ar   24  PHE24      -0.0003
     26  CZ        22.1430   19.5230  -17.6040 C.ar   24  PHE24      -0.0000
     27  N         21.5780   25.7140  -10.6070 N.3    26  PHE26      -0.1241
     28  CA        20.4350   25.9860   -9.7290 C.3    26  PHE26       0.1605
     29  C         19.2150   25.2320  -10.2710 C.2    26  PHE26       0.2264
     30  O         19.2600   24.7660  -11.4410 O.2    26  PHE26      -0.2867
     31  CB        20.1760   27.4800   -9.6680 C.3    26  PHE26       0.0534
     32  CG        19.8140   28.1220  -10.9660 C.ar   26  PHE26      -0.0203
     33  CD1       20.8060   28.4610  -11.8790 C.ar   26  PHE26      -0.0042
     34  CD2       18.4890   28.4200  -11.2620 C.ar   26  PHE26      -0.0042
     35  CE1       20.4640   29.0770  -13.0840 C.ar   26  PHE26      -0.0003
     36  CE2       18.1570   29.0370  -12.4680 C.ar   26  PHE26      -0.0003
     37  CZ        19.1630   29.3770  -13.3540 C.ar   26  PHE26      -0.0000
     38  N         15.9190   23.9970  -12.0300 N.3    28  VAL28      -0.1245
     39  CA        15.1440   24.3600  -13.2360 C.3    28  VAL28       0.1561
     40  C         13.7300   24.7480  -12.8190 C.2    28  VAL28       0.2260
     41  O         13.0520   23.9600  -12.1300 O.2    28  VAL28      -0.2867
     42  CB        15.0160   23.1600  -14.1740 C.3    28  VAL28       0.0252
     43  CG1       14.2590   23.5470  -15.4290 C.3    28  VAL28       0.0019
     44  CG2       16.3830   22.6080  -14.5350 C.3    28  VAL28       0.0019
     45  N         11.3740   28.7360  -16.6890 N.3    32  ILE32      -0.1231
     46  CA        12.5000   28.4310  -17.6080 C.3    32  ILE32       0.1692
     47  C         12.1660   27.2740  -18.5550 C.2    32  ILE32       0.2591
     48  O         12.4900   27.3290  -19.7590 O.2    32  ILE32      -0.2718
     49  CB        13.7630   28.1170  -16.7870 C.3    32  ILE32       0.0266
     50  CG1       14.2780   29.4070  -16.1420 C.3    32  ILE32       0.0019
     51  CG2       14.8380   27.4630  -17.6470 C.3    32  ILE32       0.0020
     52  CD1       15.2700   29.1670  -15.0090 C.3    32  ILE32       0.0001
     53  N         11.5140   26.2330  -18.0370 N.am   33  ALA33      -0.1980
     54  CA        11.2550   24.9700  -18.7050 C.3    33  ALA33       0.1597
     55  C          9.7710   24.5810  -18.4940 C.2    33  ALA33       0.2287
     56  O          9.4400   23.9410  -17.5020 O.2    33  ALA33      -0.2864
     57  CB        12.1570   23.8880  -18.1410 C.3    33  ALA33       0.0319
     58  N          8.0060   21.4950  -16.5330 N.3    36  TYR36      -0.1241
     59  CA         9.0540   20.6570  -15.9160 C.3    36  TYR36       0.1605
     60  C          8.5730   19.9100  -14.6420 C.2    36  TYR36       0.2264
     61  O          8.8140   18.7240  -14.5030 O.2    36  TYR36      -0.2867
     62  CB        10.2650   21.5470  -15.5930 C.3    36  TYR36       0.0534
     63  CG        11.5530   20.7990  -15.2530 C.ar   36  TYR36      -0.0201
     64  CD1       12.4140   20.4180  -16.2730 C.ar   36  TYR36      -0.0009
     65  CD2       11.8970   20.5160  -13.9180 C.ar   36  TYR36      -0.0009
     66  CE1       13.5820   19.7140  -16.0100 C.ar   36  TYR36       0.0417
     67  CE2       13.0690   19.8260  -13.6050 C.ar   36  TYR36       0.0417
     68  CZ        13.9090   19.4170  -14.6740 C.ar   36  TYR36       0.1957
     69  OH        15.0700   18.7360  -14.3540 O.3    36  TYR36      -0.2866
     70  N         17.5700   15.7590  -16.7990 N.3    75  ALA75      -0.1245
     71  CA        17.8170   16.5480  -18.0180 C.3    75  ALA75       0.1562
     72  C         17.5920   15.7270  -19.3090 C.2    75  ALA75       0.2260
     73  O         17.0910   16.2570  -20.3050 O.2    75  ALA75      -0.2867
     74  CB        19.2090   17.1610  -18.0140 C.3    75  ALA75       0.0290
     75  N         13.4580   15.1070  -19.5690 N.3    78  TYR78      -0.1227
     76  CA        12.6620   16.2450  -19.9680 C.3    78  TYR78       0.1736
     77  C         13.0100   16.7240  -21.3860 C.2    78  TYR78       0.2595
     78  O         12.1230   17.1910  -22.1210 O.2    78  TYR78      -0.2718
     79  CB        12.8080   17.3870  -18.9370 C.3    78  TYR78       0.0548
     80  CG        12.0690   18.6470  -19.3310 C.ar   78  TYR78      -0.0200
     81  CD1       10.6920   18.7850  -19.1100 C.ar   78  TYR78      -0.0009
     82  CD2       12.7260   19.7110  -19.9820 C.ar   78  TYR78      -0.0009
     83  CE1       10.0300   19.9450  -19.4610 C.ar   78  TYR78       0.0417
     84  CE2       12.0600   20.8250  -20.3630 C.ar   78  TYR78       0.0417
     85  CZ        10.7150   20.9680  -20.0830 C.ar   78  TYR78       0.1957
     86  OH        10.0850   22.1370  -20.4960 O.3    78  TYR78      -0.2866
     87  N         14.3040   16.7420  -21.7040 N.am   79  ASN79      -0.1974
     88  CA        14.7810   17.3170  -22.9570 C.3    79  ASN79       0.1688
     89  C         15.0320   16.2250  -23.9940 C.2    79  ASN79       0.2292
     90  O         15.6010   15.1530  -23.6660 O.2    79  ASN79      -0.2864
     91  CB        16.0890   18.0830  -22.7500 C.3    79  ASN79       0.1181
     92  CG        15.9250   19.2740  -21.8430 C.2    79  ASN79       0.2629
     93  OD1       15.3310   20.3040  -22.2100 O.2    79  ASN79      -0.2716
     94  ND2       16.4290   19.1480  -20.6320 N.am   79  ASN79      -0.0877
     95  N         20.6100   20.9030  -23.7120 N.3    85  TYR85      -0.1241
     96  CA        20.5570   20.4350  -22.3370 C.3    85  TYR85       0.1605
     97  C         20.7730   18.9510  -22.2180 C.2    85  TYR85       0.2264
     98  O         21.4450   18.4840  -21.3260 O.2    85  TYR85      -0.2867
     99  CB        19.2770   20.9330  -21.6290 C.3    85  TYR85       0.0534
    100  CG        18.9970   22.3930  -21.9560 C.ar   85  TYR85      -0.0201
    101  CD1       19.7820   23.4090  -21.4490 C.ar   85  TYR85      -0.0009
    102  CD2       17.9780   22.7350  -22.8210 C.ar   85  TYR85      -0.0009
    103  CE1       19.5620   24.7030  -21.8060 C.ar   85  TYR85       0.0417
    104  CE2       17.7770   24.0410  -23.2210 C.ar   85  TYR85       0.0417
    105  CZ        18.6000   25.0180  -22.6930 C.ar   85  TYR85       0.1957
    106  OH        18.4930   26.3440  -22.9840 O.3    85  TYR85      -0.2866
@<TRIPOS>BOND
     1    89    90    2
     2    89    88    1
     3    95    96    1
     4   104   102   ar
     5   104   105   ar
     6   106   105    1
     7    88    91    1
     8    88    87    1
     9   102   100   ar
    10    91    92    1
    11   105   103   ar
    12    96    97    1
    13    96    99    1
    14    97    98    2
    15    93    92    2
    16    78    77    2
    17   100    99    1
    18   100   101   ar
    19    92    94   am
    20   103   101   ar
    21    87    77   am
    22    15    14   ar
    23    15    13   ar
    24    77    76    1
    25    14    12   ar
    26    86    85    1
    27    13    11   ar
    28    84    85   ar
    29    84    82   ar
    30    73    72    2
    31    12    10   ar
    32    85    83   ar
    33    82    80   ar
    34    76    75    1
    35    76    79    1
    36    48    47    2
    37    83    81   ar
    38    11    10   ar
    39    80    81   ar
    40    80    79    1
    41    10     9    1
    42    72    71    1
    43    54    55    1
    44    54    57    1
    45    54    53    1
    46    47    53   am
    47    47    46    1
    48    55    56    2
    49     9     6    1
    50    71    74    1
    51    71    70    1
    52    25    26   ar
    53    25    23   ar
    54    51    49    1
    55    46    49    1
    56    46    45    1
    57    26    24   ar
    58     6     5    1
    59     6     7    1
    60    49    50    1
    61    23    21   ar
    62     1     2    1
    63     5     3   am
    64    58    59    1
    65    24    22   ar
    66    64    66   ar
    67    64    63   ar
    68    50    52    1
    69    66    68   ar
    70    59    62    1
    71    59    60    1
    72     7     8    2
    73     7    16   am
    74    62    63    1
    75     3     2    1
    76     3     4    2
    77    21    22   ar
    78    21    20    1
    79    43    42    1
    80    63    65   ar
    81    16    17    1
    82    68    69    1
    83    68    67   ar
    84    60    61    2
    85    44    42    1
    86    20    17    1
    87    42    39    1
    88    17    18    1
    89    65    67   ar
    90    37    35   ar
    91    37    36   ar
    92    39    40    1
    93    39    38    1
    94    35    33   ar
    95    40    41    2
    96    18    19    2
    97    36    34   ar
    98    33    32   ar
    99    30    29    2
   100    34    32   ar
   101    32    31    1
   102    27    28    1
   103    29    28    1
   104    28    31    1
