@<TRIPOS>MOLECULE
tmp/4xy9A00.pdb
 134 133 0 0 0
SMALL
GASTEIGER

@<TRIPOS>ATOM
      1  N         22.0410   22.0180    1.3810 N.3    40  TRP40      -0.1228
      2  CA        21.7520   20.6680    1.8740 C.3    40  TRP40       0.1722
      3  C         22.9870   19.7700    2.0900 C.2    40  TRP40       0.2437
      4  O         23.0450   19.0710    3.1030 O.2    40  TRP40      -0.2733
      5  CB        20.6170   19.9710    1.0390 C.3    40  TRP40       0.0563
      6  CG        20.9600   19.6540   -0.4180 C.ar   40  TRP40       0.0003
      7  CD1       20.6710   20.4310   -1.4950 C.ar   40  TRP40       0.0946
      8  CD2       21.7210   18.5330   -0.9320 C.ar   40  TRP40       0.0152
      9  NE1       21.1680   19.8800   -2.6360 N.ar   40  TRP40      -0.2442
     10  CE2       21.8140   18.7070   -2.3300 C.ar   40  TRP40       0.0810
     11  CE3       22.3100   17.3960   -0.3510 C.ar   40  TRP40       0.0012
     12  CZ2       22.4830   17.8080   -3.1510 C.ar   40  TRP40       0.0191
     13  CZ3       22.9540   16.5140   -1.1620 C.ar   40  TRP40       0.0001
     14  CH2       23.0530   16.7240   -2.5430 C.ar   40  TRP40       0.0015
     15  N         24.0180   19.8420    1.2250 N.am   41  PRO41      -0.2718
     16  CA        25.1950   19.0080    1.5240 C.3    41  PRO41       0.1535
     17  C         26.0530   19.4730    2.7060 C.2    41  PRO41       0.2598
     18  O         27.0180   18.7650    3.0710 O.2    41  PRO41      -0.2715
     19  CB        26.0600   19.1250    0.2500 C.3    41  PRO41       0.0310
     20  CG        25.1540   19.6810   -0.7740 C.3    41  PRO41       0.0237
     21  CD        24.2230   20.5650   -0.0500 C.3    41  PRO41       0.0939
     22  N         25.7170   20.6220    3.2830 N.am   42  PHE42      -0.1974
     23  CA        26.4980   21.2490    4.3250 C.3    42  PHE42       0.1639
     24  C         25.7360   21.2950    5.6410 C.2    42  PHE42       0.2290
     25  O         26.1850   21.8900    6.6250 O.2    42  PHE42      -0.2864
     26  CB        26.9220   22.6610    3.8700 C.3    42  PHE42       0.0560
     27  CG        27.7000   22.6510    2.5830 C.ar   42  PHE42      -0.0200
     28  CD1       29.0710   22.3240    2.5670 C.ar   42  PHE42      -0.0042
     29  CD2       27.0530   22.8740    1.3800 C.ar   42  PHE42      -0.0042
     30  CE1       29.7630   22.2600    1.3590 C.ar   42  PHE42      -0.0003
     31  CE2       27.7340   22.8090    0.1980 C.ar   42  PHE42      -0.0003
     32  CZ        29.0890   22.4920    0.1630 C.ar   42  PHE42      -0.0000
     33  N         24.8030   18.7400    7.6120 N.3    44  GLN44      -0.1231
     34  CA        25.2140   17.7320    8.5580 C.3    44  GLN44       0.1683
     35  C         26.6400   17.3040    8.2530 C.2    44  GLN44       0.2434
     36  O         27.1200   17.5460    7.1230 O.2    44  GLN44      -0.2733
     37  CB        24.2730   16.4900    8.4750 C.3    44  GLN44       0.0380
     38  CG        24.1980   15.8680    7.0800 C.3    44  GLN44       0.0905
     39  CD        23.3980   16.7500    6.0930 C.2    44  GLN44       0.2608
     40  OE1       22.2220   17.0270    6.3490 O.2    44  GLN44      -0.2717
     41  NE2       24.0550   17.2340    4.9750 N.am   44  GLN44      -0.0878
     42  N         27.3040   16.6240    9.2240 N.am   45  PRO45      -0.2718
     43  CA        28.5990   16.0300    8.9950 C.3    45  PRO45       0.1535
     44  C         28.5970   15.0760    7.8140 C.2    45  PRO45       0.2598
     45  O         27.6090   14.3930    7.5280 O.2    45  PRO45      -0.2715
     46  CB        28.8920   15.2910   10.3100 C.3    45  PRO45       0.0310
     47  CG        28.1450   16.0870   11.3170 C.3    45  PRO45       0.0237
     48  CD        26.8670   16.3910   10.6050 C.3    45  PRO45       0.0939
     49  N         29.6800   15.1310    7.0570 N.am   46  VAL46      -0.1964
     50  CA        29.8690   14.2060    5.9500 C.3    46  VAL46       0.1727
     51  C         29.7830   12.7850    6.4990 C.2    46  VAL46       0.2616
     52  O         30.5170   12.3890    7.4050 O.2    46  VAL46      -0.2715
     53  CB        31.1830   14.4850    5.2080 C.3    46  VAL46       0.0290
     54  CG1       31.4880   13.3890    4.2030 C.3    46  VAL46       0.0023
     55  CG2       31.1450   15.8520    4.5190 C.3    46  VAL46       0.0023
     56  N         28.8360   12.0210    5.9630 N.am   47  ASP47      -0.1971
     57  CA        28.8020   10.5770    6.2460 C.3    47  ASP47       0.1709
     58  C         29.5590    9.8400    5.1670 C.2    47  ASP47       0.2293
     59  O         28.9910    9.4920    4.0950 O.2    47  ASP47      -0.2864
     60  CB        27.3510   10.0950    6.2950 C.3    47  ASP47       0.1436
     61  CG        27.2230    8.6330    6.6690 C.2    47  ASP47       0.3671
     62  OD1       28.2210    7.8690    6.6130 O.co2  47  ASP47      -0.2456
     63  OD2       26.0680    8.2570    7.0290 O.co2  47  ASP47      -0.2456
     64  N         27.9750    6.2620    4.1630 N.3    50  LYS50      -0.1231
     65  CA        26.8310    6.3430    3.2630 C.3    50  LYS50       0.1693
     66  C         27.1870    6.8910    1.8880 C.2    50  LYS50       0.2591
     67  O         26.6680    6.4430    0.8840 O.2    50  LYS50      -0.2718
     68  CB        25.7100    7.1670    3.8770 C.3    50  LYS50       0.0285
     69  CG        24.5480    7.3550    2.9120 C.3    50  LYS50       0.0035
     70  CD        23.2820    7.8110    3.6030 C.3    50  LYS50       0.0206
     71  CE        22.7760    9.1090    3.0020 C.3    50  LYS50       0.1093
     72  NZ        22.6570    8.9600    1.5420 N.3    50  LYS50      -0.1314
     73  N         28.0830    7.8700    1.8390 N.am   51  LEU51      -0.1980
     74  CA        28.4810    8.4640    0.5960 C.3    51  LEU51       0.1596
     75  C         29.6270    7.7110   -0.1190 C.2    51  LEU51       0.2287
     76  O         30.0290    8.1040   -1.1930 O.2    51  LEU51      -0.2864
     77  CB        28.9150    9.9080    0.8540 C.3    51  LEU51       0.0297
     78  CG        27.8280   10.8410    1.4190 C.3    51  LEU51       0.0022
     79  CD1       28.3830   12.1970    1.8070 C.3    51  LEU51       0.0001
     80  CD2       26.7320   11.1140    0.3850 C.3    51  LEU51       0.0001
     81  N         32.9000    7.5050    0.6080 N.3    53  LEU53      -0.1245
     82  CA        34.0730    8.3630    0.5700 C.3    53  LEU53       0.1561
     83  C         35.0730    7.8900    1.6500 C.2    53  LEU53       0.2260
     84  O         35.3280    8.5810    2.6640 O.2    53  LEU53      -0.2867
     85  CB        33.6570    9.8010    0.8520 C.3    53  LEU53       0.0270
     86  CG        32.5780   10.3610   -0.0820 C.3    53  LEU53       0.0019
     87  CD1       32.2080   11.7430    0.4520 C.3    53  LEU53       0.0001
     88  CD2       32.9870   10.4050   -1.5530 C.3    53  LEU53       0.0001
     89  N         37.7310   10.2480    2.9550 N.3    56  TYR56      -0.1241
     90  CA        37.3410   11.6150    3.4040 C.3    56  TYR56       0.1605
     91  C         38.0680   12.0290    4.6800 C.2    56  TYR56       0.2264
     92  O         38.7210   13.0670    4.7220 O.2    56  TYR56      -0.2867
     93  CB        35.8310   11.7690    3.5590 C.3    56  TYR56       0.0534
     94  CG        35.4520   13.2250    3.8060 C.ar   56  TYR56      -0.0201
     95  CD1       35.3490   14.1100    2.7620 C.ar   56  TYR56      -0.0009
     96  CD2       35.2860   13.7150    5.1140 C.ar   56  TYR56      -0.0009
     97  CE1       35.0080   15.4570    2.9760 C.ar   56  TYR56       0.0417
     98  CE2       35.0030   15.0630    5.3370 C.ar   56  TYR56       0.0417
     99  CZ        34.8510   15.9330    4.2740 C.ar   56  TYR56       0.1957
    100  OH        34.5870   17.2900    4.4930 O.3    56  TYR56      -0.2866
    101  N         35.8200   21.5320    1.7880 N.3    95  CYS95      -0.1235
    102  CA        35.1450   21.1740    0.5260 C.3    95  CYS95       0.1677
    103  C         36.0710   21.3670   -0.7040 C.2    95  CYS95       0.2270
    104  O         36.1710   20.4960   -1.5910 O.2    95  CYS95      -0.2867
    105  CB        33.8810   22.0280    0.4100 C.3    95  CYS95       0.0956
    106  SG        32.8640   21.4380   -0.9720 S.3    95  CYS95      -0.0801
    107  N         38.9440   18.6790   -0.5220 N.3    98  TYR98      -0.1227
    108  CA        38.6080   17.3150   -0.8290 C.3    98  TYR98       0.1736
    109  C         38.1730   17.1140   -2.2920 C.2    98  TYR98       0.2595
    110  O         38.5170   16.0970   -2.9440 O.2    98  TYR98      -0.2718
    111  CB        37.5260   16.7880    0.1120 C.3    98  TYR98       0.0548
    112  CG        37.2280   15.3470   -0.1720 C.ar   98  TYR98      -0.0200
    113  CD1       38.1100   14.3340    0.1720 C.ar   98  TYR98      -0.0009
    114  CD2       36.0650   14.9970   -0.8120 C.ar   98  TYR98      -0.0009
    115  CE1       37.8350   13.0240   -0.0990 C.ar   98  TYR98       0.0417
    116  CE2       35.7710   13.6760   -1.1110 C.ar   98  TYR98       0.0417
    117  CZ        36.6750   12.6830   -0.7880 C.ar   98  TYR98       0.1957
    118  OH        36.3670   11.3830   -1.1090 O.3    98  TYR98      -0.2866
    119  N         37.3640   18.0280   -2.7790 N.am   99  ASN99      -0.1974
    120  CA        36.7860   17.9130   -4.0990 C.3    99  ASN99       0.1688
    121  C         37.6550   18.6210   -5.1620 C.2    99  ASN99       0.2292
    122  O         38.7940   19.0200   -4.9000 O.2    99  ASN99      -0.2864
    123  CB        35.3610   18.4310   -4.0550 C.3    99  ASN99       0.1181
    124  CG        34.5120   17.6530   -3.0570 C.2    99  ASN99       0.2629
    125  OD1       34.1400   16.5240   -3.3590 O.2    99  ASN99      -0.2716
    126  ND2       34.2450   18.2230   -1.8500 N.am   99  ASN99      -0.0877
    127  N         29.5590   20.0080   -6.0350 N.3   105  ILE105     -0.1245
    128  CA        29.6630   20.3360   -4.6050 C.3   105  ILE105      0.1561
    129  C         30.5180   21.5830   -4.3720 C.2   105  ILE105      0.2260
    130  O         30.1890   22.3990   -3.4870 O.2   105  ILE105     -0.2867
    131  CB        30.2350   19.1710   -3.8190 C.3   105  ILE105      0.0252
    132  CG1       30.1350   19.4410   -2.3220 C.3   105  ILE105      0.0019
    133  CG2       31.6740   18.8760   -4.2490 C.3   105  ILE105      0.0019
    134  CD1       28.7200   19.4450   -1.8270 C.3   105  ILE105      0.0001
@<TRIPOS>BOND
     1   127   128    1
     2   121   122    2
     3   121   120    1
     4   128   129    1
     5   128   131    1
     6   129   130    2
     7   133   131    1
     8   120   123    1
     9   120   119    1
    10   123   124    1
    11   131   132    1
    12   125   124    2
    13    12    14   ar
    14    12    10   ar
    15   124   126   am
    16   110   109    2
    17   119   109   am
    18     9    10   ar
    19     9     7   ar
    20    14    13   ar
    21    10     8   ar
    22   132   134    1
    23   109   108    1
    24   104   103    2
    25    88    86    1
    26     7     6   ar
    27    76    75    2
    28    13    11   ar
    29   116   114   ar
    30   116   117   ar
    31   118   117    1
    32   106   105    1
    33     8     6   ar
    34     8    11   ar
    35   108   107    1
    36   108   111    1
    37   114   112   ar
    38   117   115   ar
    39    20    21    1
    40    20    19    1
    41   103   102    1
    42     6     5    1
    43   112   111    1
    44   112   113   ar
    45    75    74    1
    46   115   113   ar
    47    86    87    1
    48    86    85    1
    49    21    15    1
    50    32    31   ar
    51    32    30   ar
    52    31    29   ar
    53    19    16    1
    54    80    78    1
    55   105   102    1
    56   102   101    1
    57    82    81    1
    58    82    85    1
    59    82    83    1
    60    74    77    1
    61    74    73    1
    62    77    78    1
    63    67    66    2
    64     5     2    1
    65    15    16    1
    66    15     3   am
    67    30    28   ar
    68    29    27   ar
    69     1     2    1
    70    78    79    1
    71    16    17    1
    72    72    71    1
    73    83    84    2
    74    73    66   am
    75     2     3    1
    76    66    65    1
    77     3     4    2
    78    28    27   ar
    79    27    26    1
    80    17    18    2
    81    17    22   am
    82    95    97   ar
    83    95    94   ar
    84    69    70    1
    85    69    68    1
    86    89    90    1
    87    97    99   ar
    88    71    70    1
    89    65    68    1
    90    65    64    1
    91    22    23    1
    92    90    93    1
    93    90    91    1
    94    93    94    1
    95    94    96   ar
    96    26    23    1
    97    59    58    2
    98    54    53    1
    99    99   100    1
   100    99    98   ar
   101    23    24    1
   102    55    53    1
   103    91    92    2
   104    41    39   am
   105    96    98   ar
   106    58    57    1
   107    53    50    1
   108    24    25    2
   109    50    51    1
   110    50    49    1
   111    56    57    1
   112    56    51   am
   113    39    40    2
   114    39    38    1
   115    57    60    1
   116    60    61    1
   117    51    52    2
   118    62    61   ar
   119    61    63   ar
   120    49    44   am
   121    38    37    1
   122    36    35    2
   123    45    44    2
   124    33    34    1
   125    44    43    1
   126    35    34    1
   127    35    42   am
   128    37    34    1
   129    43    42    1
   130    43    46    1
   131    42    48    1
   132    46    47    1
   133    48    47    1
