@<TRIPOS>MOLECULE
tmp/4xyaA00.pdb
 125 124 0 0 0
SMALL
GASTEIGER

@<TRIPOS>ATOM
      1  N        -14.5450   21.8260    0.9870 N.3    40  TRP40      -0.1228
      2  CA       -14.7280   20.4740    1.4860 C.3    40  TRP40       0.1722
      3  C        -13.4450   19.6380    1.7350 C.2    40  TRP40       0.2437
      4  O        -13.3860   18.9650    2.7160 O.2    40  TRP40      -0.2733
      5  CB       -15.8190   19.6990    0.6540 C.3    40  TRP40       0.0563
      6  CG       -15.5230   19.5540   -0.8190 C.ar   40  TRP40       0.0003
      7  CD1      -15.8600   20.4230   -1.8180 C.ar   40  TRP40       0.0946
      8  CD2      -14.8240   18.4810   -1.4450 C.ar   40  TRP40       0.0152
      9  NE1      -15.3700   19.9760   -3.0250 N.ar   40  TRP40      -0.2442
     10  CE2      -14.7570   18.7700   -2.8230 C.ar   40  TRP40       0.0810
     11  CE3      -14.2410   17.2840   -0.9720 C.ar   40  TRP40       0.0012
     12  CZ2      -14.1310   17.9370   -3.7210 C.ar   40  TRP40       0.0191
     13  CZ3      -13.5830   16.4810   -1.8770 C.ar   40  TRP40       0.0001
     14  CH2      -13.5350   16.8010   -3.2340 C.ar   40  TRP40       0.0015
     15  N        -12.4080   19.6800    0.8400 N.am   41  PRO41      -0.2718
     16  CA       -11.2220   18.8740    1.1850 C.3    41  PRO41       0.1535
     17  C        -10.4500   19.3890    2.4060 C.2    41  PRO41       0.2598
     18  O         -9.5670   18.6770    2.9040 O.2    41  PRO41      -0.2715
     19  CB       -10.3380   18.9690   -0.0790 C.3    41  PRO41       0.0310
     20  CG       -11.2610   19.5170   -1.1560 C.3    41  PRO41       0.0237
     21  CD       -12.1920   20.4250   -0.4110 C.3    41  PRO41       0.0939
     22  N        -10.8030   20.5970    2.8750 N.am   42  PHE42      -0.1974
     23  CA       -10.1650   21.2450    3.9730 C.3    42  PHE42       0.1639
     24  C        -10.9510   21.3110    5.2690 C.2    42  PHE42       0.2290
     25  O        -10.4870   21.9460    6.2140 O.2    42  PHE42      -0.2864
     26  CB        -9.7190   22.6370    3.5320 C.3    42  PHE42       0.0560
     27  CG        -8.8740   22.6100    2.3330 C.ar   42  PHE42      -0.0200
     28  CD1       -7.5130   22.3220    2.4280 C.ar   42  PHE42      -0.0042
     29  CD2       -9.4420   22.8460    1.0540 C.ar   42  PHE42      -0.0042
     30  CE1       -6.7360   22.2290    1.2780 C.ar   42  PHE42      -0.0003
     31  CE2       -8.6690   22.7580   -0.0740 C.ar   42  PHE42      -0.0003
     32  CZ        -7.3090   22.4620    0.0250 C.ar   42  PHE42      -0.0000
     33  N        -11.7610   18.6710    7.2680 N.3    44  GLN44      -0.1231
     34  CA       -11.3850   17.6420    8.2360 C.3    44  GLN44       0.1683
     35  C         -9.9270   17.2560    7.9680 C.2    44  GLN44       0.2434
     36  O         -9.4180   17.5750    6.9430 O.2    44  GLN44      -0.2733
     37  CB       -12.2770   16.3930    8.1010 C.3    44  GLN44       0.0380
     38  CG       -12.2320   15.8380    6.7080 C.3    44  GLN44       0.0905
     39  CD       -13.0070   14.5680    6.5790 C.2    44  GLN44       0.2608
     40  OE1      -12.7240   13.5850    7.2590 O.2    44  GLN44      -0.2717
     41  NE2      -13.9840   14.5680    5.7050 N.am   44  GLN44      -0.0878
     42  N         -9.2580   16.6450    8.9560 N.am   45  PRO45      -0.2718
     43  CA        -7.9260   16.0860    8.7380 C.3    45  PRO45       0.1535
     44  C         -7.9260   15.1400    7.5370 C.2    45  PRO45       0.2598
     45  O         -8.8740   14.4280    7.3080 O.2    45  PRO45      -0.2715
     46  CB        -7.6290   15.3160   10.0500 C.3    45  PRO45       0.0310
     47  CG        -8.4440   15.9970   11.0790 C.3    45  PRO45       0.0237
     48  CD        -9.6980   16.5090   10.3680 C.3    45  PRO45       0.0939
     49  N         -6.8430   15.1920    6.7630 N.am   46  VAL46      -0.1964
     50  CA        -6.6070   14.2390    5.7280 C.3    46  VAL46       0.1727
     51  C         -6.6260   12.8030    6.3080 C.2    46  VAL46       0.2616
     52  O         -5.8810   12.5060    7.2490 O.2    46  VAL46      -0.2715
     53  CB        -5.2860   14.5240    5.0340 C.3    46  VAL46       0.0290
     54  CG1       -4.9700   13.3770    4.1010 C.3    46  VAL46       0.0023
     55  CG2       -5.3570   15.8640    4.3080 C.3    46  VAL46       0.0023
     56  N         -7.5390   11.9770    5.8020 N.am   47  ASP47      -0.1971
     57  CA        -7.5270   10.5670    6.0830 C.3    47  ASP47       0.1709
     58  C         -6.7000    9.8260    5.0330 C.2    47  ASP47       0.2293
     59  O         -7.1990    9.4870    3.9860 O.2    47  ASP47      -0.2864
     60  CB        -8.9460   10.0220    6.1460 C.3    47  ASP47       0.1436
     61  CG        -8.9890    8.5430    6.5100 C.2    47  ASP47       0.3671
     62  OD1       -7.9660    7.8010    6.4010 O.co2  47  ASP47      -0.2456
     63  OD2      -10.0740    8.0930    6.8570 O.co2  47  ASP47      -0.2456
     64  N         -8.2260    7.9970    1.6010 N.3    51  LEU51      -0.1245
     65  CA        -7.8360    8.6900    0.3820 C.3    51  LEU51       0.1561
     66  C         -6.7060    7.9790   -0.3530 C.2    51  LEU51       0.2260
     67  O         -6.2110    8.4710   -1.3650 O.2    51  LEU51      -0.2867
     68  CB        -7.3960   10.1200    0.7020 C.3    51  LEU51       0.0270
     69  CG        -8.5160   10.9190    1.3820 C.3    51  LEU51       0.0019
     70  CD1       -8.0590   12.2600    1.9020 C.3    51  LEU51       0.0001
     71  CD2       -9.6610   11.0970    0.4000 C.3    51  LEU51       0.0001
     72  N         -3.4610    7.7830    0.5430 N.3    53  LEU53      -0.1245
     73  CA        -2.2900    8.6460    0.4400 C.3    53  LEU53       0.1561
     74  C         -1.2950    8.1680    1.4880 C.2    53  LEU53       0.2260
     75  O         -1.0740    8.8350    2.4840 O.2    53  LEU53      -0.2867
     76  CB        -2.6710   10.0970    0.7070 C.3    53  LEU53       0.0270
     77  CG        -3.8080   10.7150   -0.1030 C.3    53  LEU53       0.0019
     78  CD1       -4.0840   12.1130    0.4400 C.3    53  LEU53       0.0001
     79  CD2       -3.5300   10.7240   -1.5910 C.3    53  LEU53       0.0001
     80  N          1.4090   10.5190    2.9830 N.3    56  TYR56      -0.1241
     81  CA         1.0270   11.8590    3.4070 C.3    56  TYR56       0.1605
     82  C          1.7100   12.2760    4.7090 C.2    56  TYR56       0.2264
     83  O          2.3620   13.3170    4.8060 O.2    56  TYR56      -0.2867
     84  CB        -0.5080   11.9880    3.4920 C.3    56  TYR56       0.0534
     85  CG        -0.9100   13.4090    3.7340 C.ar   56  TYR56      -0.0201
     86  CD1       -1.0350   14.3180    2.6700 C.ar   56  TYR56      -0.0009
     87  CD2       -1.1230   13.8790    5.0410 C.ar   56  TYR56      -0.0009
     88  CE1       -1.3650   15.6660    2.9240 C.ar   56  TYR56       0.0417
     89  CE2       -1.4170   15.2170    5.2930 C.ar   56  TYR56       0.0417
     90  CZ        -1.5560   16.1090    4.2360 C.ar   56  TYR56       0.1957
     91  OH        -1.8180   17.4830    4.5100 O.3    56  TYR56      -0.2866
     92  N         -0.6860   21.6860    1.8010 N.3    95  CYS95      -0.1235
     93  CA        -1.3060   21.3020    0.5480 C.3    95  CYS95       0.1677
     94  C         -0.3010   21.4850   -0.6310 C.2    95  CYS95       0.2270
     95  O         -0.1650   20.6090   -1.5050 O.2    95  CYS95      -0.2867
     96  CB        -2.5850   22.0980    0.2830 C.3    95  CYS95       0.0956
     97  SG        -3.5900   21.4680   -1.0770 S.3    95  CYS95      -0.0801
     98  N          2.6600   18.8610   -0.3990 N.3    98  TYR98      -0.1227
     99  CA         2.3850   17.4470   -0.6910 C.3    98  TYR98       0.1736
    100  C          1.9990   17.2410   -2.1500 C.2    98  TYR98       0.2595
    101  O          2.3830   16.2630   -2.8040 O.2    98  TYR98      -0.2718
    102  CB         1.2540   16.9050    0.2040 C.3    98  TYR98       0.0548
    103  CG         0.9070   15.4740   -0.1350 C.ar   98  TYR98      -0.0200
    104  CD1        1.7610   14.4320    0.2260 C.ar   98  TYR98      -0.0009
    105  CD2       -0.2430   15.1690   -0.8390 C.ar   98  TYR98      -0.0009
    106  CE1        1.4810   13.1340   -0.1300 C.ar   98  TYR98       0.0417
    107  CE2       -0.5410   13.8590   -1.1790 C.ar   98  TYR98       0.0417
    108  CZ         0.2960   12.8560   -0.8410 C.ar   98  TYR98       0.1957
    109  OH        -0.0050   11.5560   -1.1940 O.3    98  TYR98      -0.2866
    110  N          1.1690   18.1450   -2.6350 N.am   99  ASN99      -0.1974
    111  CA         0.5430   17.9450   -3.9040 C.3    99  ASN99       0.1688
    112  C          1.3410   18.4700   -5.1030 C.2    99  ASN99       0.2292
    113  O          2.2780   19.2550   -4.9850 O.2    99  ASN99      -0.2864
    114  CB        -0.8620   18.5290   -3.8670 C.3    99  ASN99       0.1181
    115  CG        -1.7830   17.7060   -2.9850 C.2    99  ASN99       0.2629
    116  OD1       -2.0780   16.5510   -3.2880 O.2    99  ASN99      -0.2716
    117  ND2       -2.2270   18.2760   -1.9320 N.am   99  ASN99      -0.0877
    118  N         -6.6740   20.0570   -6.2350 N.3   105  ILE105     -0.1245
    119  CA        -6.5690   20.3790   -4.8010 C.3   105  ILE105      0.1561
    120  C         -5.7170   21.6360   -4.5230 C.2   105  ILE105      0.2260
    121  O         -6.0350   22.4170   -3.6500 O.2   105  ILE105     -0.2867
    122  CB        -6.0950   19.1600   -4.0070 C.3   105  ILE105      0.0252
    123  CG1       -6.2820   19.4140   -2.5010 C.3   105  ILE105      0.0019
    124  CG2       -4.6360   18.7860   -4.3590 C.3   105  ILE105      0.0019
    125  CD1       -7.7490   19.3320   -2.0630 C.3   105  ILE105      0.0001
@<TRIPOS>BOND
     1   118   119    1
     2   112   113    2
     3   112   111    1
     4   119   120    1
     5   119   122    1
     6   120   121    2
     7   124   122    1
     8   122   123    1
     9   111   114    1
    10   111   110    1
    11   114   115    1
    12    12    14   ar
    13    12    10   ar
    14   116   115    2
    15    14    13   ar
    16     9    10   ar
    17     9     7   ar
    18   115   117   am
    19    10     8   ar
    20   101   100    2
    21   110   100   am
    22   123   125    1
    23   100    99    1
    24    13    11   ar
    25     7     6   ar
    26    79    77    1
    27    95    94    2
    28     8    11   ar
    29     8     6   ar
    30    67    66    2
    31   109   108    1
    32   107   108   ar
    33   107   105   ar
    34    20    21    1
    35    20    19    1
    36    97    96    1
    37   108   106   ar
    38   105   103   ar
    39     6     5    1
    40    99    98    1
    41    99   102    1
    42    94    93    1
    43    21    15    1
    44    66    65    1
    45   103   102    1
    46   103   104   ar
    47   106   104   ar
    48    77    78    1
    49    77    76    1
    50    19    16    1
    51    31    32   ar
    52    31    29   ar
    53    32    30   ar
    54    96    93    1
    55    65    68    1
    56    65    64    1
    57    71    69    1
    58    73    72    1
    59    73    76    1
    60    73    74    1
    61    93    92    1
    62     5     2    1
    63    68    69    1
    64    15    16    1
    65    15     3   am
    66     1     2    1
    67    29    27   ar
    68    16    17    1
    69    30    28   ar
    70    69    70    1
    71     2     3    1
    72    74    75    2
    73     3     4    2
    74    27    28   ar
    75    27    26    1
    76    17    22   am
    77    17    18    2
    78    86    88   ar
    79    86    85   ar
    80    22    23    1
    81    88    90   ar
    82    80    81    1
    83    81    84    1
    84    81    82    1
    85    84    85    1
    86    26    23    1
    87    85    87   ar
    88    23    24    1
    89    59    58    2
    90    54    53    1
    91    90    91    1
    92    90    89   ar
    93    55    53    1
    94    82    83    2
    95    58    57    1
    96    53    50    1
    97    87    89   ar
    98    24    25    2
    99    41    39   am
   100    50    51    1
   101    50    49    1
   102    56    57    1
   103    56    51   am
   104    57    60    1
   105    60    61    1
   106    51    52    2
   107    62    61   ar
   108    61    63   ar
   109    39    38    1
   110    39    40    2
   111    38    37    1
   112    49    44   am
   113    36    35    2
   114    33    34    1
   115    45    44    2
   116    44    43    1
   117    35    34    1
   118    35    42   am
   119    37    34    1
   120    43    42    1
   121    43    46    1
   122    42    48    1
   123    46    47    1
   124    48    47    1
