@<TRIPOS>MOLECULE
tmp/4xycQ00.pdb
 108 104 0 0 0
SMALL
GASTEIGER

@<TRIPOS>ATOM
      1  N        168.5530   -3.3580   84.4800 N.3   114  TYR114     -0.1241
      2  CA       167.6520   -2.2100   84.6170 C.3   114  TYR114      0.1605
      3  C        167.1420   -1.6340   83.2860 C.2   114  TYR114      0.2264
      4  O        167.9150   -1.4360   82.3370 O.2   114  TYR114     -0.2867
      5  CB       168.2900   -1.1240   85.4930 C.3   114  TYR114      0.0534
      6  CG       168.3240   -1.4700   86.9790 C.ar  114  TYR114     -0.0201
      7  CD1      169.5440   -1.6020   87.6650 C.ar  114  TYR114     -0.0009
      8  CD2      167.1360   -1.6650   87.7040 C.ar  114  TYR114     -0.0009
      9  CE1      169.5760   -1.9170   89.0360 C.ar  114  TYR114      0.0417
     10  CE2      167.1600   -1.9800   89.0710 C.ar  114  TYR114      0.0417
     11  CZ       168.3770   -2.1040   89.7250 C.ar  114  TYR114      0.1957
     12  OH       168.3930   -2.4130   91.0640 O.3   114  TYR114     -0.2866
     13  N        164.4080    1.4050   81.5780 N.3   116  GLY116     -0.1225
     14  CA       163.4820    2.5290   81.5690 C.3   116  GLY116      0.1811
     15  C        162.9680    2.6900   80.1490 C.2   116  GLY116      0.2280
     16  O        163.7010    2.4410   79.1730 O.2   116  GLY116     -0.2866
     17  N        163.7810   12.6530   88.6990 N.3   200  LYS200     -0.1245
     18  CA       164.8470   13.3950   88.0300 C.3   200  LYS200      0.1561
     19  C        164.4110   13.9150   86.6540 C.2   200  LYS200      0.2260
     20  O        163.6870   14.9250   86.5510 O.2   200  LYS200     -0.2867
     21  CB       166.1220   12.5320   87.9040 C.3   200  LYS200      0.0271
     22  CG       166.4770   11.6760   89.1510 C.3   200  LYS200      0.0035
     23  CD       168.0050   11.4480   89.3080 C.3   200  LYS200      0.0206
     24  CE       168.7100   12.6360   90.0140 C.3   200  LYS200      0.1093
     25  NZ       170.2010   12.5360   89.9900 N.3   200  LYS200     -0.1314
     26  N        162.7790    4.0960   86.4050 N.3   217  PHE217     -0.1241
     27  CA       163.2840    2.7840   85.9360 C.3   217  PHE217      0.1605
     28  C        162.8540    1.6030   86.8240 C.2   217  PHE217      0.2264
     29  O        162.3200    1.7950   87.9270 O.2   217  PHE217     -0.2867
     30  CB       164.8220    2.8060   85.9050 C.3   217  PHE217      0.0534
     31  CG       165.4350    2.8860   87.2780 C.ar  217  PHE217     -0.0203
     32  CD1      165.7890    4.1210   87.8250 C.ar  217  PHE217     -0.0042
     33  CD2      165.5970    1.7300   88.0580 C.ar  217  PHE217     -0.0042
     34  CE1      166.3220    4.2050   89.1170 C.ar  217  PHE217     -0.0003
     35  CE2      166.1220    1.7970   89.3570 C.ar  217  PHE217     -0.0003
     36  CZ       166.4850    3.0360   89.8890 C.ar  217  PHE217     -0.0000
     37  N        166.0720    2.3290   77.7760 N.3   263  HIS263     -0.1241
     38  CA       167.3300    2.5310   78.4670 C.3   263  HIS263      0.1621
     39  C        167.7230    1.2550   79.1830 C.2   263  HIS263      0.2264
     40  O        166.8730    0.5580   79.7320 O.2   263  HIS263     -0.2867
     41  CB       167.2080    3.6810   79.4630 C.3   263  HIS263      0.0745
     42  CG       166.9250    5.0060   78.8240 C.ar  263  HIS263      0.0817
     43  ND1      167.8690    5.6980   78.0930 N.ar  263  HIS263     -0.2268
     44  CD2      165.8050    5.7690   78.8130 C.ar  263  HIS263      0.1154
     45  CE1      167.3420    6.8290   77.6590 C.ar  263  HIS263      0.1986
     46  NE2      166.0890    6.8920   78.0740 N.ar  263  HIS263     -0.2212
     47  N        170.9320   -0.7600   81.6220 N.3   265  SER265     -0.1217
     48  CA       172.1630   -0.8230   82.4140 C.3   265  SER265      0.1889
     49  C        172.2120   -2.1300   83.2070 C.2   265  SER265      0.2288
     50  O        171.1690   -2.6750   83.5810 O.2   265  SER265     -0.2866
     51  CB       172.2650    0.3620   83.3840 C.3   265  SER265      0.2089
     52  OG       171.4880    0.1400   84.5590 O.3   265  SER265     -0.2183
     53  N        173.8170   -4.2480   86.6460 N.3   267  TRP267     -0.1241
     54  CA       174.2950   -4.0720   88.0200 C.3   267  TRP267      0.1605
     55  C        174.6770   -5.4120   88.6670 C.2   267  TRP267      0.2264
     56  O        173.9160   -6.3900   88.6060 O.2   267  TRP267     -0.2867
     57  CB       173.2400   -3.3390   88.8700 C.3   267  TRP267      0.0550
     58  CG       173.2420   -1.8380   88.6840 C.ar  267  TRP267      0.0003
     59  CD1      173.2640   -1.1520   87.4970 C.ar  267  TRP267      0.0946
     60  CD2      173.2140   -0.8390   89.7190 C.ar  267  TRP267      0.0152
     61  NE1      173.2620    0.2060   87.7270 N.ar  267  TRP267     -0.2442
     62  CE2      173.2300    0.4280   89.0790 C.ar  267  TRP267      0.0810
     63  CE3      173.1770   -0.8900   91.1230 C.ar  267  TRP267      0.0012
     64  CZ2      173.2100    1.6380   89.7990 C.ar  267  TRP267      0.0191
     65  CZ3      173.1600    0.3180   91.8420 C.ar  267  TRP267      0.0001
     66  CH2      173.1750    1.5610   91.1740 C.ar  267  TRP267      0.0015
     67  N        178.7890   11.1840   86.9350 N.3   344  ASN344     -0.1240
     68  CA       177.7730   10.3380   87.5760 C.3   344  ASN344      0.1653
     69  C        177.8590    8.8520   87.1640 C.2   344  ASN344      0.2266
     70  O        177.6090    8.5050   85.9950 O.2   344  ASN344     -0.2867
     71  CB       176.3740   10.8930   87.2820 C.3   344  ASN344      0.1155
     72  CG       175.3480   10.5190   88.3470 C.2   344  ASN344      0.2627
     73  OD1      175.4820    9.5120   89.0600 O.2   344  ASN344     -0.2716
     74  ND2      174.3060   11.3370   88.4510 N.am  344  ASN344     -0.0877
     75  N        176.3560    5.7170   88.6840 N.3   346  LYS346     -0.1231
     76  CA       175.0680    4.9930   88.7020 C.3   346  LYS346      0.1693
     77  C        174.1910    5.3210   87.4880 C.2   346  LYS346      0.2592
     78  O        173.3740    4.5070   87.0480 O.2   346  LYS346     -0.2718
     79  CB       174.2980    5.3280   89.9860 C.3   346  LYS346      0.0285
     80  CG       174.9200    4.7670   91.2660 C.3   346  LYS346      0.0035
     81  CD       174.5190    5.5770   92.5100 C.3   346  LYS346      0.0206
     82  CE       174.6680    4.7660   93.8050 C.3   346  LYS346      0.1093
     83  NZ       176.0560    4.2620   94.0640 N.3   346  LYS346     -0.1314
     84  N        174.3940    6.5170   86.9480 N.am  347  ALA347     -0.1966
     85  CA       173.5460    7.0690   85.9040 C.3   347  ALA347      0.1728
     86  C        173.9310    6.6530   84.4810 C.2   347  ALA347      0.2616
     87  O        173.2300    7.0020   83.5210 O.2   347  ALA347     -0.2715
     88  CB       173.4950    8.6070   86.0270 C.3   347  ALA347      0.0334
     89  N        175.0330    5.9250   84.3270 N.am  348  LYS348     -0.1963
     90  CA       175.4120    5.5090   82.9800 C.3   348  LYS348      0.1728
     91  C        174.4350    4.4510   82.4440 C.2   348  LYS348      0.2616
     92  O        173.9480    3.5840   83.1910 O.2   348  LYS348     -0.2715
     93  CB       176.8810    5.0590   82.8870 C.3   348  LYS348      0.0311
     94  CG       177.4480    5.0670   81.4490 C.3   348  LYS348      0.0038
     95  CD       177.4260    6.4630   80.8180 C.3   348  LYS348      0.0206
     96  CE       178.4230    7.3960   81.5120 C.3   348  LYS348      0.1093
     97  NZ       178.0340    8.8380   81.4360 N.3   348  LYS348     -0.1314
     98  N        174.1310    4.5600   81.1530 N.am  349  ARG349     -0.1977
     99  CA       173.2140    3.6480   80.4850 C.3   349  ARG349      0.1597
    100  C        173.2820    3.8800   78.9870 C.2   349  ARG349      0.2287
    101  O        173.7930    4.9040   78.5300 O.2   349  ARG349     -0.2864
    102  CB       171.7800    3.8510   80.9960 C.3   349  ARG349      0.0334
    103  CG       170.9840    4.9540   80.2950 C.3   349  ARG349      0.0492
    104  CD       169.8930    5.5110   81.1960 C.3   349  ARG349      0.2205
    105  NE       170.3450    6.7240   81.8670 N.pl3 349  ARG349     -0.0865
    106  CZ       169.9570    7.9550   81.5380 C.cat 349  ARG349      0.5346
    107  NH1      170.4390    9.0030   82.2080 N.pl3 349  ARG349      0.1354
    108  NH2      169.0790    8.1440   80.5530 N.pl3 349  ARG349      0.1354
@<TRIPOS>BOND
     1    45    46   ar
     2    45    43   ar
     3    37    38    1
     4    46    44   ar
     5    43    42   ar
     6    38    39    1
     7    38    41    1
     8   101   100    2
     9    44    42   ar
    10    42    41    1
    11   100    99    1
    12    16    15    2
    13    39    40    2
    14    15    14    1
    15   103   102    1
    16   103   104    1
    17    99   102    1
    18    99    98    1
    19   108   106    1
    20    95    94    1
    21    95    96    1
    22    98    91   am
    23   104   105    1
    24    97    96    1
    25    94    93    1
    26   106   105    2
    27   106   107    1
    28    14    13    1
    29    47    48    1
    30     4     3    2
    31    48    49    1
    32    48    51    1
    33    91    90    1
    34    91    92    2
    35    93    90    1
    36    90    89    1
    37    49    50    2
    38     3     2    1
    39    51    52    1
    40    87    86    2
    41    89    86   am
    42     1     2    1
    43    86    85    1
    44     2     5    1
    45     5     6    1
    46    85    88    1
    47    85    84    1
    48    30    27    1
    49    30    31    1
    50    27    26    1
    51    27    28    1
    52    70    69    2
    53    20    19    2
    54    53    54    1
    55    19    18    1
    56    28    29    2
    57    67    68    1
    58    84    77   am
    59     6     7   ar
    60     6     8   ar
    61    78    77    2
    62    69    68    1
    63    31    32   ar
    64    31    33   ar
    65    71    68    1
    66    71    72    1
    67    77    76    1
    68    59    61   ar
    69    59    58   ar
    70     7     9   ar
    71     8    10   ar
    72    61    62   ar
    73    32    34   ar
    74    21    18    1
    75    21    22    1
    76    54    55    1
    77    54    57    1
    78    18    17    1
    79    33    35   ar
    80    72    74   am
    81    72    73    2
    82    56    55    2
    83    75    76    1
    84    58    57    1
    85    58    60   ar
    86    76    79    1
    87     9    11   ar
    88    10    11   ar
    89    62    60   ar
    90    62    64   ar
    91    34    36   ar
    92    22    23    1
    93    23    24    1
    94    35    36   ar
    95    60    63   ar
    96    11    12    1
    97    64    66   ar
    98    79    80    1
    99    25    24    1
   100    63    65   ar
   101    66    65   ar
   102    80    81    1
   103    81    82    1
   104    82    83    1
