@<TRIPOS>MOLECULE
tmp/4xydB00.pdb
 247 243 0 0 0
SMALL
GASTEIGER

@<TRIPOS>ATOM
      1  N         24.3640   -3.2150  -55.4930 N.3    51  LEU51      -0.1231
      2  CA        25.7110   -2.8460  -55.0360 C.3    51  LEU51       0.1693
      3  C         25.8370   -3.0710  -53.5410 C.2    51  LEU51       0.2592
      4  O         26.8020   -3.6990  -53.0610 O.2    51  LEU51      -0.2718
      5  CB        26.0220   -1.3850  -55.3670 C.3    51  LEU51       0.0284
      6  CG        26.4790   -1.1780  -56.8070 C.3    51  LEU51       0.0019
      7  CD1       26.4630    0.2950  -57.1480 C.3    51  LEU51       0.0001
      8  CD2       27.8570   -1.7630  -57.0570 C.3    51  LEU51       0.0001
      9  N         24.8380   -2.5560  -52.8230 N.am   52  TRP52      -0.1976
     10  CA        24.6930   -2.7870  -51.4040 C.3    52  TRP52       0.1640
     11  C         24.9460   -4.2490  -51.1280 C.2    52  TRP52       0.2290
     12  O         25.7650   -4.6010  -50.2890 O.2    52  TRP52      -0.2864
     13  CB        23.2790   -2.4070  -50.9380 C.3    52  TRP52       0.0576
     14  CG        23.0230   -2.7540  -49.4930 C.ar   52  TRP52       0.0006
     15  CD1       22.4080   -3.8780  -49.0170 C.ar   52  TRP52       0.0946
     16  CD2       23.4030   -1.9870  -48.3480 C.ar   52  TRP52       0.0152
     17  NE1       22.3700   -3.8500  -47.6480 N.ar   52  TRP52      -0.2442
     18  CE2       22.9800   -2.7000  -47.2110 C.ar   52  TRP52       0.0810
     19  CE3       24.0460   -0.7600  -48.1730 C.ar   52  TRP52       0.0012
     20  CZ2       23.1920   -2.2290  -45.9120 C.ar   52  TRP52       0.0191
     21  CZ3       24.2410   -0.2910  -46.8910 C.ar   52  TRP52       0.0001
     22  CH2       23.8180   -1.0280  -45.7770 C.ar   52  TRP52       0.0015
     23  N         28.7450   -6.0600  -52.2570 N.3    55  HIS55      -0.1226
     24  CA        29.8810   -5.5890  -51.4270 C.3    55  HIS55       0.1752
     25  C         29.7660   -5.8920  -49.9240 C.2    55  HIS55       0.2597
     26  O         30.7170   -5.7190  -49.1520 O.2    55  HIS55      -0.2718
     27  CB        30.1320   -4.0970  -51.6650 C.3    55  HIS55       0.0759
     28  CG        30.5000   -3.7940  -53.0820 C.ar   55  HIS55       0.0818
     29  ND1       31.6340   -4.3110  -53.6800 N.ar   55  HIS55      -0.2268
     30  CD2       29.8580   -3.0830  -54.0390 C.ar   55  HIS55       0.1154
     31  CE1       31.6820   -3.9120  -54.9360 C.ar   55  HIS55       0.1986
     32  NE2       30.6190   -3.1650  -55.1790 N.ar   55  HIS55      -0.2212
     33  N         28.5880   -6.3550  -49.5240 N.am   56  GLY56      -0.1942
     34  CA        28.3620   -6.9020  -48.1960 C.3    56  GLY56       0.2014
     35  C         28.3820   -5.8690  -47.1030 C.2    56  GLY56       0.2639
     36  O         29.0000   -6.0780  -46.0720 O.2    56  GLY56      -0.2714
     37  N         27.6930   -4.7610  -47.3290 N.am   57  CYS57      -0.1967
     38  CA        27.6390   -3.7030  -46.3560 C.3    57  CYS57       0.1712
     39  C         26.9420   -4.1970  -45.1010 C.2    57  CYS57       0.2296
     40  O         27.3150   -3.8080  -44.0030 O.2    57  CYS57      -0.2864
     41  CB        26.8660   -2.5050  -46.8960 C.3    57  CYS57       0.0983
     42  SG        27.2410   -2.0250  -48.5520 S.3    57  CYS57      -0.0798
     43  N         28.7470   -5.4860  -41.9440 N.3    60  CYS60      -0.1221
     44  CA        29.3140   -4.5310  -40.9930 C.3    60  CYS60       0.1808
     45  C         28.1640   -3.6190  -40.4420 C.2    60  CYS60       0.2601
     46  O         28.0550   -3.3740  -39.2280 O.2    60  CYS60      -0.2717
     47  CB        30.4500   -3.6910  -41.6250 C.3    60  CYS60       0.0970
     48  SG        32.0560   -4.4370  -41.8140 S.3    60  CYS60      -0.0800
     49  N         27.3000   -3.1380  -41.3360 N.am   61  HIS61      -0.1975
     50  CA        26.2800   -2.1420  -40.9990 C.3    61  HIS61       0.1656
     51  C         24.9100   -2.7610  -40.7190 C.2    61  HIS61       0.2291
     52  O         24.6830   -3.9450  -40.9570 O.2    61  HIS61      -0.2864
     53  CB        26.1010   -1.1680  -42.1610 C.3    61  HIS61       0.0771
     54  CG        27.2730   -0.2690  -42.4040 C.ar   61  HIS61       0.0820
     55  ND1       27.4740    0.8960  -41.6970 N.ar   61  HIS61      -0.2267
     56  CD2       28.2740   -0.3340  -43.3150 C.ar   61  HIS61       0.1154
     57  CE1       28.5640    1.4940  -42.1410 C.ar   61  HIS61       0.1986
     58  NE2       29.0680    0.7730  -43.1270 N.ar   61  HIS61      -0.2212
     59  N         28.3960   -3.7840  -36.0080 N.3    70  PHE70      -0.1227
     60  CA        29.7580   -3.2510  -36.0600 C.3    70  PHE70       0.1736
     61  C         29.9350   -1.7900  -36.5200 C.2    70  PHE70       0.2595
     62  O         30.9350   -1.1590  -36.1810 O.2    70  PHE70      -0.2718
     63  CB        30.5590   -4.1270  -37.0040 C.3    70  PHE70       0.0547
     64  CG        32.0330   -4.0170  -36.8420 C.ar   70  PHE70      -0.0202
     65  CD1       32.6580   -4.5190  -35.7090 C.ar   70  PHE70      -0.0042
     66  CD2       32.8010   -3.4600  -37.8510 C.ar   70  PHE70      -0.0042
     67  CE1       34.0300   -4.4450  -35.5720 C.ar   70  PHE70      -0.0003
     68  CE2       34.1720   -3.3800  -37.7270 C.ar   70  PHE70      -0.0003
     69  CZ        34.7880   -3.8800  -36.5820 C.ar   70  PHE70      -0.0000
     70  N         28.9970   -1.2630  -37.3080 N.am   71  ALA71      -0.1966
     71  CA        29.1210    0.0950  -37.8540 C.3    71  ALA71       0.1713
     72  C         27.7470    0.7910  -37.9050 C.2    71  ALA71       0.2458
     73  O         26.7300    0.1280  -37.7240 O.2    71  ALA71      -0.2730
     74  CB        29.7620    0.0400  -39.2320 C.3    71  ALA71       0.0333
     75  N         27.7110    2.1270  -38.1370 N.am   72  PRO72      -0.2727
     76  CA        26.4720    2.8810  -37.9840 C.3    72  PRO72       0.1402
     77  C         25.3230    2.3460  -38.8040 C.2    72  PRO72       0.2269
     78  O         25.5420    1.8250  -39.8950 O.2    72  PRO72      -0.2865
     79  CB        26.8450    4.2640  -38.5080 C.3    72  PRO72       0.0296
     80  CG        28.2780    4.3940  -38.2000 C.3    72  PRO72       0.0237
     81  CD        28.8450    3.0280  -38.4400 C.3    72  PRO72       0.0939
     82  N         22.7090    2.7090  -41.4060 N.3    74  LEU74      -0.1245
     83  CA        22.7300    3.5450  -42.6180 C.3    74  LEU74       0.1561
     84  C         21.3400    3.7750  -43.1930 C.2    74  LEU74       0.2260
     85  O         21.1910    4.4380  -44.2160 O.2    74  LEU74      -0.2867
     86  CB        23.6560    2.9620  -43.6860 C.3    74  LEU74       0.0270
     87  CG        25.1220    2.8170  -43.3020 C.3    74  LEU74       0.0019
     88  CD1       25.8340    1.9530  -44.3040 C.3    74  LEU74       0.0001
     89  CD2       25.7700    4.1840  -43.2520 C.3    74  LEU74       0.0001
     90  N         21.3360    7.4750  -42.7100 N.3    77  VAL77      -0.1245
     91  CA        22.5830    8.2260  -42.7920 C.3    77  VAL77       0.1561
     92  C         22.3890    9.5700  -43.5090 C.2    77  VAL77       0.2260
     93  O         22.9910   10.5710  -43.1100 O.2    77  VAL77      -0.2867
     94  CB        23.7370    7.3970  -43.4160 C.3    77  VAL77       0.0252
     95  CG1       23.5330    7.1640  -44.9080 C.3    77  VAL77       0.0019
     96  CG2       25.0840    8.0630  -43.1590 C.3    77  VAL77       0.0019
     97  N         20.9800   12.0620  -41.1260 N.3    80  ARG80      -0.1231
     98  CA        22.0980   12.3580  -40.2410 C.3    80  ARG80       0.1694
     99  C         23.0320   13.4010  -40.8640 C.2    80  ARG80       0.2592
    100  O         23.5320   14.2670  -40.1610 O.2    80  ARG80      -0.2718
    101  CB        22.8560   11.0730  -39.8550 C.3    80  ARG80       0.0321
    102  CG        24.0250   11.2630  -38.8950 C.3    80  ARG80       0.0489
    103  CD        24.3420    9.9970  -38.1270 C.3    80  ARG80       0.2205
    104  NE        24.6560    8.8710  -39.0150 N.pl3  80  ARG80      -0.0865
    105  CZ        23.8540    7.8260  -39.2420 C.cat  80  ARG80       0.5346
    106  NH1       22.6640    7.7290  -38.6480 N.pl3  80  ARG80       0.1354
    107  NH2       24.2500    6.8730  -40.0680 N.pl3  80  ARG80       0.1354
    108  N         23.2340   13.3310  -42.1750 N.am   81  TRP81      -0.1976
    109  CA        24.1350   14.2610  -42.8450 C.3    81  TRP81       0.1640
    110  C         23.4540   15.5590  -43.3350 C.2    81  TRP81       0.2290
    111  O         23.9920   16.2460  -44.2090 O.2    81  TRP81      -0.2864
    112  CB        24.8440   13.5670  -44.0230 C.3    81  TRP81       0.0576
    113  CG        25.9740   12.6330  -43.6510 C.ar   81  TRP81       0.0006
    114  CD1       26.6330   12.5700  -42.4510 C.ar   81  TRP81       0.0946
    115  CD2       26.6030   11.6560  -44.5030 C.ar   81  TRP81       0.0152
    116  NE1       27.6130   11.6010  -42.4970 N.ar   81  TRP81      -0.2442
    117  CE2       27.6190   11.0280  -43.7430 C.ar   81  TRP81       0.0810
    118  CE3       26.3980   11.2450  -45.8310 C.ar   81  TRP81       0.0012
    119  CZ2       28.4310   10.0090  -44.2650 C.ar   81  TRP81       0.0191
    120  CZ3       27.2080   10.2360  -46.3550 C.ar   81  TRP81       0.0001
    121  CH2       28.2140    9.6330  -45.5690 C.ar   81  TRP81       0.0015
    122  N         28.3960   11.0210  -49.9410 N.3    94  LEU94      -0.1245
    123  CA        28.7490    9.6020  -49.9550 C.3    94  LEU94       0.1561
    124  C         30.1080    9.3100  -50.6120 C.2    94  LEU94       0.2260
    125  O         30.9290    8.5740  -50.0520 O.2    94  LEU94      -0.2867
    126  CB        27.6440    8.7630  -50.5950 C.3    94  LEU94       0.0270
    127  CG        27.9010    7.2570  -50.5040 C.3    94  LEU94       0.0019
    128  CD1       27.6860    6.7450  -49.0910 C.3    94  LEU94       0.0001
    129  CD2       27.0190    6.5300  -51.5000 C.3    94  LEU94       0.0001
    130  N         33.0620   10.3550  -48.5000 N.3    97  TRP97      -0.1227
    131  CA        33.2930    9.3930  -47.4210 C.3    97  TRP97       0.1737
    132  C         33.9500    8.1110  -47.9460 C.2    97  TRP97       0.2595
    133  O         35.0530    7.7340  -47.5150 O.2    97  TRP97      -0.2718
    134  CB        31.9870    9.0700  -46.6920 C.3    97  TRP97       0.0564
    135  CG        32.1830    8.1010  -45.5830 C.ar   97  TRP97       0.0003
    136  CD1       32.0680    6.7440  -45.6580 C.ar   97  TRP97       0.0946
    137  CD2       32.5410    8.3990  -44.2310 C.ar   97  TRP97       0.0152
    138  NE1       32.3350    6.1760  -44.4390 N.ar   97  TRP97      -0.2442
    139  CE2       32.6190    7.1660  -43.5390 C.ar   97  TRP97       0.0810
    140  CE3       32.7850    9.5900  -43.5250 C.ar   97  TRP97       0.0012
    141  CZ2       32.9430    7.0820  -42.1740 C.ar   97  TRP97       0.0191
    142  CZ3       33.1110    9.5080  -42.1560 C.ar   97  TRP97       0.0001
    143  CH2       33.1870    8.2590  -41.5010 C.ar   97  TRP97       0.0015
    144  N         33.2780    7.4460  -48.8810 N.am   98  MET98      -0.1979
    145  CA        33.7810    6.1860  -49.4050 C.3    98  MET98       0.1605
    146  C         35.2030    6.3060  -49.9830 C.2    98  MET98       0.2287
    147  O         36.0620    5.4650  -49.6910 O.2    98  MET98      -0.2864
    148  CB        32.7640    5.5570  -50.3630 C.3    98  MET98       0.0413
    149  CG        31.4050    5.3340  -49.6890 C.3    98  MET98       0.0598
    150  SD        30.2020    4.2110  -50.4430 S.3    98  MET98      -0.1393
    151  CE        31.1490    2.7010  -50.6200 C.3    98  MET98       0.0692
    152  N         37.7260    6.0080  -47.1570 N.3   101  MET101     -0.1245
    153  CA        37.9270    4.7180  -46.4820 C.3   101  MET101      0.1570
    154  C         38.9680    3.9090  -47.2500 C.2   101  MET101      0.2261
    155  O         39.0080    3.9810  -48.4750 O.2   101  MET101     -0.2867
    156  CB        36.6100    3.9370  -46.3560 C.3   101  MET101      0.0387
    157  CG        35.4550    4.7120  -45.7380 C.3   101  MET101      0.0595
    158  SD        35.7660    5.2340  -44.0360 S.3   101  MET101     -0.1393
    159  CE        36.1000    6.9810  -44.2200 C.3   101  MET101      0.0692
    160  N         40.1800    4.6670  -43.2670 N.3   103  THR103     -0.1218
    161  CA        40.8820    5.7170  -42.5300 C.3   103  THR103      0.1862
    162  C         42.3030    5.2630  -42.2420 C.2   103  THR103      0.2287
    163  O         43.2340    6.0440  -42.3620 O.2   103  THR103     -0.2866
    164  CB        40.2200    6.0540  -41.1710 C.3   103  THR103      0.1770
    165  OG1       40.2370    4.9000  -40.3120 O.3   103  THR103     -0.2211
    166  CG2       38.7980    6.5690  -41.3480 C.3   103  THR103      0.0375
    167  N         40.8520    2.2820  -34.3850 N.3   108  ARG108     -0.1231
    168  CA        39.4980    2.5870  -34.8940 C.3   108  ARG108      0.1694
    169  C         39.0340    1.5450  -35.9010 C.2   108  ARG108      0.2592
    170  O         39.8330    1.0690  -36.7220 O.2   108  ARG108     -0.2718
    171  CB        39.4630    3.9990  -35.5150 C.3   108  ARG108      0.0321
    172  CG        38.3210    4.3040  -36.4880 C.3   108  ARG108      0.0489
    173  CD        38.0890    5.8020  -36.6550 C.3   108  ARG108      0.2205
    174  NE        37.1940    6.2970  -35.6040 N.pl3 108  ARG108     -0.0865
    175  CZ        36.0070    6.8680  -35.8160 C.cat 108  ARG108      0.5346
    176  NH1       35.5780    7.0690  -37.0500 N.pl3 108  ARG108      0.1354
    177  NH2       35.2590    7.2630  -34.7930 N.pl3 108  ARG108      0.1354
    178  N         37.7480    1.1980  -35.8450 N.am  109  ARG109     -0.1966
    179  CA        37.1630    0.2350  -36.7970 C.3   109  ARG109      0.1729
    180  C         37.3170    0.6430  -38.2750 C.2   109  ARG109      0.2616
    181  O         37.2540    1.8320  -38.6040 O.2   109  ARG109     -0.2715
    182  CB        35.6880    0.0080  -36.4830 C.3   109  ARG109      0.0348
    183  CG        35.4390   -0.9050  -35.3050 C.3   109  ARG109      0.0492
    184  CD        33.9790   -0.9290  -34.9310 C.3   109  ARG109      0.2205
    185  NE        33.8770   -1.1580  -33.5070 N.pl3 109  ARG109     -0.0865
    186  CZ        32.7430   -1.3570  -32.8440 C.cat 109  ARG109      0.5346
    187  NH1       31.5730   -1.3690  -33.4860 N.pl3 109  ARG109      0.1354
    188  NH2       32.7940   -1.5620  -31.5270 N.pl3 109  ARG109      0.1354
    189  N         37.4890   -0.3460  -39.1590 N.am  110  GLN110     -0.1963
    190  CA        37.9080   -0.0620  -40.5320 C.3   110  GLN110      0.1733
    191  C         36.9030   -0.4830  -41.5890 C.2   110  GLN110      0.2616
    192  O         36.4210   -1.5910  -41.5470 O.2   110  GLN110     -0.2715
    193  CB        39.2610   -0.7250  -40.8130 C.3   110  GLN110      0.0408
    194  CG        40.4190   -0.2100  -39.9790 C.3   110  GLN110      0.0908
    195  CD        40.7730    1.2080  -40.3370 C.2   110  GLN110      0.2608
    196  OE1       41.1470    1.4950  -41.4760 O.2   110  GLN110     -0.2717
    197  NE2       40.6410    2.1110  -39.3740 N.am  110  GLN110     -0.0878
    198  N         36.6140    0.4050  -42.5370 N.am  111  MET111     -0.1964
    199  CA        35.7820    0.1150  -43.7120 C.3   111  MET111      0.1722
    200  C         36.6330   -0.0640  -44.9710 C.2   111  MET111      0.2458
    201  O         37.5480    0.7010  -45.2040 O.2   111  MET111     -0.2730
    202  CB        34.7870    1.2490  -43.9310 C.3   111  MET111      0.0427
    203  CG        33.9100    1.1280  -45.1670 C.3   111  MET111      0.0599
    204  SD        32.4560    2.1960  -45.0050 S.3   111  MET111     -0.1393
    205  CE        32.0580    2.5690  -46.7170 C.3   111  MET111      0.0692
    206  N         36.3330   -1.0730  -45.8060 N.am  112  PRO112     -0.2727
    207  CA        37.1780   -1.2270  -46.9930 C.3   112  PRO112      0.1402
    208  C         36.9170   -0.1710  -48.0770 C.2   112  PRO112      0.2269
    209  O         36.0350    0.6940  -47.9290 O.2   112  PRO112     -0.2865
    210  CB        36.8040   -2.6180  -47.5150 C.3   112  PRO112      0.0296
    211  CG        36.0810   -3.2830  -46.3890 C.3   112  PRO112      0.0237
    212  CD        35.3570   -2.1730  -45.6970 C.3   112  PRO112      0.0939
    213  N         35.9540   -0.2370  -52.1350 N.3   114  PHE114     -0.1241
    214  CA        35.4850   -1.2010  -53.1160 C.3   114  PHE114      0.1605
    215  C         35.8180   -0.8910  -54.5840 C.2   114  PHE114      0.2264
    216  O         35.4460   -1.6500  -55.4870 O.2   114  PHE114     -0.2867
    217  CB        34.0110   -1.4950  -52.8620 C.3   114  PHE114      0.0534
    218  CG        33.7610   -2.0460  -51.4880 C.ar  114  PHE114     -0.0203
    219  CD1       34.0930   -3.3710  -51.1830 C.ar  114  PHE114     -0.0042
    220  CD2       33.2440   -1.2350  -50.4790 C.ar  114  PHE114     -0.0042
    221  CE1       33.8940   -3.8730  -49.9040 C.ar  114  PHE114     -0.0003
    222  CE2       33.0300   -1.7420  -49.2010 C.ar  114  PHE114     -0.0003
    223  CZ        33.3590   -3.0610  -48.9130 C.ar  114  PHE114     -0.0000
    224  N         34.8510    1.8430  -56.2910 N.3   116  LEU116     -0.1245
    225  CA        33.6140    2.2110  -56.9380 C.3   116  LEU116      0.1561
    226  C         33.7630    3.4440  -57.8320 C.2   116  LEU116      0.2260
    227  O         34.3790    4.4390  -57.4440 O.2   116  LEU116     -0.2867
    228  CB        32.5130    2.4060  -55.8970 C.3   116  LEU116      0.0270
    229  CG        32.0200    1.2040  -55.0750 C.3   116  LEU116      0.0019
    230  CD1       30.6810    1.5520  -54.4370 C.3   116  LEU116      0.0001
    231  CD2       31.9160   -0.0860  -55.8850 C.3   116  LEU116      0.0001
    232  N         24.3070    3.9480  -54.9600 N.3   124  LEU124     -0.1245
    233  CA        24.2440    3.7380  -53.5170 C.3   124  LEU124      0.1561
    234  C         23.5860    4.9030  -52.8200 C.2   124  LEU124      0.2260
    235  O         22.7210    4.7070  -51.9630 O.2   124  LEU124     -0.2867
    236  CB        25.6310    3.4800  -52.9360 C.3   124  LEU124      0.0270
    237  CG        26.1640    2.0620  -53.1200 C.3   124  LEU124      0.0019
    238  CD1       27.6290    2.0040  -52.7660 C.3   124  LEU124      0.0001
    239  CD2       25.3710    1.1080  -52.2510 C.3   124  LEU124      0.0001
    240  N         20.1940    4.6190  -50.5870 N.3   128  LEU128     -0.1245
    241  CA        20.1510    4.9770  -49.1810 C.3   128  LEU128      0.1561
    242  C         19.1220    6.0690  -48.9500 C.2   128  LEU128      0.2260
    243  O         18.4000    6.0600  -47.9460 O.2   128  LEU128     -0.2867
    244  CB        21.5220    5.4140  -48.6770 C.3   128  LEU128      0.0270
    245  CG        22.5530    4.2970  -48.5240 C.3   128  LEU128      0.0019
    246  CD1       23.9320    4.8950  -48.3090 C.3   128  LEU128      0.0001
    247  CD2       22.1790    3.3410  -47.4060 C.3   128  LEU128      0.0001
@<TRIPOS>BOND
     1   226   227    2
     2   226   225    1
     3     7     6    1
     4     8     6    1
     5   225   224    1
     6   225   228    1
     7     6     5    1
     8   228   229    1
     9   231   229    1
    10     1     2    1
    11   216   215    2
    12     5     2    1
    13    32    31   ar
    14    32    30   ar
    15   229   230    1
    16     2     3    1
    17   232   233    1
    18    31    29   ar
    19   215   214    1
    20    30    28   ar
    21    29    28   ar
    22     3     4    2
    23     3     9   am
    24   233   236    1
    25   233   234    1
    26   237   236    1
    27   237   238    1
    28   237   239    1
    29   214   217    1
    30   214   213    1
    31    28    27    1
    32   217   218    1
    33     9    10    1
    34   234   235    2
    35    23    24    1
    36    27    24    1
    37   129   127    1
    38   218   219   ar
    39   218   220   ar
    40    24    25    1
    41    10    11    1
    42    10    13    1
    43   219   221   ar
    44    11    12    2
    45    13    14    1
    46   151   150    1
    47   124   125    2
    48   124   123    1
    49   126   127    1
    50   126   123    1
    51   240   241    1
    52   127   128    1
    53   220   222   ar
    54   150   149    1
    55   148   149    1
    56   148   145    1
    57   146   147    2
    58   146   145    1
    59   123   122    1
    60    25    33   am
    61    25    26    2
    62   221   223   ar
    63    33    34    1
    64    14    15   ar
    65    14    16   ar
    66   145   144    1
    67   222   223   ar
    68   241   242    1
    69   241   244    1
    70    15    17   ar
    71   242   243    2
    72   144   132   am
    73   244   245    1
    74    42    41    1
    75   245   246    1
    76   245   247    1
    77   130   131    1
    78   155   154    2
    79    16    19   ar
    80    16    18   ar
    81    34    35    1
    82    19    21   ar
    83   208   209    2
    84   208   207    1
    85   132   133    2
    86   132   131    1
    87    17    18   ar
    88   210   207    1
    89   210   211    1
    90   131   134    1
    91    37    35   am
    92    37    38    1
    93   154   153    1
    94    18    20   ar
    95   152   153    1
    96    35    36    2
    97   207   206    1
    98    41    38    1
    99    21    22   ar
   100   205   204    1
   101   134   135    1
   102   153   156    1
   103   211   212    1
   104   156   157    1
   105    38    39    1
   106   120   118   ar
   107   120   121   ar
   108    20    22   ar
   109   118   115   ar
   110   206   212    1
   111   206   200   am
   112   157   158    1
   113   136   135   ar
   114   136   138   ar
   115   135   137   ar
   116   121   119   ar
   117   201   200    2
   118   203   204    1
   119   203   202    1
   120    39    40    2
   121   200   199    1
   122    95    94    1
   123   115   117   ar
   124   115   113   ar
   125   138   139   ar
   126    88    87    1
   127   119   117   ar
   128   137   139   ar
   129   137   140   ar
   130   159   158    1
   131    85    84    2
   132   111   110    2
   133   112   113    1
   134   112   109    1
   135   202   199    1
   136   117   116   ar
   137   199   198    1
   138    86    87    1
   139    86    83    1
   140   113   114   ar
   141   139   141   ar
   142   140   142   ar
   143    92    93    2
   144    92    91    1
   145    94    96    1
   146    94    91    1
   147   110   109    1
   148    56    58   ar
   149    56    54   ar
   150    87    89    1
   151   160   161    1
   152    84    83    1
   153    58    57   ar
   154   109   108    1
   155    91    90    1
   156    83    82    1
   157   198   191   am
   158   161   162    1
   159   161   164    1
   160   116   114   ar
   161    54    53    1
   162    54    55   ar
   163   163   162    2
   164   108    99   am
   165   141   143   ar
   166    53    50    1
   167   142   143   ar
   168    57    55   ar
   169    43    44    1
   170    48    47    1
   171    47    44    1
   172   191   192    2
   173   191   190    1
   174   196   195    2
   175   166   164    1
   176    49    50    1
   177    49    45   am
   178   164   165    1
   179    97    98    1
   180    50    51    1
   181    44    45    1
   182    52    51    2
   183    99    98    1
   184    99   100    2
   185   193   190    1
   186   193   194    1
   187   190   189    1
   188    45    46    2
   189   195   194    1
   190   195   197   am
   191    98   101    1
   192   107   105    1
   193    78    77    2
   194   101   102    1
   195   105   104    2
   196   105   106    1
   197    74    71    1
   198   189   180   am
   199   104   103    1
   200   102   103    1
   201    77    76    1
   202   181   180    2
   203    79    80    1
   204    79    76    1
   205    81    80    1
   206    81    75    1
   207   180   179    1
   208    75    76    1
   209    75    72   am
   210    72    71    1
   211    72    73    2
   212    71    70    1
   213    66    68   ar
   214    66    64   ar
   215    68    69   ar
   216    70    61   am
   217   176   175    1
   218    63    64    1
   219    63    60    1
   220    64    65   ar
   221   179   182    1
   222   179   178    1
   223   170   169    2
   224   173   172    1
   225   173   174    1
   226    69    67   ar
   227    61    62    2
   228    61    60    1
   229   172   171    1
   230   182   183    1
   231    60    59    1
   232   169   178   am
   233   169   168    1
   234   175   174    2
   235   175   177    1
   236    65    67   ar
   237   171   168    1
   238   183   184    1
   239   184   185    1
   240   168   167    1
   241   185   186    2
   242   187   186    1
   243   186   188    1
