@<TRIPOS>MOLECULE
tmp/4xyfA00.pdb
 191 183 0 0 0
SMALL
GASTEIGER

@<TRIPOS>ATOM
      1  N         22.8110   40.5820   54.7260 N.3    33  ILE33      -0.1231
      2  CA        22.6810   40.1040   56.1090 C.3    33  ILE33       0.1692
      3  C         23.4600   38.8160   56.3670 C.2    33  ILE33       0.2593
      4  O         23.6290   38.4250   57.5200 O.2    33  ILE33      -0.2718
      5  CB        21.2040   39.8960   56.5230 C.3    33  ILE33       0.0266
      6  CG1       20.5370   38.7960   55.6840 C.3    33  ILE33       0.0019
      7  CG2       20.4490   41.2090   56.4180 C.3    33  ILE33       0.0020
      8  CD1       19.2160   38.3100   56.2390 C.3    33  ILE33       0.0001
      9  N         23.9150   38.1530   55.3030 N.am   34  GLY34      -0.1942
     10  CA        24.6580   36.8950   55.4300 C.3    34  GLY34       0.2014
     11  C         25.5380   36.6050   54.2270 C.2    34  GLY34       0.2638
     12  O         25.2950   37.1190   53.1340 O.2    34  GLY34      -0.2714
     13  N         26.5670   35.7860   54.4390 N.am   35  ARG35      -0.1977
     14  CA        27.5040   35.4040   53.3770 C.3    35  ARG35       0.1597
     15  C         27.7950   33.9120   53.3740 C.2    35  ARG35       0.2287
     16  O         28.1490   33.3280   54.4030 O.2    35  ARG35      -0.2864
     17  CB        28.8300   36.1520   53.5260 C.3    35  ARG35       0.0334
     18  CG        28.7440   37.6100   53.1400 C.3    35  ARG35       0.0492
     19  CD        30.0570   38.3330   53.3580 C.3    35  ARG35       0.2205
     20  NE        29.9010   39.7500   53.0500 N.pl3  35  ARG35      -0.0865
     21  CZ        29.9020   40.2710   51.8230 C.cat  35  ARG35       0.5346
     22  NH1       30.0640   39.5040   50.7440 N.pl3  35  ARG35       0.1354
     23  NH2       29.7400   41.5810   51.6750 N.pl3  35  ARG35       0.1354
     24  N         23.1080   36.6610   51.3430 N.3    41  VAL41      -0.1245
     25  CA        21.6860   36.6410   51.7020 C.3    41  VAL41       0.1561
     26  C         21.2470   38.0390   52.1290 C.2    41  VAL41       0.2260
     27  O         22.0610   38.8460   52.6210 O.2    41  VAL41      -0.2867
     28  CB        21.3190   35.4990   52.7090 C.3    41  VAL41       0.0252
     29  CG1       22.5580   34.7730   53.2180 C.3    41  VAL41       0.0019
     30  CG2       20.4190   35.9860   53.8450 C.3    41  VAL41       0.0019
     31  N         14.5760   35.4460   54.6970 N.3    52  ALA52      -0.1245
     32  CA        15.9780   35.5590   54.3160 C.3    52  ALA52       0.1562
     33  C         16.0460   35.0440   52.8950 C.2    52  ALA52       0.2260
     34  O         15.6400   33.9150   52.6250 O.2    52  ALA52      -0.2867
     35  CB        16.8600   34.7190   55.2390 C.3    52  ALA52       0.0290
     36  N         18.3810   34.1010   49.7710 N.3    54  LYS54      -0.1245
     37  CA        19.7450   33.7760   49.4080 C.3    54  LYS54       0.1561
     38  C         19.9200   33.7460   47.8930 C.2    54  LYS54       0.2260
     39  O         19.2100   33.0250   47.1870 O.2    54  LYS54      -0.2867
     40  CB        20.1650   32.4310   49.9750 C.3    54  LYS54       0.0271
     41  CG        21.6780   32.3140   50.0080 C.3    54  LYS54       0.0035
     42  CD        22.1580   30.8930   49.9840 C.3    54  LYS54       0.0206
     43  CE        23.6760   30.8730   49.9510 C.3    54  LYS54       0.1093
     44  NZ        24.1370   29.5680   50.4590 N.3    54  LYS54      -0.1314
     45  N         14.9300   23.9420   59.5560 N.3    84  LEU84      -0.1245
     46  CA        14.6910   25.1560   58.7840 C.3    84  LEU84       0.1561
     47  C         13.8270   24.7830   57.5750 C.2    84  LEU84       0.2260
     48  O         14.1050   23.8180   56.8540 O.2    84  LEU84      -0.2867
     49  CB        15.9990   25.8470   58.3480 C.3    84  LEU84       0.0270
     50  CG        15.8560   27.2270   57.6910 C.3    84  LEU84       0.0019
     51  CD1       15.4220   28.2910   58.6890 C.3    84  LEU84       0.0001
     52  CD2       17.1410   27.6580   56.9820 C.3    84  LEU84       0.0001
     53  N         13.9460   31.6580   52.5480 N.3   101  LEU101     -0.1231
     54  CA        13.9200   30.9670   53.8410 C.3   101  LEU101      0.1678
     55  C         13.2490   31.8430   54.8980 C.2   101  LEU101      0.2434
     56  O         13.2900   33.0690   54.8040 O.2   101  LEU101     -0.2733
     57  CB        15.3500   30.6940   54.3150 C.3   101  LEU101      0.0284
     58  CG        16.3140   29.7750   53.5610 C.3   101  LEU101      0.0019
     59  CD1       15.6280   28.5270   53.0130 C.3   101  LEU101      0.0001
     60  CD2       17.0220   30.5590   52.4630 C.3   101  LEU101      0.0001
     61  N         12.6860   31.2200   55.9560 N.am  102  PRO102     -0.2718
     62  CA        12.2030   32.0390   57.0570 C.3   102  PRO102      0.1535
     63  C         13.3300   32.8710   57.6350 C.2   102  PRO102      0.2599
     64  O         14.4680   32.4270   57.6580 O.2   102  PRO102     -0.2715
     65  CB        11.7290   31.0220   58.1050 C.3   102  PRO102      0.0310
     66  CG        11.6370   29.7130   57.4140 C.3   102  PRO102      0.0237
     67  CD        12.4940   29.7770   56.1810 C.3   102  PRO102      0.0939
     68  N         13.0170   34.0700   58.0980 N.am  103  TYR103     -0.1960
     69  CA        14.0040   34.9050   58.7420 C.3   103  TYR103      0.1771
     70  C         14.3260   34.3380   60.1390 C.2   103  TYR103      0.2619
     71  O         13.4290   34.0010   60.8970 O.2   103  TYR103     -0.2715
     72  CB        13.4980   36.3430   58.8310 C.3   103  TYR103      0.0574
     73  CG        14.5230   37.3140   59.3300 C.ar  103  TYR103     -0.0198
     74  CD1       15.5560   37.7450   58.5070 C.ar  103  TYR103     -0.0009
     75  CD2       14.4790   37.7880   60.6320 C.ar  103  TYR103     -0.0009
     76  CE1       16.5070   38.6320   58.9630 C.ar  103  TYR103      0.0417
     77  CE2       15.4340   38.6660   61.1040 C.ar  103  TYR103      0.0417
     78  CZ        16.4430   39.0870   60.2660 C.ar  103  TYR103      0.1957
     79  OH        17.3890   39.9580   60.7380 O.3   103  TYR103     -0.2866
     80  N         15.6130   34.2140   60.4400 N.am  104  MET104     -0.1963
     81  CA        16.0870   33.7120   61.7320 C.3   104  MET104      0.1736
     82  C         16.7470   34.8430   62.5120 C.2   104  MET104      0.2616
     83  O         17.9420   35.1050   62.3810 O.2   104  MET104     -0.2715
     84  CB        17.0540   32.5570   61.5020 C.3   104  MET104      0.0427
     85  CG        16.4010   31.3470   60.8450 C.3   104  MET104      0.0599
     86  SD        15.3040   30.4320   61.9510 S.3   104  MET104     -0.1393
     87  CE        13.7540   30.4250   61.0770 C.3   104  MET104      0.0692
     88  N         15.9480   35.5070   63.3350 N.am  105  LYS105     -0.1963
     89  CA        16.3920   36.6750   64.1060 C.3   105  LYS105      0.1728
     90  C         17.7590   36.5040   64.7520 C.2   105  LYS105      0.2616
     91  O         18.6100   37.3950   64.6520 O.2   105  LYS105     -0.2715
     92  CB        15.3640   36.9790   65.2000 C.3   105  LYS105      0.0311
     93  CG        15.5760   38.2750   65.9720 C.3   105  LYS105      0.0038
     94  CD        14.5360   38.3760   67.0740 C.3   105  LYS105      0.0206
     95  CE        14.6630   39.6450   67.8990 C.3   105  LYS105      0.1093
     96  NZ        13.6040   39.6540   68.9490 N.3   105  LYS105     -0.1314
     97  N         17.9830   35.3630   65.3980 N.am  106  HIS106     -0.1959
     98  CA        19.1770   35.2190   66.2440 C.3   106  HIS106      0.1787
     99  C         20.3360   34.5000   65.5960 C.2   106  HIS106      0.2621
    100  O         21.3380   34.2120   66.2610 O.2   106  HIS106     -0.2715
    101  CB        18.7910   34.6230   67.5950 C.3   106  HIS106      0.0785
    102  CG        18.0340   35.5840   68.4680 C.ar  106  HIS106      0.0821
    103  ND1       18.5990   36.7050   68.9660 N.ar  106  HIS106     -0.2267
    104  CD2       16.7130   35.5740   68.9200 C.ar  106  HIS106      0.1154
    105  CE1       17.6840   37.3770   69.6960 C.ar  106  HIS106      0.1986
    106  NE2       16.5330   36.6870   69.6640 N.ar  106  HIS106     -0.2212
    107  N         20.2420   34.2550   64.2880 N.am  107  GLY107     -0.1940
    108  CA        21.3950   33.7960   63.5150 C.3   107  GLY107      0.2014
    109  C         21.7670   32.3590   63.8370 C.2   107  GLY107      0.2638
    110  O         20.9010   31.5600   64.2150 O.2   107  GLY107     -0.2714
    111  N         23.0500   32.0320   63.6870 N.am  108  ASP108     -0.1971
    112  CA        23.5090   30.6620   63.8720 C.3   108  ASP108      0.1709
    113  C         23.7750   30.3680   65.3490 C.2   108  ASP108      0.2293
    114  O         24.1210   31.2530   66.1370 O.2   108  ASP108     -0.2864
    115  CB        24.7310   30.3250   63.0010 C.3   108  ASP108      0.1436
    116  CG        25.9890   31.0270   63.4480 C.2   108  ASP108      0.3671
    117  OD1       26.1090   32.2330   63.1790 O.co2 108  ASP108     -0.2456
    118  OD2       26.8640   30.3670   64.0640 O.co2 108  ASP108     -0.2456
    119  N         27.4410   31.3200   66.9000 N.3   111  ASN111     -0.1240
    120  CA        27.5640   32.7330   67.2480 C.3   111  ASN111      0.1653
    121  C         26.6760   33.1630   68.4050 C.2   111  ASN111      0.2266
    122  O         27.1030   33.9460   69.2490 O.2   111  ASN111     -0.2867
    123  CB        27.3400   33.6250   66.0250 C.3   111  ASN111      0.1155
    124  CG        28.5760   33.7190   65.1660 C.2   111  ASN111      0.2627
    125  OD1       29.6670   33.9200   65.6880 O.2   111  ASN111     -0.2716
    126  ND2       28.4270   33.5300   63.8570 N.am  111  ASN111     -0.0877
    127  N         27.4830   25.9040   63.8840 N.3   152  ARG152     -0.1231
    128  CA        27.4480   26.9500   62.8540 C.3   152  ARG152      0.1694
    129  C         26.2940   26.7610   61.8650 C.2   152  ARG152      0.2592
    130  O         25.8970   27.7150   61.2040 O.2   152  ARG152     -0.2718
    131  CB        28.7850   27.0470   62.0850 C.3   152  ARG152      0.0321
    132  CG        29.1690   25.8080   61.2990 C.3   152  ARG152      0.0489
    133  CD        30.4620   25.9440   60.4870 C.3   152  ARG152      0.2205
    134  NE        30.7250   24.6470   59.8810 N.pl3 152  ARG152     -0.0865
    135  CZ        31.3250   23.6270   60.4860 C.cat 152  ARG152      0.5346
    136  NH1       31.4480   22.4710   59.8640 N.pl3 152  ARG152      0.1354
    137  NH2       31.8350   23.7560   61.6980 N.pl3 152  ARG152      0.1354
    138  N         25.8010   25.5300   61.7470 N.am  153  ASN153     -0.1974
    139  CA        24.8170   25.1500   60.7300 C.3   153  ASN153      0.1688
    140  C         23.4020   24.8920   61.2680 C.2   153  ASN153      0.2292
    141  O         22.5910   24.2290   60.6250 O.2   153  ASN153     -0.2864
    142  CB        25.3540   23.9680   59.9470 C.3   153  ASN153      0.1181
    143  CG        26.5330   24.3680   59.0770 C.2   153  ASN153      0.2629
    144  OD1       26.6030   25.5090   58.6190 O.2   153  ASN153     -0.2716
    145  ND2       27.4680   23.4620   58.8770 N.am  153  ASN153     -0.0877
    146  N         20.2950   27.3300   63.2260 N.3   155  MET155     -0.1245
    147  CA        19.9460   28.7250   63.4510 C.3   155  MET155      0.1570
    148  C         18.8150   28.8850   64.4740 C.2   155  MET155      0.2261
    149  O         18.1110   27.9260   64.7670 O.2   155  MET155     -0.2867
    150  CB        19.5960   29.3940   62.1330 C.3   155  MET155      0.0387
    151  CG        20.7690   29.3880   61.1500 C.3   155  MET155      0.0595
    152  SD        20.3520   30.4070   59.7500 S.3   155  MET155     -0.1393
    153  CE        20.7390   32.0170   60.4110 C.3   155  MET155      0.0692
    154  N         19.7550   23.6580   59.9770 N.3   165  ALA165     -0.1231
    155  CA        19.7240   24.4480   58.7480 C.3   165  ALA165      0.1694
    156  C         20.8250   23.9420   57.8070 C.2   165  ALA165      0.2592
    157  O         21.2430   22.7880   57.8910 O.2   165  ALA165     -0.2718
    158  CB        19.8910   25.9230   59.0770 C.3   165  ALA165      0.0304
    159  N         21.2470   24.7740   56.8700 N.am  166  ASP166     -0.1974
    160  CA        22.3430   24.4140   55.9930 C.3   166  ASP166      0.1709
    161  C         22.1470   23.0540   55.3370 C.2   166  ASP166      0.2293
    162  O         23.0410   22.2220   55.3490 O.2   166  ASP166     -0.2864
    163  CB        23.6700   24.4680   56.7770 C.3   166  ASP166      0.1436
    164  CG        24.8520   24.0300   55.9420 C.2   166  ASP166      0.3671
    165  OD1       25.0190   24.6230   54.8540 O.co2 166  ASP166     -0.2456
    166  OD2       25.5800   23.0930   56.3630 O.co2 166  ASP166     -0.2456
    167  N         19.6910   25.5570   50.8870 N.3   170  ALA170     -0.1245
    168  CA        20.4040   26.4610   51.7980 C.3   170  ALA170      0.1562
    169  C         21.8040   25.9340   52.1490 C.2   170  ALA170      0.2260
    170  O         22.5100   26.5510   52.9400 O.2   170  ALA170     -0.2867
    171  CB        19.5920   26.6800   53.0700 C.3   170  ALA170      0.0290
    172  N         29.4080   28.3150   55.3900 N.3   174  TYR174     -0.1227
    173  CA        29.1490   29.6220   56.0100 C.3   174  TYR174      0.1736
    174  C         30.2680   30.0780   56.9530 C.2   174  TYR174      0.2595
    175  O         30.2410   31.1940   57.4550 O.2   174  TYR174     -0.2718
    176  CB        27.8100   29.5830   56.7770 C.3   174  TYR174      0.0548
    177  CG        26.6010   29.4200   55.8820 C.ar  174  TYR174     -0.0200
    178  CD1       26.1130   30.4920   55.1390 C.ar  174  TYR174     -0.0009
    179  CD2       25.9540   28.1900   55.7580 C.ar  174  TYR174     -0.0009
    180  CE1       25.0090   30.3510   54.3060 C.ar  174  TYR174      0.0417
    181  CE2       24.8530   28.0470   54.9330 C.ar  174  TYR174      0.0417
    182  CZ        24.3800   29.1280   54.2120 C.ar  174  TYR174      0.1957
    183  OH        23.2880   28.9670   53.3820 O.3   174  TYR174     -0.2866
    184  N         31.2400   29.2090   57.2080 N.am  175  ASP175     -0.1974
    185  CA        32.4830   29.6080   57.8820 C.3   175  ASP175      0.1709
    186  C         33.6130   28.7740   57.2880 C.2   175  ASP175      0.2293
    187  O         33.8120   27.6050   57.6580 O.2   175  ASP175     -0.2864
    188  CB        32.3820   29.4230   59.4060 C.3   175  ASP175      0.1436
    189  CG        33.5540   30.0730   60.1620 C.2   175  ASP175      0.3671
    190  OD1       34.6180   30.3120   59.5430 O.co2 175  ASP175     -0.2456
    191  OD2       33.4150   30.3560   61.3710 O.co2 175  ASP175     -0.2456
@<TRIPOS>BOND
     1    39    38    2
     2    38    37    1
     3    37    36    1
     4    37    40    1
     5    43    42    1
     6    43    44    1
     7    40    41    1
     8    42    41    1
     9    22    21    1
    10   167   168    1
    11    24    25    1
    12    23    21    1
    13    25    26    1
    14    25    28    1
    15   168   169    1
    16   168   171    1
    17    21    20    2
    18    26    27    2
    19   169   170    2
    20    60    58    1
    21    53    54    1
    22    34    33    2
    23    28    29    1
    24    28    30    1
    25    33    32    1
    26    59    58    1
    27    20    19    1
    28    12    11    2
    29    18    19    1
    30    18    17    1
    31    15    14    1
    32    15    16    2
    33    14    17    1
    34    14    13    1
    35   183   182    1
    36    58    57    1
    37    54    57    1
    38    54    55    1
    39   182   180   ar
    40   182   181   ar
    41    11    13   am
    42    11    10    1
    43   180   178   ar
    44    32    31    1
    45    32    35    1
    46     1     2    1
    47    56    55    2
    48   165   164   ar
    49    55    61   am
    50   181   179   ar
    51   178   177   ar
    52     9    10    1
    53     9     3   am
    54   161   162    2
    55   161   160    1
    56   172   173    1
    57     6     8    1
    58     6     5    1
    59   179   177   ar
    60   177   176    1
    61   164   166   ar
    62   164   163    1
    63    61    67    1
    64    61    62    1
    65   160   163    1
    66   160   159    1
    67   173   176    1
    68   173   174    1
    69     2     3    1
    70     2     5    1
    71    67    66    1
    72     3     4    2
    73     7     5    1
    74    48    47    2
    75   159   156   am
    76   174   184   am
    77   174   175    2
    78    52    50    1
    79    62    63    1
    80    62    65    1
    81   184   185    1
    82   186   187    2
    83   186   185    1
    84    66    65    1
    85    47    46    1
    86    63    64    2
    87    63    68   am
    88    50    49    1
    89    50    51    1
    90   156   157    2
    91   156   155    1
    92   185   188    1
    93    68    69    1
    94    49    46    1
    95    74    76   ar
    96    74    73   ar
    97   144   143    2
    98    69    72    1
    99    69    70    1
   100   155   158    1
   101   155   154    1
   102    46    45    1
   103    72    73    1
   104   145   143   am
   105    76    78   ar
   106   143   142    1
   107    73    75   ar
   108   188   189    1
   109   190   189   ar
   110   152   153    1
   111   152   151    1
   112   136   135    1
   113   134   135    2
   114   134   133    1
   115   142   139    1
   116    70    80   am
   117    70    71    2
   118   189   191   ar
   119    78    79    1
   120    78    77   ar
   121    80    81    1
   122   135   137    1
   123   133   132    1
   124   141   140    2
   125    75    77   ar
   126   139   140    1
   127   139   138    1
   128    85    84    1
   129    85    86    1
   130    87    86    1
   131   151   150    1
   132   130   129    2
   133   132   131    1
   134    84    81    1
   135    81    82    1
   136   138   129   am
   137   129   128    1
   138   131   128    1
   139   150   147    1
   140    83    82    2
   141    82    88   am
   142   128   127    1
   143   115   116    1
   144   115   112    1
   145   117   116   ar
   146   146   147    1
   147    88    89    1
   148   116   118   ar
   149   147   148    1
   150   108   109    1
   151   108   107    1
   152   111   109   am
   153   111   112    1
   154   109   110    2
   155   126   124   am
   156   112   113    1
   157    89    90    1
   158    89    92    1
   159   107    99   am
   160   148   149    2
   161    91    90    2
   162    90    97   am
   163   124   125    2
   164   124   123    1
   165    92    93    1
   166   113   114    2
   167    97    98    1
   168    99    98    1
   169    99   100    2
   170    93    94    1
   171   123   120    1
   172    98   101    1
   173   119   120    1
   174    94    95    1
   175   120   121    1
   176   101   102    1
   177    95    96    1
   178   121   122    2
   179   102   104   ar
   180   102   103   ar
   181   104   106   ar
   182   103   105   ar
   183   106   105   ar
