@<TRIPOS>MOLECULE
tmp/4xyjA00.pdb
 182 170 0 0 0
SMALL
GASTEIGER

@<TRIPOS>ATOM
      1  N         38.1690  -17.5170   94.8360 N.3    20  SER20      -0.1202
      2  CA        36.7330  -17.7610   94.9570 C.3    20  SER20       0.2020
      3  C         35.8400  -16.5930   94.5260 C.2    20  SER20       0.2619
      4  O         36.2970  -15.4560   94.3970 O.2    20  SER20      -0.2717
      5  CB        36.3970  -18.1650   96.4020 C.3    20  SER20       0.2103
      6  OG        35.0600  -18.6410   96.5160 O.3    20  SER20      -0.2182
      7  N         34.5600  -16.8950   94.3140 N.am   21  GLY21      -0.1942
      8  CA        33.6090  -15.8860   93.9010 C.3    21  GLY21       0.2014
      9  C         33.7320  -15.6120   92.4220 C.2    21  GLY21       0.2639
     10  O         34.2540  -16.4330   91.6750 O.2    21  GLY21      -0.2714
     11  N         33.2470  -14.4570   91.9920 N.am   22  GLY22      -0.1954
     12  CA        33.3490  -14.1140   90.5890 C.3    22  GLY22       0.1869
     13  C         34.7970  -13.8240   90.2610 C.2    22  GLY22       0.2309
     14  O         35.5620  -13.4080   91.1290 O.2    22  GLY22      -0.2863
     15  N         36.3600  -22.7000   96.8090 N.3    52  TYR52      -0.1241
     16  CA        35.9840  -23.6330   97.8630 C.3    52  TYR52       0.1605
     17  C         35.4900  -24.9840   97.3450 C.2    52  TYR52       0.2264
     18  O         35.7290  -26.0170   97.9620 O.2    52  TYR52      -0.2867
     19  CB        34.9390  -22.9920   98.7750 C.3    52  TYR52       0.0534
     20  CG        35.4800  -21.8580   99.6220 C.ar   52  TYR52      -0.0201
     21  CD1       34.7640  -20.6700   99.7700 C.ar   52  TYR52      -0.0009
     22  CD2       36.7020  -21.9700  100.2710 C.ar   52  TYR52      -0.0009
     23  CE1       35.2510  -19.6290  100.5350 C.ar   52  TYR52       0.0417
     24  CE2       37.1980  -20.9310  101.0430 C.ar   52  TYR52       0.0417
     25  CZ        36.4670  -19.7640  101.1690 C.ar   52  TYR52       0.1957
     26  OH        36.9540  -18.7280  101.9300 O.3    52  TYR52      -0.2866
     27  N         31.3280  -20.6810   92.7690 N.3    85  ARG85      -0.1231
     28  CA        30.5440  -20.5840   93.9870 C.3    85  ARG85       0.1694
     29  C         30.3470  -22.0050   94.4960 C.2    85  ARG85       0.2592
     30  O         29.9500  -22.9040   93.7460 O.2    85  ARG85      -0.2718
     31  CB        29.1950  -19.9220   93.6960 C.3    85  ARG85       0.0321
     32  CG        29.3310  -18.4560   93.4060 C.3    85  ARG85       0.0489
     33  CD        28.1140  -17.8320   92.7500 C.3    85  ARG85       0.2205
     34  NE        28.4270  -16.4520   92.3840 N.pl3  85  ARG85      -0.0865
     35  CZ        28.9560  -16.0840   91.2150 C.cat  85  ARG85       0.5346
     36  NH1       29.2200  -14.8030   90.9730 N.pl3  85  ARG85       0.1354
     37  NH2       29.2110  -16.9890   90.2740 N.pl3  85  ARG85       0.1354
     38  N         30.6430  -22.2110   95.7690 N.am   86  CYS86      -0.1956
     39  CA        30.5030  -23.5240   96.3600 C.3    86  CYS86       0.1843
     40  C         29.3570  -23.5020   97.3470 C.2    86  CYS86       0.2625
     41  O         29.4320  -22.8440   98.3780 O.2    86  CYS86      -0.2714
     42  CB        31.7950  -23.9060   97.0680 C.3    86  CYS86       0.0997
     43  SG        31.7840  -25.5400   97.7790 S.3    86  CYS86      -0.0797
     44  N         28.2860  -24.2150   97.0300 N.am   87  GLN87      -0.1977
     45  CA        27.1470  -24.2390   97.9300 C.3    87  GLN87       0.1601
     46  C         27.4370  -25.1620   99.0950 C.2    87  GLN87       0.2287
     47  O         26.9900  -24.9360  100.2130 O.2    87  GLN87      -0.2864
     48  CB        25.8830  -24.7040   97.2030 C.3    87  GLN87       0.0394
     49  CG        24.6250  -24.3810   97.9900 C.3    87  GLN87       0.0908
     50  CD        24.5190  -22.8900   98.3350 C.2    87  GLN87       0.2608
     51  OE1       23.7220  -22.4920   99.1900 O.2    87  GLN87      -0.2717
     52  NE2       25.3200  -22.0600   97.6590 N.am   87  GLN87      -0.0878
     53  N         30.0680  -25.5090  100.7340 N.3    89  PHE89      -0.1227
     54  CA        30.8170  -24.8350  101.7900 C.3    89  PHE89       0.1736
     55  C         29.9320  -23.9750  102.6910 C.2    89  PHE89       0.2595
     56  O         30.3700  -23.5370  103.7540 O.2    89  PHE89      -0.2718
     57  CB        31.9130  -23.9690  101.1770 C.3    89  PHE89       0.0547
     58  CG        33.0530  -23.6770  102.1070 C.ar   89  PHE89      -0.0202
     59  CD1       34.0250  -24.6340  102.3530 C.ar   89  PHE89      -0.0042
     60  CD2       33.1680  -22.4330  102.7150 C.ar   89  PHE89      -0.0042
     61  CE1       35.0950  -24.3610  103.1850 C.ar   89  PHE89      -0.0003
     62  CE2       34.2340  -22.1520  103.5490 C.ar   89  PHE89      -0.0003
     63  CZ        35.2020  -23.1200  103.7850 C.ar   89  PHE89      -0.0000
     64  N         28.6970  -23.7190  102.2630 N.am   90  ARG90      -0.1980
     65  CA        27.7540  -22.9280  103.0600 C.3    90  ARG90       0.1597
     66  C         27.3100  -23.7640  104.2590 C.2    90  ARG90       0.2287
     67  O         26.9350  -23.2270  105.3000 O.2    90  ARG90      -0.2864
     68  CB        26.5120  -22.5810  102.2400 C.3    90  ARG90       0.0334
     69  CG        26.7450  -21.6900  101.0400 C.3    90  ARG90       0.0492
     70  CD        26.6820  -20.2230  101.3980 C.3    90  ARG90       0.2205
     71  NE        26.7440  -19.4100  100.1970 N.pl3  90  ARG90      -0.0865
     72  CZ        26.8000  -18.0880  100.1880 C.cat  90  ARG90       0.5346
     73  NH1       26.7950  -17.4120  101.3240 N.pl3  90  ARG90       0.1354
     74  NH2       26.8860  -17.4430   99.0350 N.pl3  90  ARG90       0.1354
     75  N         32.2350  -27.7720  105.0600 N.3    95  ARG95      -0.1245
     76  CA        33.3950  -27.3520  105.8260 C.3    95  ARG95       0.1563
     77  C         34.1850  -28.5380  106.3670 C.2    95  ARG95       0.2260
     78  O         35.4150  -28.5110  106.4040 O.2    95  ARG95      -0.2867
     79  CB        32.9690  -26.4420  106.9810 C.3    95  ARG95       0.0307
     80  CG        33.0390  -24.9520  106.6640 C.3    95  ARG95       0.0489
     81  CD        31.6830  -24.3410  106.3910 C.3    95  ARG95       0.2205
     82  NE        30.8660  -24.2940  107.5940 N.pl3  95  ARG95      -0.0865
     83  CZ        29.7080  -23.6530  107.6790 C.cat  95  ARG95       0.5346
     84  NH1       29.2280  -22.9960  106.6340 N.pl3  95  ARG95       0.1354
     85  NH2       29.0180  -23.6770  108.8050 N.pl3  95  ARG95       0.1354
     86  N         36.0670  -12.0610   97.0990 N.3   115  GLY115     -0.1210
     87  CA        35.3420  -10.9120   97.6130 C.3   115  GLY115      0.1956
     88  C         34.7290  -11.0910   98.9920 C.2   115  GLY115      0.2612
     89  O         35.0170  -12.0580   99.7030 O.2   115  GLY115     -0.2717
     90  N         33.8820  -10.1350   99.3610 N.am  116  ASP116     -0.1959
     91  CA        33.2010  -10.1240  100.6490 C.3   116  ASP116      0.1840
     92  C         32.7610  -11.5060  101.1000 C.2   116  ASP116      0.2623
     93  O         33.0060  -11.9090  102.2330 O.2   116  ASP116     -0.2715
     94  CB        31.9800   -9.2060  100.5860 C.3   116  ASP116      0.1450
     95  CG        30.9390   -9.6800   99.5760 C.2   116  ASP116      0.3671
     96  OD1       29.8960  -10.2130  100.0130 O.co2 116  ASP116     -0.2456
     97  OD2       31.1540   -9.5050   98.3500 O.co2 116  ASP116     -0.2456
     98  N         32.1000  -12.2270  100.2050 N.am  117  GLY117     -0.1940
     99  CA        31.6340  -13.5620  100.5340 C.3   117  GLY117      0.2014
    100  C         32.7710  -14.5120  100.8580 C.2   117  GLY117      0.2639
    101  O         32.9470  -14.9090  102.0030 O.2   117  GLY117     -0.2714
    102  N         33.5460  -14.8780   99.8460 N.am  118  SER118     -0.1949
    103  CA        34.6670  -15.7840  100.0350 C.3   118  SER118      0.1924
    104  C         35.4030  -15.5010  101.3370 C.2   118  SER118      0.2314
    105  O         35.7600  -16.4130  102.0740 O.2   118  SER118     -0.2863
    106  CB        35.6360  -15.6570   98.8650 C.3   118  SER118      0.2116
    107  OG        34.9660  -15.8850   97.6400 O.3   118  SER118     -0.2180
    108  N         34.2720  -13.7250  104.1790 N.3   120  THR120     -0.1203
    109  CA        33.5070  -13.9600  105.4100 C.3   120  THR120      0.1994
    110  C         33.4200  -15.4710  105.6380 C.2   120  THR120      0.2618
    111  O         33.5020  -15.9530  106.7640 O.2   120  THR120     -0.2717
    112  CB        32.0650  -13.3710  105.3550 C.3   120  THR120      0.1784
    113  OG1       31.3020  -14.0620  104.3710 O.3   120  THR120     -0.2211
    114  CG2       32.0820  -11.8890  105.0050 C.3   120  THR120      0.0376
    115  N         33.2720  -16.2180  104.5520 N.am  121  GLY121     -0.1956
    116  CA        33.2120  -17.6630  104.6570 C.3   121  GLY121      0.1869
    117  C         34.5200  -18.2240  105.1950 C.2   121  GLY121      0.2309
    118  O         34.5310  -19.1890  105.9480 O.2   121  GLY121     -0.2863
    119  N         34.7190  -17.5990  108.9990 N.3   124  LEU124     -0.1245
    120  CA        33.9270  -18.6090  109.6890 C.3   124  LEU124      0.1561
    121  C         34.6430  -19.9570  109.7340 C.2   124  LEU124      0.2260
    122  O         34.6080  -20.6440  110.7480 O.2   124  LEU124     -0.2867
    123  CB        32.5510  -18.7440  109.0110 C.3   124  LEU124      0.0270
    124  CG        31.6320  -19.9320  109.3070 C.3   124  LEU124      0.0019
    125  CD1       30.1890  -19.5680  108.9790 C.3   124  LEU124      0.0001
    126  CD2       32.0740  -21.1350  108.4810 C.3   124  LEU124      0.0001
    127  N         39.6680   -9.7680   96.0590 N.3   160  GLY160     -0.1210
    128  CA        39.7490   -9.8340   94.6150 C.3   160  GLY160      0.1956
    129  C         38.3790   -9.9690   93.9980 C.2   160  GLY160      0.2612
    130  O         37.9380  -11.0650   93.6880 O.2   160  GLY160     -0.2717
    131  N         37.7060   -8.8410   93.8220 N.am  161  SER161     -0.1952
    132  CA        36.3710   -8.8110   93.2460 C.3   161  SER161      0.1924
    133  C         36.1950   -7.4530   92.6150 C.2   161  SER161      0.2314
    134  O         36.7350   -6.4770   93.1130 O.2   161  SER161     -0.2863
    135  CB        35.3220   -9.0130   94.3420 C.3   161  SER161      0.2116
    136  OG        34.0110   -8.8070   93.8480 O.3   161  SER161     -0.2180
    137  N         33.5960   -5.8030   92.6410 N.3   163  ASP163     -0.1239
    138  CA        32.5750   -5.0640   93.3770 C.3   163  ASP163      0.1674
    139  C         33.1560   -4.0530   94.3690 C.2   163  ASP163      0.2266
    140  O         32.7060   -2.9070   94.4240 O.2   163  ASP163     -0.2867
    141  CB        31.6240   -6.0290   94.1050 C.3   163  ASP163      0.1410
    142  CG        30.5110   -6.5660   93.1960 C.2   163  ASP163      0.3668
    143  OD1       29.4160   -5.9590   93.1660 O.co2 163  ASP163     -0.2456
    144  OD2       30.7210   -7.6040   92.5220 O.co2 163  ASP163     -0.2456
    145  N         33.0180   -4.5030   97.5020 N.3   165  ASP165     -0.1239
    146  CA        32.0170   -4.5400   98.5640 C.3   165  ASP165      0.1674
    147  C         32.5020   -5.0190   99.9260 C.2   165  ASP165      0.2266
    148  O         31.6900   -5.2220  100.8290 O.2   165  ASP165     -0.2867
    149  CB        30.8060   -5.4000   98.1330 C.3   165  ASP165      0.1410
    150  CG        31.2000   -6.7950   97.6110 C.2   165  ASP165      0.3668
    151  OD1       32.3480   -7.2350   97.8350 O.co2 165  ASP165     -0.2456
    152  OD2       30.3460   -7.4630   96.9780 O.co2 165  ASP165     -0.2456
    153  N         28.2280   -2.7090   87.2670 N.3   205  MET205     -0.1245
    154  CA        28.0510   -3.6610   88.3530 C.3   205  MET205      0.1570
    155  C         28.0760   -3.0980   89.7660 C.2   205  MET205      0.2261
    156  O         28.0890   -1.8880   89.9760 O.2   205  MET205     -0.2867
    157  CB        29.0750   -4.7880   88.2470 C.3   205  MET205      0.0387
    158  CG        28.6570   -5.8940   87.2910 C.3   205  MET205      0.0595
    159  SD        29.5860   -7.4130   87.5370 S.3   205  MET205     -0.1393
    160  CE        29.1290   -7.8130   89.3360 C.3   205  MET205      0.0692
    161  N         26.7720   -5.3710   93.2540 N.3   207  ARG207     -0.1245
    162  CA        25.5830   -5.9690   93.8690 C.3   207  ARG207      0.1563
    163  C         24.8290   -4.9300   94.6880 C.2   207  ARG207      0.2260
    164  O         23.7860   -4.4220   94.2780 O.2   207  ARG207     -0.2867
    165  CB        25.9820   -7.1260   94.7840 C.3   207  ARG207      0.0307
    166  CG        26.7600   -8.2400   94.1120 C.3   207  ARG207      0.0489
    167  CD        26.9690   -9.3840   95.0990 C.3   207  ARG207      0.2205
    168  NE        27.7190  -10.5000   94.5340 N.pl3 207  ARG207     -0.0865
    169  CZ        27.2230  -11.5500   93.8770 C.cat 207  ARG207      0.5346
    170  NH1       25.9170  -11.6980   93.6630 N.pl3 207  ARG207      0.1354
    171  NH2       28.0680  -12.4680   93.4240 N.pl3 207  ARG207      0.1354
    172  N         34.4390   -8.1240   83.4770 N.3   298  ARG298     -0.1245
    173  CA        35.4550   -8.9930   84.0730 C.3   298  ARG298      0.1563
    174  C         36.4580   -9.3710   82.9820 C.2   298  ARG298      0.2260
    175  O         37.5130   -9.9670   83.2550 O.2   298  ARG298     -0.2867
    176  CB        34.8310  -10.2850   84.6220 C.3   298  ARG298      0.0307
    177  CG        33.8050  -10.1340   85.7390 C.3   298  ARG298      0.0489
    178  CD        33.0840  -11.4710   85.9740 C.3   298  ARG298      0.2205
    179  NE        31.9540  -11.3820   86.8950 N.pl3 298  ARG298     -0.0865
    180  CZ        32.0680  -11.1180   88.1920 C.cat 298  ARG298      0.5346
    181  NH1       33.2670  -10.9130   88.7230 N.pl3 298  ARG298      0.1354
    182  NH2       30.9890  -11.0660   88.9650 N.pl3 298  ARG298      0.1354
@<TRIPOS>BOND
     1   174   175    2
     2   174   173    1
     3   172   173    1
     4   173   176    1
     5   176   177    1
     6   177   178    1
     7   178   179    1
     8   179   180    2
     9   153   154    1
    10   158   159    1
    11   158   157    1
    12   159   160    1
    13   180   181    1
    14   180   182    1
    15   157   154    1
    16   154   155    1
    17   155   156    2
    18    13    12    1
    19    13    14    2
    20    37    35    1
    21    12    11    1
    22    36    35    1
    23    35    34    2
    24    10     9    2
    25    11     9   am
    26    34    33    1
    27     9     8    1
    28   144   142   ar
    29   133   134    2
    30   133   132    1
    31   137   138    1
    32    33    32    1
    33    27    28    1
    34   143   142   ar
    35   142   141    1
    36   132   131    1
    37   132   135    1
    38   161   162    1
    39   138   141    1
    40   138   139    1
    41    32    31    1
    42   171   169    1
    43   170   169    1
    44   130   129    2
    45    31    28    1
    46    30    29    2
    47   131   129   am
    48   136   135    1
    49   162   163    1
    50   162   165    1
    51   169   168    2
    52     8     7    1
    53    28    29    1
    54   129   128    1
    55   166   165    1
    56   166   167    1
    57   164   163    2
    58     7     3   am
    59   139   140    2
    60     4     3    2
    61    29    38   am
    62     3     2    1
    63   168   167    1
    64   128   127    1
    65     1     2    1
    66     2     5    1
    67    38    39    1
    68    39    42    1
    69    39    40    1
    70     5     6    1
    71    15    16    1
    72   152   150   ar
    73    44    40   am
    74    44    45    1
    75    42    43    1
    76    86    87    1
    77    48    45    1
    78    48    49    1
    79    17    16    1
    80    17    18    2
    81    40    41    2
    82   145   146    1
    83   150   151   ar
    84   150   149    1
    85    87    88    1
    86   107   106    1
    87    52    50   am
    88    16    19    1
    89    45    46    1
    90    49    50    1
    91   149   146    1
    92    50    51    2
    93    97    95   ar
    94   146   147    1
    95    19    20    1
    96   106   103    1
    97    88    90   am
    98    88    89    2
    99    74    72    1
   100    46    47    2
   101    90    91    1
   102    95    96   ar
   103    95    94    1
   104    20    21   ar
   105    20    22   ar
   106    21    23   ar
   107   102   103    1
   108   102   100   am
   109   147   148    2
   110   103   104    1
   111    72    71    2
   112    72    73    1
   113    71    70    1
   114    98    99    1
   115    98    92   am
   116    22    24   ar
   117    99   100    1
   118    23    25   ar
   119    94    91    1
   120    91    92    1
   121    53    54    1
   122   100   101    2
   123    69    70    1
   124    69    68    1
   125    24    25   ar
   126    92    93    2
   127    25    26    1
   128    57    54    1
   129    57    58    1
   130   104   105    2
   131    54    55    1
   132    58    59   ar
   133    58    60   ar
   134    68    65    1
   135    64    55   am
   136    64    65    1
   137    59    61   ar
   138    55    56    2
   139    60    62   ar
   140    65    66    1
   141    61    63   ar
   142    62    63   ar
   143   108   109    1
   144    66    67    2
   145   113   112    1
   146   115   116    1
   147   115   110   am
   148   116   117    1
   149   114   112    1
   150    75    76    1
   151   117   118    2
   152   112   109    1
   153   109   110    1
   154   110   111    2
   155    76    77    1
   156    76    79    1
   157    77    78    2
   158    81    80    1
   159    81    82    1
   160    84    83    1
   161    80    79    1
   162    82    83    2
   163    83    85    1
   164   126   124    1
   165   125   124    1
   166   119   120    1
   167   123   124    1
   168   123   120    1
   169   120   121    1
   170   121   122    2
