@<TRIPOS>MOLECULE
tmp/4xymB00.pdb
 158 150 0 0 0
SMALL
GASTEIGER

@<TRIPOS>ATOM
      1  N         94.1580   36.5940   96.7330 N.3    34  THR34      -0.1218
      2  CA        95.2890   37.4870   96.5410 C.3    34  THR34       0.1862
      3  C         95.2340   38.6490   97.5350 C.2    34  THR34       0.2287
      4  O         94.1600   39.1390   97.8820 O.2    34  THR34      -0.2866
      5  CB        95.2770   38.0920   95.1450 C.3    34  THR34       0.1770
      6  OG1       94.0980   38.8910   95.0170 O.3    34  THR34      -0.2211
      7  CG2       95.2910   37.0170   94.0570 C.3    34  THR34       0.0375
      8  N         99.5800   42.8300   89.6440 N.3    57  VAL57      -0.1245
      9  CA        98.5320   42.8010   88.6400 C.3    57  VAL57       0.1561
     10  C         97.5870   43.9580   88.9200 C.2    57  VAL57       0.2260
     11  O         97.2600   44.2200   90.0870 O.2    57  VAL57      -0.2867
     12  CB        97.7580   41.4730   88.6780 C.3    57  VAL57       0.0252
     13  CG1       96.5460   41.5210   87.7640 C.3    57  VAL57       0.0019
     14  CG2       98.6740   40.3180   88.3150 C.3    57  VAL57       0.0019
     15  N         93.7280   45.6320   87.7610 N.3    59  LYS59      -0.1245
     16  CA        92.4350   45.3230   87.1600 C.3    59  LYS59       0.1561
     17  C         91.4440   46.4620   87.3690 C.2    59  LYS59       0.2260
     18  O         91.4220   47.1040   88.4180 O.2    59  LYS59      -0.2867
     19  CB        91.8490   44.0420   87.7530 C.3    59  LYS59       0.0271
     20  CG        92.7060   42.8040   87.6120 C.3    59  LYS59       0.0035
     21  CD        92.0010   41.6140   88.2460 C.3    59  LYS59       0.0206
     22  CE        92.8570   40.3630   88.2510 C.3    59  LYS59       0.1093
     23  NZ        92.2060   39.2610   89.0140 N.3    59  LYS59      -0.1314
     24  N         81.8980   43.1740   83.9340 N.3    66  VAL66      -0.1231
     25  CA        81.9590   41.8480   84.5300 C.3    66  VAL66       0.1692
     26  C         83.1080   41.0600   83.9000 C.2    66  VAL66       0.2592
     27  O         83.8550   40.3830   84.6050 O.2    66  VAL66      -0.2718
     28  CB        80.6240   41.0850   84.3780 C.3    66  VAL66       0.0266
     29  CG1       80.2250   40.9600   82.9170 C.3    66  VAL66       0.0020
     30  CG2       80.7180   39.7030   85.0460 C.3    66  VAL66       0.0020
     31  N         83.2430   41.1550   82.5790 N.am   67  HIS67      -0.1962
     32  CA        84.3280   40.4930   81.8570 C.3    67  HIS67       0.1787
     33  C         85.4520   41.4980   81.5970 C.2    67  HIS67       0.2620
     34  O         85.4170   42.2650   80.6390 O.2    67  HIS67      -0.2715
     35  CB        83.8180   39.8890   80.5410 C.3    67  HIS67       0.0785
     36  CG        82.6060   39.0220   80.7040 C.ar   67  HIS67       0.0821
     37  ND1       82.6470   37.7890   81.3190 N.ar   67  HIS67      -0.2267
     38  CD2       81.3220   39.2040   80.3140 C.ar   67  HIS67       0.1154
     39  CE1       81.4370   37.2580   81.3190 C.ar   67  HIS67       0.1986
     40  NE2       80.6150   38.0960   80.7150 N.ar   67  HIS67      -0.2212
     41  N         86.4590   41.4770   82.4600 N.am   68  LYS68      -0.1963
     42  CA        87.4700   42.5260   82.4760 C.3    68  LYS68       0.1728
     43  C         88.5020   42.3750   81.3650 C.2    68  LYS68       0.2617
     44  O         88.8950   43.3630   80.7590 O.2    68  LYS68      -0.2715
     45  CB        88.1310   42.5420   83.8540 C.3    68  LYS68       0.0311
     46  CG        87.1410   42.9410   84.9670 C.3    68  LYS68       0.0038
     47  CD        87.6690   42.6740   86.3640 C.3    68  LYS68       0.0206
     48  CE        87.5660   41.1860   86.6140 C.3    68  LYS68       0.1093
     49  NZ        88.5670   40.6190   87.5040 N.3    68  LYS68      -0.1314
     50  N         88.9400   41.1510   81.0920 N.am   69  SER69      -0.1936
     51  CA        89.9070   40.9210   80.0180 C.3    69  SER69       0.2055
     52  C         89.3560   41.3390   78.6530 C.2    69  SER69       0.2643
     53  O         90.0620   41.9430   77.8500 O.2    69  SER69      -0.2714
     54  CB        90.3060   39.4530   79.9610 C.3    69  SER69       0.2130
     55  OG        90.9430   39.0680   81.1520 O.3    69  SER69      -0.2179
     56  N         88.0930   41.0170   78.3990 N.am   70  ASP70      -0.1971
     57  CA        87.4870   41.2700   77.0920 C.3    70  ASP70       0.1709
     58  C         87.5080   42.7460   76.7060 C.2    70  ASP70       0.2293
     59  O         87.4750   43.0700   75.5210 O.2    70  ASP70      -0.2864
     60  CB        86.0440   40.7640   77.0660 C.3    70  ASP70       0.1436
     61  CG        85.9510   39.2460   77.0690 C.2    70  ASP70       0.3671
     62  OD1       86.9970   38.5670   76.9510 O.co2  70  ASP70      -0.2456
     63  OD2       84.8180   38.7330   77.1900 O.co2  70  ASP70      -0.2456
     64  N         92.5800   44.2170   82.3260 N.3    74  VAL74      -0.1245
     65  CA        93.4840   43.4110   83.1530 C.3    74  VAL74       0.1561
     66  C         94.9170   43.4240   82.6360 C.2    74  VAL74       0.2260
     67  O         95.1690   43.0640   81.4950 O.2    74  VAL74      -0.2867
     68  CB        93.0160   41.9500   83.2370 C.3    74  VAL74       0.0252
     69  CG1       93.9720   41.1130   84.0960 C.3    74  VAL74       0.0019
     70  CG2       91.6060   41.8830   83.8090 C.3    74  VAL74       0.0019
     71  N         98.8170   42.0370   83.7460 N.3    76  VAL76      -0.1245
     72  CA        99.5410   41.1530   84.6520 C.3    76  VAL76       0.1561
     73  C        101.0480   41.3700   84.5720 C.2    76  VAL76       0.2260
     74  O        101.5370   42.0200   83.6560 O.2    76  VAL76      -0.2867
     75  CB        99.2380   39.6630   84.3640 C.3    76  VAL76       0.0252
     76  CG1       97.7320   39.3770   84.5130 C.3    76  VAL76       0.0019
     77  CG2       99.7440   39.2620   82.9870 C.3    76  VAL76       0.0019
     78  N         96.9590   43.8800   93.0010 N.3   110  GLN110     -0.1231
     79  CA        97.0600   42.6030   93.6810 C.3   110  GLN110      0.1698
     80  C         98.3460   41.8970   93.3200 C.2   110  GLN110      0.2592
     81  O         98.9300   42.1550   92.2730 O.2   110  GLN110     -0.2718
     82  CB        95.8610   41.7090   93.3440 C.3   110  GLN110      0.0381
     83  CG        95.7110   41.3170   91.8750 C.3   110  GLN110      0.0905
     84  CD        94.2980   40.8640   91.5430 C.2   110  GLN110      0.2608
     85  OE1       94.0100   39.6680   91.4820 O.2   110  GLN110     -0.2717
     86  NE2       93.4080   41.8260   91.3090 N.am  110  GLN110     -0.0878
     87  N         98.7750   40.9930   94.1940 N.am  111  GLU111     -0.1966
     88  CA        99.9800   40.2220   93.9400 C.3   111  GLU111      0.1733
     89  C         99.8430   39.4550   92.6340 C.2   111  GLU111      0.2616
     90  O         98.7380   39.1580   92.1900 O.2   111  GLU111     -0.2715
     91  CB       100.2660   39.2720   95.0980 C.3   111  GLU111      0.0429
     92  CG        99.2990   38.1190   95.2030 C.3   111  GLU111      0.1163
     93  CD        99.1820   37.5710   96.6190 C.2   111  GLU111      0.3649
     94  OE1       99.1530   38.3820   97.5730 O.co2 111  GLU111     -0.2457
     95  OE2       99.1230   36.3280   96.7750 O.co2 111  GLU111     -0.2457
     96  N        100.9730   39.1800   92.0020 N.am  112  PHE112     -0.1960
     97  CA       101.0080   38.3720   90.7960 C.3   112  PHE112      0.1771
     98  C        101.1850   36.9120   91.1680 C.2   112  PHE112      0.2619
     99  O        102.2080   36.5490   91.7500 O.2   112  PHE112     -0.2715
    100  CB       102.1400   38.8130   89.8700 C.3   112  PHE112      0.0574
    101  CG       102.3230   37.9230   88.6790 C.ar  112  PHE112     -0.0200
    102  CD1      101.3660   37.8850   87.6720 C.ar  112  PHE112     -0.0042
    103  CD2      103.4460   37.1190   88.5620 C.ar  112  PHE112     -0.0042
    104  CE1      101.5330   37.0580   86.5600 C.ar  112  PHE112     -0.0003
    105  CE2      103.6230   36.3010   87.4530 C.ar  112  PHE112     -0.0003
    106  CZ       102.6640   36.2710   86.4540 C.ar  112  PHE112     -0.0000
    107  N        100.1650   36.1030   90.9200 N.am  113  ALA113     -0.1977
    108  CA       100.2560   34.6870   91.2130 C.3   113  ALA113      0.1597
    109  C        101.0480   33.9970   90.0900 C.2   113  ALA113      0.2287
    110  O        100.7280   34.1720   88.9170 O.2   113  ALA113     -0.2864
    111  CB        98.8770   34.0880   91.3560 C.3   113  ALA113      0.0319
    112  N         95.3260   25.7250   86.7660 N.3   118  GLU118     -0.1245
    113  CA        94.1300   26.5360   86.9700 C.3   118  GLU118      0.1567
    114  C         92.8950   25.6650   87.2100 C.2   118  GLU118      0.2260
    115  O         92.7170   24.6280   86.5560 O.2   118  GLU118     -0.2867
    116  CB        93.8860   27.4500   85.7650 C.3   118  GLU118      0.0388
    117  CG        94.8830   28.5930   85.6200 C.3   118  GLU118      0.1160
    118  CD        94.4080   29.6620   84.6390 C.2   118  GLU118      0.3649
    119  OE1       93.3220   29.4950   84.0480 O.co2 118  GLU118     -0.2457
    120  OE2       95.1290   30.6630   84.4480 O.co2 118  GLU118     -0.2457
    121  N         87.0660   31.8350   89.2580 N.3   210  ASN210     -0.1226
    122  CA        87.6160   31.4520   87.9640 C.3   210  ASN210      0.1770
    123  C         88.6530   32.4600   87.4850 C.2   210  ASN210      0.2439
    124  O         88.2800   33.5210   86.9940 O.2   210  ASN210     -0.2733
    125  CB        86.5110   31.3260   86.9180 C.3   210  ASN210      0.1168
    126  CG        87.0440   30.8850   85.5630 C.2   210  ASN210      0.2627
    127  OD1       88.2570   30.7190   85.3820 O.2   210  ASN210     -0.2716
    128  ND2       86.1480   30.6880   84.6120 N.am  210  ASN210     -0.0877
    129  N         89.9500   32.1310   87.5970 N.am  211  PRO211     -0.2729
    130  CA        90.5480   30.8830   88.0670 C.3   211  PRO211      0.1401
    131  C         91.0680   30.9080   89.4920 C.2   211  PRO211      0.2269
    132  O         91.3450   31.9600   90.0900 O.2   211  PRO211     -0.2865
    133  CB        91.7220   30.7080   87.1190 C.3   211  PRO211      0.0296
    134  CG        92.2190   32.0830   86.9640 C.3   211  PRO211      0.0237
    135  CD        90.9820   32.9960   87.0040 C.3   211  PRO211      0.0939
    136  N         94.3440   29.2210   91.1830 N.3   213  ILE213     -0.1245
    137  CA        95.6020   28.5980   90.7930 C.3   213  ILE213      0.1561
    138  C         96.0720   27.6240   91.8790 C.2   213  ILE213      0.2260
    139  O         96.1870   27.9780   93.0550 O.2   213  ILE213     -0.2867
    140  CB        96.6570   29.6590   90.4910 C.3   213  ILE213      0.0252
    141  CG1       96.0820   30.6140   89.4450 C.3   213  ILE213      0.0019
    142  CG2       97.9380   29.0050   90.0030 C.3   213  ILE213      0.0019
    143  CD1       97.0610   31.5680   88.8370 C.3   213  ILE213      0.0001
    144  N         92.3420   33.8420   92.3060 N.3   222  VAL222     -0.1231
    145  CA        92.8800   34.9660   91.5730 C.3   222  VAL222      0.1692
    146  C         91.7720   35.8800   90.9950 C.2   222  VAL222      0.2592
    147  O         92.0080   37.0500   90.6870 O.2   222  VAL222     -0.2718
    148  CB        93.8300   34.4220   90.4820 C.3   222  VAL222      0.0266
    149  CG1       93.5900   35.0550   89.1500 C.3   222  VAL222      0.0020
    150  CG2       95.2740   34.5680   90.9420 C.3   222  VAL222      0.0020
    151  N         90.5730   35.3370   90.8170 N.am  223  ASP223     -0.1974
    152  CA        89.4030   36.1410   90.4540 C.3   223  ASP223      0.1709
    153  C         88.1830   35.6080   91.1900 C.2   223  ASP223      0.2293
    154  O         88.0990   34.4160   91.4920 O.2   223  ASP223     -0.2864
    155  CB        89.1650   36.1290   88.9410 C.3   223  ASP223      0.1436
    156  CG        88.0450   37.0860   88.5020 C.2   223  ASP223      0.3671
    157  OD1       87.6680   37.9990   89.2790 O.co2 223  ASP223     -0.2456
    158  OD2       87.5400   36.9310   87.3610 O.co2 223  ASP223     -0.2456
@<TRIPOS>BOND
     1    59    58    2
     2    58    57    1
     3    62    61   ar
     4    60    61    1
     5    60    57    1
     6    61    63   ar
     7    57    56    1
     8    53    52    2
     9    56    52   am
    10    52    51    1
    11    54    51    1
    12    54    55    1
    13    51    50    1
    14    38    36   ar
    15    38    40   ar
    16    35    36    1
    17    35    32    1
    18    34    33    2
    19    36    37   ar
    20    40    39   ar
    21    44    43    2
    22    50    43   am
    23    39    37   ar
    24    43    42    1
    25    67    66    2
    26    33    32    1
    27    33    41   am
    28    32    31    1
    29    64    65    1
    30    41    42    1
    31    42    45    1
    32    31    26   am
    33    66    65    1
    34    29    28    1
    35    77    75    1
    36    65    68    1
    37    68    70    1
    38    68    69    1
    39    74    73    2
    40    71    72    1
    41    45    46    1
    42    26    25    1
    43    26    27    2
    44    24    25    1
    45   119   118   ar
    46    75    76    1
    47    75    72    1
    48    28    25    1
    49    28    30    1
    50   120   118   ar
    51    73    72    1
    52   128   126   am
    53   118   117    1
    54    46    47    1
    55   127   126    2
    56   126   125    1
    57   117   116    1
    58   116   113    1
    59    47    48    1
    60   106   104   ar
    61   106   105   ar
    62   115   114    2
    63   104   102   ar
    64    48    49    1
    65   112   113    1
    66   125   122    1
    67   134   135    1
    68   134   133    1
    69   113   114    1
    70   124   123    2
    71   135   129    1
    72   133   130    1
    73    16    17    1
    74    16    19    1
    75    16    15    1
    76   158   156   ar
    77    17    18    2
    78   105   103   ar
    79   123   129   am
    80   123   122    1
    81   129   130    1
    82    20    19    1
    83    20    21    1
    84   102   101   ar
    85    13    12    1
    86   122   121    1
    87   130   131    1
    88    21    22    1
    89    22    23    1
    90    14    12    1
    91   156   155    1
    92   156   157   ar
    93   103   101   ar
    94     9    12    1
    95     9    10    1
    96     9     8    1
    97   101   100    1
    98   143   141    1
    99   110   109    2
   100    10    11    2
   101   155   152    1
   102   149   148    1
   103   141   140    1
   104   131   132    2
   105   100    97    1
   106   142   140    1
   107   109   108    1
   108   152   151    1
   109   152   153    1
   110   148   150    1
   111   148   145    1
   112   140   137    1
   113   147   146    2
   114   137   136    1
   115   137   138    1
   116    97    98    1
   117    97    96    1
   118   151   146   am
   119   107    98   am
   120   107   108    1
   121   146   145    1
   122    98    99    2
   123   153   154    2
   124   108   111    1
   125    86    84   am
   126    85    84    2
   127    84    83    1
   128   145   144    1
   129    83    82    1
   130   138   139    2
   131    96    89   am
   132    90    89    2
   133    81    80    2
   134    89    88    1
   135    78    79    1
   136    80    79    1
   137    80    87   am
   138    82    79    1
   139    88    87    1
   140    88    91    1
   141     7     5    1
   142     6     5    1
   143    91    92    1
   144     5     2    1
   145    92    93    1
   146     2     1    1
   147     2     3    1
   148    93    95   ar
   149    93    94   ar
   150     3     4    2
