@<TRIPOS>MOLECULE
tmp/4xyxA00.pdb
 109 105 0 0 0
SMALL
GASTEIGER

@<TRIPOS>ATOM
      1  N          5.1920  -23.2960   29.8580 N.3   211  TYR211     -0.1227
      2  CA         6.4560  -24.0390   29.6810 C.3   211  TYR211      0.1736
      3  C          6.1330  -25.5120   29.4490 C.2   211  TYR211      0.2596
      4  O          5.3950  -26.1200   30.2100 O.2   211  TYR211     -0.2718
      5  CB         7.3470  -23.8410   30.8770 C.3   211  TYR211      0.0548
      6  CG         8.7850  -24.2470   30.6880 C.ar  211  TYR211     -0.0200
      7  CD1        9.7870  -23.2520   30.5730 C.ar  211  TYR211     -0.0009
      8  CD2        9.1750  -25.6270   30.6720 C.ar  211  TYR211     -0.0009
      9  CE1       11.0990  -23.6100   30.4030 C.ar  211  TYR211      0.0417
     10  CE2       10.5080  -26.0010   30.5260 C.ar  211  TYR211      0.0417
     11  CZ        11.4700  -24.9980   30.3960 C.ar  211  TYR211      0.1957
     12  OH        12.8100  -25.2680   30.2830 O.3   211  TYR211     -0.2866
     13  N          6.6350  -26.0770   28.3550 N.am  212  THR212     -0.1953
     14  CA         6.4370  -27.5160   28.1180 C.3   212  THR212      0.1897
     15  C          7.4970  -28.3290   28.9270 C.2   212  THR212      0.2313
     16  O          8.6990  -28.1520   28.7350 O.2   212  THR212     -0.2863
     17  CB         6.5620  -27.7950   26.6330 C.3   212  THR212      0.1794
     18  OG1        5.6130  -26.9610   25.9720 O.3   212  THR212     -0.2208
     19  CG2        6.2450  -29.3360   26.3040 C.3   212  THR212      0.0378
     20  N          9.5020  -17.5260   30.9980 N.3   455  GLN455     -0.1245
     21  CA        10.3540  -18.7430   31.1520 C.3   455  GLN455      0.1566
     22  C         11.7540  -18.3830   31.5300 C.2   455  GLN455      0.2260
     23  O         12.3570  -17.3990   31.0230 O.2   455  GLN455     -0.2867
     24  CB        10.4920  -19.5160   29.8370 C.3   455  GLN455      0.0367
     25  CG         9.1810  -19.7520   29.0720 C.3   455  GLN455      0.0905
     26  CD         9.3400  -20.6390   27.8460 C.2   455  GLN455      0.2608
     27  OE1       10.4470  -20.7720   27.2470 O.2   455  GLN455     -0.2717
     28  NE2        8.2060  -21.2170   27.4070 N.am  455  GLN455     -0.0878
     29  N         15.6160  -20.2780   31.3070 N.3   457  LEU457     -0.1245
     30  CA        16.2510  -21.0190   30.2110 C.3   457  LEU457      0.1561
     31  C         17.0440  -22.1910   30.7860 C.2   457  LEU457      0.2260
     32  O         17.8660  -22.0160   31.6960 O.2   457  LEU457     -0.2867
     33  CB        17.1690  -20.1230   29.3470 C.3   457  LEU457      0.0270
     34  CG        17.8840  -20.8320   28.1450 C.3   457  LEU457      0.0019
     35  CD1       16.9300  -21.4240   27.1130 C.3   457  LEU457      0.0001
     36  CD2       18.9400  -19.9680   27.4410 C.3   457  LEU457      0.0001
     37  N         10.4970  -18.2140   21.7390 N.3   557  ILE557     -0.1231
     38  CA        11.0180  -19.5790   21.8330 C.3   557  ILE557      0.1692
     39  C         11.8860  -19.9430   20.6210 C.2   557  ILE557      0.2591
     40  O         11.7470  -19.3670   19.5270 O.2   557  ILE557     -0.2718
     41  CB         9.9090  -20.6390   21.9240 C.3   557  ILE557      0.0266
     42  CG1        8.9590  -20.4800   20.7540 C.3   557  ILE557      0.0019
     43  CG2        9.1490  -20.5610   23.2880 C.3   557  ILE557      0.0020
     44  CD1        7.8310  -21.4700   20.6900 C.3   557  ILE557      0.0001
     45  N         12.7170  -20.9490   20.8010 N.am  558  LYS558     -0.1980
     46  CA        13.3360  -21.5500   19.6120 C.3   558  LYS558      0.1596
     47  C         12.5080  -22.7510   19.2640 C.2   558  LYS558      0.2287
     48  O         12.2410  -23.6400   20.1290 O.2   558  LYS558     -0.2864
     49  CB        14.7770  -21.9310   20.0050 C.3   558  LYS558      0.0298
     50  CG        15.4770  -22.8990   19.0390 C.3   558  LYS558      0.0038
     51  CD        15.9740  -22.1140   17.8520 C.3   558  LYS558      0.0206
     52  CE        16.5910  -23.0730   16.8250 C.3   558  LYS558      0.1093
     53  NZ        17.7840  -23.7060   17.4520 N.3   558  LYS558     -0.1314
     54  N         11.5090  -26.3430   17.4940 N.3   560  SER560     -0.1202
     55  CA        12.3590  -27.5510   17.4360 C.3   560  SER560      0.2020
     56  C         12.5390  -28.0600   15.9770 C.2   560  SER560      0.2618
     57  O         13.5180  -28.8080   15.6720 O.2   560  SER560     -0.2717
     58  CB        11.7750  -28.6640   18.3990 C.3   560  SER560      0.2103
     59  OG        10.6410  -29.2040   17.6840 O.3   560  SER560     -0.2182
     60  N         11.5970  -27.7040   15.0960 N.am  561  GLN561     -0.1979
     61  CA        11.6040  -28.1480   13.6820 C.3   561  GLN561      0.1601
     62  C         12.1640  -27.0310   12.7660 C.2   561  GLN561      0.2287
     63  O         12.0990  -25.8260   13.0960 O.2   561  GLN561     -0.2864
     64  CB        10.1760  -28.5560   13.1830 C.3   561  GLN561      0.0394
     65  CG         9.4640  -29.5560   14.1270 C.3   561  GLN561      0.0908
     66  CD        10.2930  -30.8310   14.2730 C.2   561  GLN561      0.2608
     67  OE1       10.5730  -31.4960   13.2660 O.2   561  GLN561     -0.2717
     68  NE2       10.8630  -31.0570   15.4540 N.am  561  GLN561     -0.0878
     69  N          4.6680  -21.4490   23.8940 N.3   618  THR618     -0.1203
     70  CA         5.4830  -22.6410   24.0970 C.3   618  THR618      0.1994
     71  C          5.2290  -23.6190   22.9480 C.2   618  THR618      0.2618
     72  O          4.1380  -23.6520   22.3910 O.2   618  THR618     -0.2717
     73  CB         5.1990  -23.2960   25.4650 C.3   618  THR618      0.1784
     74  OG1        6.2160  -24.2520   25.7430 O.3   618  THR618     -0.2211
     75  CG2        3.8090  -24.0010   25.5080 C.3   618  THR618      0.0376
     76  N          6.2350  -24.4000   22.5770 N.am  619  GLU619     -0.1965
     77  CA         6.0020  -25.4290   21.5770 C.3   619  GLU619      0.1733
     78  C          5.4090  -26.5900   22.3280 C.2   619  GLU619      0.2616
     79  O          6.0630  -27.1080   23.2360 O.2   619  GLU619     -0.2715
     80  CB         7.3370  -25.8820   20.9290 C.3   619  GLU619      0.0429
     81  CG         7.1840  -26.9820   19.8580 C.3   619  GLU619      0.1163
     82  CD         8.5030  -27.2470   19.1040 C.2   619  GLU619      0.3649
     83  OE1        9.5790  -26.5490   19.3220 O.co2 619  GLU619     -0.2457
     84  OE2        8.4660  -28.1710   18.2580 O.co2 619  GLU619     -0.2457
     85  N          4.1990  -26.9910   21.9480 N.am  620  LEU620     -0.1964
     86  CA         3.5000  -28.1890   22.5160 C.3   620  LEU620      0.1713
     87  C          4.1900  -29.5130   22.0940 C.2   620  LEU620      0.2458
     88  O          4.9150  -29.5510   21.0620 O.2   620  LEU620     -0.2730
     89  CB         1.9980  -28.1780   22.0790 C.3   620  LEU620      0.0310
     90  CG         1.3300  -26.8460   22.5150 C.3   620  LEU620      0.0022
     91  CD1       -0.0230  -26.7180   21.9380 C.3   620  LEU620      0.0001
     92  CD2        1.2570  -26.7700   24.0450 C.3   620  LEU620      0.0001
     93  N          3.9230  -30.6180   22.8420 N.am  621  PRO621     -0.2727
     94  CA         4.5310  -31.9320   22.4570 C.3   621  PRO621      0.1402
     95  C          4.2570  -32.3330   21.0060 C.2   621  PRO621      0.2269
     96  O          5.0500  -33.0240   20.4230 O.2   621  PRO621     -0.2865
     97  CB         3.8380  -32.9150   23.4120 C.3   621  PRO621      0.0296
     98  CG         3.7330  -32.0630   24.6690 C.3   621  PRO621      0.0237
     99  CD         3.3090  -30.6790   24.1940 C.3   621  PRO621      0.0939
    100  N          4.0890  -30.2950   18.4650 N.3   623  HIS623     -0.1241
    101  CA         4.6410  -29.2470   17.5880 C.3   623  HIS623      0.1621
    102  C          3.7230  -28.1280   17.2490 C.2   623  HIS623      0.2264
    103  O          4.1340  -27.2600   16.4370 O.2   623  HIS623     -0.2867
    104  CB         5.4020  -29.8000   16.3320 C.3   623  HIS623      0.0745
    105  CG         6.4660  -30.8730   16.7060 C.ar  623  HIS623      0.0817
    106  ND1        7.4690  -30.6130   17.5910 N.ar  623  HIS623     -0.2268
    107  CD2        6.5930  -32.2310   16.3600 C.ar  623  HIS623      0.1154
    108  CE1        8.2270  -31.7310   17.7780 C.ar  623  HIS623      0.1986
    109  NE2        7.6810  -32.7270   17.0340 N.ar  623  HIS623     -0.2212
@<TRIPOS>BOND
     1    62    63    2
     2    62    61    1
     3    64    61    1
     4    64    65    1
     5    67    66    2
     6    61    60    1
     7    65    66    1
     8    66    68   am
     9    60    56   am
    10    57    56    2
    11    56    55    1
    12   104   105    1
    13   104   101    1
    14   107   105   ar
    15   107   109   ar
    16   103   102    2
    17   105   106   ar
    18    52    53    1
    19    52    51    1
    20   109   108   ar
    21   102   101    1
    22    55    54    1
    23    55    58    1
    24   101   100    1
    25   106   108   ar
    26    59    58    1
    27    51    50    1
    28    84    82   ar
    29    50    49    1
    30    82    83   ar
    31    82    81    1
    32    47    46    1
    33    47    48    2
    34    40    39    2
    35    46    49    1
    36    46    45    1
    37    81    80    1
    38    96    95    2
    39    39    45   am
    40    39    38    1
    41    44    42    1
    42    42    41    1
    43    80    77    1
    44    95    94    1
    45    88    87    2
    46    77    78    1
    47    77    76    1
    48    37    38    1
    49    38    41    1
    50    41    43    1
    51    91    90    1
    52    85    78   am
    53    85    86    1
    54    89    90    1
    55    89    86    1
    56    87    86    1
    57    87    93   am
    58    78    79    2
    59    72    71    2
    60    94    93    1
    61    94    97    1
    62    90    92    1
    63    76    71   am
    64    93    99    1
    65    71    70    1
    66    97    98    1
    67    69    70    1
    68    70    73    1
    69    99    98    1
    70    73    75    1
    71    73    74    1
    72    18    17    1
    73    19    17    1
    74    17    14    1
    75    35    34    1
    76    27    26    2
    77    28    26   am
    78    36    34    1
    79    26    25    1
    80    14    13    1
    81    14    15    1
    82    34    33    1
    83    13     3   am
    84    16    15    2
    85    25    24    1
    86    33    30    1
    87     3     2    1
    88     3     4    2
    89     2     1    1
    90     2     5    1
    91    24    21    1
    92    30    31    1
    93    30    29    1
    94    12    11    1
    95    11     9   ar
    96    11    10   ar
    97     9     7   ar
    98    10     8   ar
    99     7     6   ar
   100     8     6   ar
   101     6     5    1
   102    31    32    2
   103    20    21    1
   104    23    22    2
   105    21    22    1
