@<TRIPOS>MOLECULE
tmp/4xz2A00.pdb
 130 123 0 0 0
SMALL
GASTEIGER

@<TRIPOS>ATOM
      1  N        -15.4420  155.6860  137.4520 N.3   372  ALA372     -0.1231
      2  CA       -16.7570  156.0720  136.9660 C.3   372  ALA372      0.1679
      3  C        -16.9090  155.5850  135.5560 C.2   372  ALA372      0.2434
      4  O        -15.9280  155.2830  134.8940 O.2   372  ALA372     -0.2733
      5  CB       -16.9210  157.5990  137.0170 C.3   372  ALA372      0.0304
      6  N        -18.1450  155.5420  135.0620 N.am  373  PRO373     -0.2729
      7  CA       -18.3800  155.1110  133.6630 C.3   373  PRO373      0.1401
      8  C        -17.8640  156.1100  132.6860 C.2   373  PRO373      0.2269
      9  O        -17.8960  157.2990  132.9640 O.2   373  PRO373     -0.2865
     10  CB       -19.9080  155.0520  133.5390 C.3   373  PRO373      0.0296
     11  CG       -20.4160  155.0320  134.9460 C.3   373  PRO373      0.0237
     12  CD       -19.4120  155.7830  135.7790 C.3   373  PRO373      0.0939
     13  N        -15.7320  152.4230  141.8550 N.3   433  ARG433     -0.1245
     14  CA       -14.5470  153.1420  142.3170 C.3   433  ARG433      0.1563
     15  C        -13.6900  152.4190  143.3560 C.2   433  ARG433      0.2260
     16  O        -12.5520  152.8090  143.5830 O.2   433  ARG433     -0.2867
     17  CB       -14.9630  154.4880  142.8920 C.3   433  ARG433      0.0307
     18  CG       -15.4320  155.4280  141.8170 C.3   433  ARG433      0.0489
     19  CD       -15.8510  156.7080  142.4620 C.3   433  ARG433      0.2205
     20  NE       -16.3240  157.6910  141.5190 N.pl3 433  ARG433     -0.0865
     21  CZ       -15.5530  158.3580  140.6870 C.cat 433  ARG433      0.5346
     22  NH1      -14.2380  158.1790  140.6790 N.pl3 433  ARG433      0.1354
     23  NH2      -16.1200  159.2740  139.9060 N.pl3 433  ARG433      0.1354
     24  N        -10.0190  154.7820  135.3090 N.3   460  GLY460     -0.1210
     25  CA        -9.4820  156.0790  135.6050 C.3   460  GLY460      0.1956
     26  C         -8.3610  156.1130  136.6140 C.2   460  GLY460      0.2612
     27  O         -7.5440  155.2200  136.6790 O.2   460  GLY460     -0.2717
     28  N         -8.3340  157.1670  137.4090 N.am  461  PHE461     -0.1962
     29  CA        -7.3070  157.3140  138.4070 C.3   461  PHE461      0.1771
     30  C         -7.3510  156.1760  139.4220 C.2   461  PHE461      0.2619
     31  O         -6.3050  155.7400  139.8610 O.2   461  PHE461     -0.2715
     32  CB        -7.4450  158.6500  139.1130 C.3   461  PHE461      0.0574
     33  CG        -6.1910  159.1330  139.7400 C.ar  461  PHE461     -0.0200
     34  CD1       -5.2990  159.8680  139.0160 C.ar  461  PHE461     -0.0042
     35  CD2       -5.9220  158.8770  141.0650 C.ar  461  PHE461     -0.0042
     36  CE1       -4.1160  160.3330  139.5980 C.ar  461  PHE461     -0.0003
     37  CE2       -4.7590  159.3250  141.6500 C.ar  461  PHE461     -0.0003
     38  CZ        -3.8550  160.0670  140.9180 C.ar  461  PHE461     -0.0000
     39  N         -8.5300  155.6750  139.7910 N.am  462  GLU462     -0.1977
     40  CA        -8.5750  154.5330  140.7060 C.3   462  GLU462      0.1602
     41  C         -7.9740  153.2550  140.1100 C.2   462  GLU462      0.2287
     42  O         -7.4470  152.4260  140.8380 O.2   462  GLU462     -0.2864
     43  CB        -9.9810  154.2530  141.2040 C.3   462  GLU462      0.0415
     44  CG       -10.4530  155.2500  142.2490 C.3   462  GLU462      0.1163
     45  CD       -11.5850  156.1240  141.7560 C.2   462  GLU462      0.3649
     46  OE1      -11.6370  156.3620  140.4960 O.co2 462  GLU462     -0.2457
     47  OE2      -12.3500  156.6110  142.6340 O.co2 462  GLU462     -0.2457
     48  N        -11.8460  157.7040  131.1820 N.3   490  THR490     -0.1203
     49  CA       -12.4090  158.6650  132.1240 C.3   490  THR490      0.1994
     50  C        -12.7300  159.9320  131.3760 C.2   490  THR490      0.2618
     51  O        -12.0310  160.2840  130.4280 O.2   490  THR490     -0.2717
     52  CB       -11.5000  158.9790  133.3540 C.3   490  THR490      0.1784
     53  OG1      -12.1090  160.0160  134.1090 O.3   490  THR490     -0.2211
     54  CG2      -10.1430  159.4390  132.9200 C.3   490  THR490      0.0376
     55  N        -13.8550  160.5420  131.7200 N.am  491  VAL491     -0.1965
     56  CA       -14.2500  161.7670  131.0490 C.3   491  VAL491      0.1727
     57  C        -13.2720  162.8940  131.4340 C.2   491  VAL491      0.2616
     58  O        -13.0840  163.8150  130.6730 O.2   491  VAL491     -0.2715
     59  CB       -15.7050  162.2180  131.3120 C.3   491  VAL491      0.0290
     60  CG1      -16.6780  161.1920  130.7650 C.3   491  VAL491      0.0023
     61  CG2      -15.9430  162.4710  132.7850 C.3   491  VAL491      0.0023
     62  N        -12.6230  162.7510  132.5800 N.am  492  SER492     -0.1950
     63  CA       -11.8050  163.7870  133.1250 C.3   492  SER492      0.1924
     64  C        -10.4270  164.0070  132.5130 C.2   492  SER492      0.2314
     65  O         -9.8760  165.1020  132.6240 O.2   492  SER492     -0.2863
     66  CB       -11.6390  163.5280  134.6080 C.3   492  SER492      0.2116
     67  OG       -12.8880  163.5720  135.2390 O.3   492  SER492     -0.2180
     68  N         -7.5300  162.8060  133.5520 N.3   494  ASN494     -0.1240
     69  CA        -6.6110  163.0680  134.6270 C.3   494  ASN494      0.1653
     70  C         -5.7350  161.8620  134.9750 C.2   494  ASN494      0.2266
     71  O         -5.2290  161.7610  136.0930 O.2   494  ASN494     -0.2867
     72  CB        -7.3960  163.4490  135.8630 C.3   494  ASN494      0.1155
     73  CG        -8.1870  162.3030  136.4000 C.2   494  ASN494      0.2627
     74  OD1       -8.7180  161.5280  135.6460 O.2   494  ASN494     -0.2716
     75  ND2       -8.2720  162.1820  137.7010 N.am  494  ASN494     -0.0877
     76  N        -17.7040  169.0460  134.7750 N.3   535  MET535     -0.1230
     77  CA       -17.0330  167.9760  135.5060 C.3   535  MET535      0.1702
     78  C        -15.5040  168.0500  135.2730 C.2   535  MET535      0.2593
     79  O        -14.9900  168.9340  134.5740 O.2   535  MET535     -0.2718
     80  CB       -17.5400  166.6470  135.0260 C.3   535  MET535      0.0401
     81  CG       -18.7940  166.1880  135.7150 C.3   535  MET535      0.0596
     82  SD       -19.2570  164.4700  135.3040 S.3   535  MET535     -0.1393
     83  CE       -20.4160  164.2020  136.6010 C.3   535  MET535      0.0692
     84  N        -14.7890  167.1120  135.8850 N.am  536  GLY536     -0.1942
     85  CA       -13.3620  166.9540  135.6930 C.3   536  GLY536      0.2014
     86  C        -12.5970  166.7700  136.9670 C.2   536  GLY536      0.2639
     87  O        -11.4280  166.4600  136.9220 O.2   536  GLY536     -0.2714
     88  N        -13.2380  166.9320  138.1130 N.am  537  GLY537     -0.1954
     89  CA       -12.5480  166.8800  139.4030 C.3   537  GLY537      0.1869
     90  C        -11.6960  168.1170  139.5740 C.2   537  GLY537      0.2309
     91  O        -12.1370  169.2530  139.3290 O.2   537  GLY537     -0.2863
     92  N        -15.5720  172.1940  138.2820 N.3   591  GLU591     -0.1245
     93  CA       -16.2780  171.9520  139.5310 C.3   591  GLU591      0.1567
     94  C        -15.4370  172.1030  140.8090 C.2   591  GLU591      0.2260
     95  O        -15.9540  172.5100  141.8360 O.2   591  GLU591     -0.2867
     96  CB       -16.9580  170.5730  139.4970 C.3   591  GLU591      0.0388
     97  CG       -16.0150  169.3740  139.4180 C.3   591  GLU591      0.1160
     98  CD       -16.7500  168.0650  139.2330 C.2   591  GLU591      0.3649
     99  OE1      -17.9830  168.0470  139.4620 O.co2 591  GLU591     -0.2457
    100  OE2      -16.0920  167.0650  138.8760 O.co2 591  GLU591     -0.2457
    101  N        -24.0560  164.7270  135.5170 N.3   623  HIS623     -0.1241
    102  CA       -23.6790  163.3970  135.0090 C.3   623  HIS623      0.1621
    103  C        -24.0830  163.1180  133.5850 C.2   623  HIS623      0.2264
    104  O        -23.6600  162.1380  133.0460 O.2   623  HIS623     -0.2867
    105  CB       -24.2180  162.2950  135.8920 C.3   623  HIS623      0.0745
    106  CG       -23.5160  162.2030  137.1980 C.ar  623  HIS623      0.0817
    107  ND1      -23.6760  163.1350  138.1950 N.ar  623  HIS623     -0.2268
    108  CD2      -22.6180  161.3020  137.6610 C.ar  623  HIS623      0.1154
    109  CE1      -22.9010  162.8190  139.2160 C.ar  623  HIS623      0.1986
    110  NE2      -22.2620  161.7000  138.9260 N.ar  623  HIS623     -0.2212
    111  N        -21.0720  162.2180  131.5170 N.3   626  GLN626     -0.1245
    112  CA       -20.5840  160.8310  131.4600 C.3   626  GLN626      0.1566
    113  C        -21.1260  160.0960  130.2660 C.2   626  GLN626      0.2260
    114  O        -20.3700  159.4670  129.5020 O.2   626  GLN626     -0.2867
    115  CB       -20.9740  160.0410  132.6990 C.3   626  GLN626      0.0367
    116  CG       -20.1090  160.4110  133.8770 C.3   626  GLN626      0.0905
    117  CD       -20.3060  159.5680  135.0970 C.2   626  GLN626      0.2608
    118  OE1      -21.0610  158.6030  135.0690 O.2   626  GLN626     -0.2717
    119  NE2      -19.6300  159.9160  136.1860 N.am  626  GLN626     -0.0878
    120  N         -5.5360  164.1640  142.5360 N.3   690  ARG690     -0.1245
    121  CA        -5.6910  163.1500  141.4760 C.3   690  ARG690      0.1563
    122  C         -5.5310  163.7140  140.0730 C.2   690  ARG690      0.2260
    123  O         -6.3770  163.5000  139.2170 O.2   690  ARG690     -0.2867
    124  CB        -7.0310  162.4390  141.5650 C.3   690  ARG690      0.0307
    125  CG        -7.3030  161.8780  142.9370 C.3   690  ARG690      0.0489
    126  CD        -8.4460  160.8830  142.9460 C.3   690  ARG690      0.2205
    127  NE        -8.3200  160.0250  144.1250 N.pl3 690  ARG690     -0.0865
    128  CZ        -8.9840  158.8910  144.3350 C.cat 690  ARG690      0.5346
    129  NH1       -9.8480  158.4330  143.4420 N.pl3 690  ARG690      0.1354
    130  NH2       -8.7670  158.2170  145.4570 N.pl3 690  ARG690      0.1354
@<TRIPOS>BOND
     1   114   113    2
     2   113   112    1
     3    51    50    2
     4    58    57    2
     5    60    59    1
     6    56    59    1
     7    56    57    1
     8    56    55    1
     9    48    49    1
    10    59    61    1
    11    50    55   am
    12    50    49    1
    13    57    62   am
    14   112   111    1
    15   112   115    1
    16    49    52    1
    17    64    65    2
    18    64    63    1
    19    62    63    1
    20     8     9    2
    21     8     7    1
    22   115   116    1
    23    54    52    1
    24   104   103    2
    25    63    66    1
    26    52    53    1
    27    10     7    1
    28    10    11    1
    29    68    69    1
    30   103   102    1
    31     7     6    1
    32   116   117    1
    33    79    78    2
    34    66    67    1
    35    69    70    1
    36    69    72    1
    37    76    77    1
    38     4     3    2
    39    11    12    1
    40    70    71    2
    41   102   101    1
    42   102   105    1
    43    80    77    1
    44    80    81    1
    45     6     3   am
    46     6    12    1
    47   118   117    2
    48   117   119   am
    49    78    77    1
    50    78    84   am
    51    82    81    1
    52    82    83    1
    53    24    25    1
    54     3     2    1
    55    25    26    1
    56    74    73    2
    57    85    84    1
    58    85    86    1
    59    72    73    1
    60   105   106    1
    61    73    75   am
    62    26    27    2
    63    26    28   am
    64    87    86    2
    65     2     5    1
    66     2     1    1
    67    86    88   am
    68   106   108   ar
    69   106   107   ar
    70    28    29    1
    71   108   110   ar
    72    88    89    1
    73   107   109   ar
    74    92    93    1
    75    29    32    1
    76    29    30    1
    77   100    98   ar
    78   110   109   ar
    79    34    36   ar
    80    34    33   ar
    81    32    33    1
    82   123   122    2
    83    98    97    1
    84    98    99   ar
    85    91    90    2
    86    89    90    1
    87    97    96    1
    88    30    39   am
    89    30    31    2
    90    96    93    1
    91    93    94    1
    92    36    38   ar
    93    33    35   ar
    94    39    40    1
    95    23    21    1
    96   122   121    1
    97    41    40    1
    98    41    42    2
    99    46    45   ar
   100    22    21    1
   101    21    20    2
   102    40    43    1
   103    94    95    2
   104    38    37   ar
   105    35    37   ar
   106    43    44    1
   107   121   124    1
   108   121   120    1
   109    20    19    1
   110   124   125    1
   111    45    44    1
   112    45    47   ar
   113    18    19    1
   114    18    17    1
   115    13    14    1
   116    14    17    1
   117    14    15    1
   118   125   126    1
   119   126   127    1
   120    15    16    2
   121   129   128    1
   122   127   128    2
   123   128   130    1
