@<TRIPOS>MOLECULE
tmp/4xz2B02.pdb
 98 91 0 0 0
SMALL
GASTEIGER

@<TRIPOS>ATOM
      1  N        -43.2220  147.3890  108.6390 N.3    10  GLY10      -0.1225
      2  CA       -42.0770  148.2800  108.9040 C.3    10  GLY10       0.1811
      3  C        -41.9660  148.6440  110.3610 C.2    10  GLY10       0.2280
      4  O        -42.9640  148.9330  111.0150 O.2    10  GLY10      -0.2866
      5  N        -42.1670  140.3850  107.3040 N.3    73  ARG73      -0.1245
      6  CA       -43.1650  140.0140  106.2930 C.3    73  ARG73       0.1563
      7  C        -43.1950  138.5070  106.2190 C.2    73  ARG73       0.2260
      8  O        -42.1880  137.8980  105.9050 O.2    73  ARG73      -0.2867
      9  CB       -42.8380  140.6200  104.9200 C.3    73  ARG73       0.0307
     10  CG       -43.7030  141.8310  104.5970 C.3    73  ARG73       0.0489
     11  CD       -42.9730  142.9070  103.7980 C.3    73  ARG73       0.2205
     12  NE       -41.9800  143.6620  104.5970 N.pl3  73  ARG73      -0.0865
     13  CZ       -42.2180  144.7530  105.3410 C.cat  73  ARG73       0.5346
     14  NH1      -43.4410  145.2750  105.4530 N.pl3  73  ARG73       0.1354
     15  NH2      -41.2150  145.3300  105.9980 N.pl3  73  ARG73       0.1354
     16  N        -46.3770  152.7100  112.0830 N.3   149  SER149     -0.1202
     17  CA       -45.6940  153.0500  110.8500 C.3   149  SER149      0.2020
     18  C        -45.2880  154.5050  111.0070 C.2   149  SER149      0.2619
     19  O        -45.9440  155.2870  111.7040 O.2   149  SER149     -0.2717
     20  CB       -46.5690  152.7730  109.5840 C.3   149  SER149      0.2103
     21  OG       -47.7630  153.5350  109.5690 O.3   149  SER149     -0.2182
     22  N        -44.1530  154.8440  110.4090 N.am  150  ILE150     -0.1965
     23  CA       -43.7500  156.2390  110.2650 C.3   150  ILE150      0.1727
     24  C        -44.6620  156.9770  109.2510 C.2   150  ILE150      0.2616
     25  O        -44.7440  158.1900  109.2770 O.2   150  ILE150     -0.2715
     26  CB       -42.2750  156.3870  109.8350 C.3   150  ILE150      0.0290
     27  CG1      -42.0480  155.7640  108.4410 C.3   150  ILE150      0.0022
     28  CG2      -41.3610  155.7450  110.8790 C.3   150  ILE150      0.0023
     29  CD1      -40.7720  156.1890  107.7650 C.3   150  ILE150      0.0001
     30  N        -45.3650  156.2420  108.3900 N.am  151  ASP151     -0.1971
     31  CA       -46.0940  156.8460  107.2830 C.3   151  ASP151      0.1709
     32  C        -47.2630  157.7640  107.7010 C.2   151  ASP151      0.2293
     33  O        -47.5520  158.7560  107.0100 O.2   151  ASP151     -0.2864
     34  CB       -46.6070  155.7470  106.3560 C.3   151  ASP151      0.1436
     35  CG       -45.4870  154.9100  105.7450 C.2   151  ASP151      0.3671
     36  OD1      -44.3170  155.3380  105.7830 O.co2 151  ASP151     -0.2456
     37  OD2      -45.7910  153.8170  105.2160 O.co2 151  ASP151     -0.2456
     38  N        -50.3000  156.3020  107.8180 N.3   153  ASP153     -0.1239
     39  CA       -51.0790  155.6920  106.7230 C.3   153  ASP153      0.1674
     40  C        -52.5720  155.4230  107.0180 C.2   153  ASP153      0.2266
     41  O        -53.2620  154.8660  106.1770 O.2   153  ASP153     -0.2867
     42  CB       -50.4660  154.3020  106.4070 C.3   153  ASP153      0.1410
     43  CG       -49.4760  154.3190  105.2610 C.2   153  ASP153      0.3668
     44  OD1      -49.5030  155.2740  104.4620 O.co2 153  ASP153     -0.2456
     45  OD2      -48.6600  153.3590  105.1550 O.co2 153  ASP153     -0.2456
     46  N        -39.7980  159.4570  103.0510 N.3   189  MET189     -0.1230
     47  CA       -40.6770  158.2760  103.0690 C.3   189  MET189      0.1702
     48  C        -42.1750  158.6560  103.0720 C.2   189  MET189      0.2593
     49  O        -42.5530  159.8390  103.1290 O.2   189  MET189     -0.2718
     50  CB       -40.3380  157.3130  104.2240 C.3   189  MET189      0.0401
     51  CG       -39.1670  156.4020  103.8850 C.3   189  MET189      0.0596
     52  SD       -38.5270  155.2210  105.1020 S.3   189  MET189     -0.1393
     53  CE       -37.6540  154.0920  104.0360 C.3   189  MET189      0.0692
     54  N        -42.9970  157.6330  102.9310 N.am  190  GLY190     -0.1942
     55  CA       -44.4410  157.7530  102.8960 C.3   190  GLY190      0.2014
     56  C        -44.8120  157.1230  101.5770 C.2   190  GLY190      0.2638
     57  O        -44.8710  157.8050  100.5340 O.2   190  GLY190     -0.2714
     58  N        -45.0020  155.8110  101.5830 N.am  191  ARG191     -0.1977
     59  CA       -45.1890  155.1160  100.3140 C.3   191  ARG191      0.1597
     60  C        -46.2600  155.8110   99.5040 C.2   191  ARG191      0.2287
     61  O        -45.9950  156.4230   98.4850 O.2   191  ARG191     -0.2864
     62  CB       -45.6920  153.6840  100.5260 C.3   191  ARG191      0.0334
     63  CG       -44.7290  152.6830  101.1110 C.3   191  ARG191      0.0492
     64  CD       -45.3970  151.8390  102.1950 C.3   191  ARG191      0.2205
     65  NE       -46.0630  150.6100  101.7110 N.pl3 191  ARG191     -0.0865
     66  CZ       -45.4170  149.4820  101.4150 C.cat 191  ARG191      0.5346
     67  NH1      -44.0930  149.4180  101.5360 N.pl3 191  ARG191      0.1354
     68  NH2      -46.0920  148.4040  100.9850 N.pl3 191  ARG191      0.1354
     69  N        -41.7140  159.8560   98.3680 N.3   245  GLU245     -0.1245
     70  CA       -41.4490  158.6110   97.6100 C.3   245  GLU245      0.1567
     71  C        -42.4310  158.3720   96.5050 C.2   245  GLU245      0.2260
     72  O        -42.0350  158.0780   95.3980 O.2   245  GLU245     -0.2867
     73  CB       -41.5440  157.3930   98.5160 C.3   245  GLU245      0.0388
     74  CG       -40.2410  156.9410   99.1310 C.3   245  GLU245      0.1160
     75  CD       -40.4470  155.7770  100.0840 C.2   245  GLU245      0.3649
     76  OE1      -41.5550  155.6670  100.6890 O.co2 245  GLU245     -0.2457
     77  OE2      -39.4760  154.9780  100.2200 O.co2 245  GLU245     -0.2457
     78  N        -33.6100  154.6710  104.9980 N.3   279  HIS279     -0.1241
     79  CA       -34.0040  154.0260  106.2400 C.3   279  HIS279      0.1621
     80  C        -33.5660  154.6900  107.5400 C.2   279  HIS279      0.2264
     81  O        -34.0610  154.3000  108.6030 O.2   279  HIS279     -0.2867
     82  CB       -33.5660  152.5800  106.2240 C.3   279  HIS279      0.0745
     83  CG       -34.4460  151.7410  105.3870 C.ar  279  HIS279      0.0817
     84  ND1      -34.4290  151.7980  104.0100 N.ar  279  HIS279     -0.2268
     85  CD2      -35.4130  150.8660  105.7210 C.ar  279  HIS279      0.1154
     86  CE1      -35.3410  150.9760  103.5280 C.ar  279  HIS279      0.1986
     87  NE2      -35.9550  150.4010  104.5480 N.ar  279  HIS279     -0.2212
     88  N        -36.5240  155.6130  109.6230 N.3   282  ARG282     -0.1245
     89  CA       -37.1060  154.6150  110.5140 C.3   282  ARG282      0.1563
     90  C        -36.3530  154.3980  111.7990 C.2   282  ARG282      0.2260
     91  O        -36.7930  153.6240  112.6370 O.2   282  ARG282     -0.2867
     92  CB       -37.2330  153.3020  109.7860 C.3   282  ARG282      0.0307
     93  CG       -38.1090  153.3910  108.5350 C.3   282  ARG282      0.0489
     94  CD       -39.4150  152.6250  108.6980 C.3   282  ARG282      0.2205
     95  NE       -39.1180  151.2300  108.9290 N.pl3 282  ARG282     -0.0865
     96  CZ       -39.0370  150.3070  107.9860 C.cat 282  ARG282      0.5346
     97  NH1      -39.2610  150.6130  106.7060 N.pl3 282  ARG282      0.1354
     98  NH2      -38.7310  149.0530  108.3340 N.pl3 282  ARG282      0.1354
@<TRIPOS>BOND
     1    72    71    2
     2    71    70    1
     3    70    69    1
     4    70    73    1
     5    61    60    2
     6    73    74    1
     7    74    75    1
     8    60    59    1
     9    75    77   ar
    10    75    76   ar
    11    59    62    1
    12    59    58    1
    13    62    63    1
    14    57    56    2
    15    68    66    1
    16    63    64    1
    17    66    67    1
    18    66    65    2
    19    56    58   am
    20    56    55    1
    21    65    64    1
    22    55    54    1
    23    54    48   am
    24    46    47    1
    25    47    48    1
    26    47    50    1
    27    48    49    2
    28    86    84   ar
    29    86    87   ar
    30    11    12    1
    31    11    10    1
    32    51    50    1
    33    51    52    1
    34    84    83   ar
    35    53    52    1
    36    44    43   ar
    37    87    85   ar
    38    12    13    2
    39    10     9    1
    40     9     6    1
    41    78    79    1
    42    45    43   ar
    43    37    35   ar
    44    43    42    1
    45    13    14    1
    46    13    15    1
    47    83    85   ar
    48    83    82    1
    49    35    36   ar
    50    35    34    1
    51     8     7    2
    52    41    40    2
    53     7     6    1
    54    82    79    1
    55    79    80    1
    56     6     5    1
    57    34    31    1
    58    42    39    1
    59    97    96    1
    60    39    40    1
    61    39    38    1
    62    33    32    2
    63    31    32    1
    64    31    30    1
    65    80    81    2
    66    29    27    1
    67    96    98    1
    68    96    95    2
    69    30    24   am
    70    27    26    1
    71    93    94    1
    72    93    92    1
    73     1     2    1
    74    94    95    1
    75     2     3    1
    76    24    25    2
    77    24    23    1
    78    21    20    1
    79    20    17    1
    80    88    89    1
    81    92    89    1
    82    26    23    1
    83    26    28    1
    84    23    22    1
    85     3     4    2
    86    22    18   am
    87    89    90    1
    88    17    18    1
    89    17    16    1
    90    18    19    2
    91    90    91    2
