@<TRIPOS>MOLECULE
tmp/4xz2B00.pdb
 147 138 0 0 0
SMALL
GASTEIGER

@<TRIPOS>ATOM
      1  N        -45.2740  143.9220  113.5580 N.3     8  SER8       -0.1202
      2  CA       -45.3000  143.4820  112.1700 C.3     8  SER8        0.2020
      3  C        -45.2010  144.6740  111.2370 C.2     8  SER8        0.2619
      4  O        -45.3440  145.8310  111.6560 O.2     8  SER8       -0.2717
      5  CB       -46.5660  142.6620  111.9140 C.3     8  SER8        0.2103
      6  OG       -46.6780  142.2450  110.5650 O.3     8  SER8       -0.2182
      7  N        -44.8870  144.4020  109.9780 N.am    9  GLY9       -0.1942
      8  CA       -44.6550  145.4810  109.0150 C.3     9  GLY9        0.2014
      9  C        -43.4190  146.2730  109.3360 C.2     9  GLY9        0.2639
     10  O        -42.6700  145.8990  110.2260 O.2     9  GLY9       -0.2714
     11  N        -43.2220  147.3890  108.6390 N.am   10  GLY10      -0.1954
     12  CA       -42.0770  148.2800  108.9040 C.3    10  GLY10       0.1869
     13  C        -41.9660  148.6440  110.3610 C.2    10  GLY10       0.2309
     14  O        -42.9640  148.9330  111.0150 O.2    10  GLY10      -0.2863
     15  N        -45.7240  137.8740  112.5690 N.3    40  TYR40      -0.1241
     16  CA       -46.5770  136.7260  112.3110 C.3    40  TYR40       0.1605
     17  C        -45.7780  135.4510  112.0930 C.2    40  TYR40       0.2264
     18  O        -46.2280  134.3730  112.4960 O.2    40  TYR40      -0.2867
     19  CB       -47.4900  136.9700  111.1080 C.3    40  TYR40       0.0534
     20  CG       -48.6050  137.9470  111.3690 C.ar   40  TYR40      -0.0201
     21  CD1      -49.5010  137.7410  112.4170 C.ar   40  TYR40      -0.0009
     22  CD2      -48.7740  139.0630  110.5660 C.ar   40  TYR40      -0.0009
     23  CE1      -50.5310  138.6290  112.6580 C.ar   40  TYR40       0.0417
     24  CE2      -49.7960  139.9580  110.8030 C.ar   40  TYR40       0.0417
     25  CZ       -50.6800  139.7330  111.8410 C.ar   40  TYR40       0.1957
     26  OH       -51.6960  140.6190  112.1050 O.3    40  TYR40      -0.2866
     27  N        -41.3640  141.2410  110.6980 N.3    72  ALA72      -0.1231
     28  CA       -41.1630  140.4060  109.5070 C.3    72  ALA72       0.1694
     29  C        -42.4040  140.3610  108.6220 C.2    72  ALA72       0.2592
     30  O        -43.5390  140.3250  109.1330 O.2    72  ALA72      -0.2718
     31  CB       -40.7860  138.9820  109.9110 C.3    72  ALA72       0.0304
     32  N        -42.1670  140.3850  107.3040 N.am   73  ARG73      -0.1966
     33  CA       -43.1650  140.0140  106.2930 C.3    73  ARG73       0.1729
     34  C        -43.1950  138.5070  106.2190 C.2    73  ARG73       0.2616
     35  O        -42.1880  137.8980  105.9050 O.2    73  ARG73      -0.2715
     36  CB       -42.8380  140.6200  104.9200 C.3    73  ARG73       0.0348
     37  CG       -43.7030  141.8310  104.5970 C.3    73  ARG73       0.0492
     38  CD       -42.9730  142.9070  103.7980 C.3    73  ARG73       0.2205
     39  NE       -41.9800  143.6620  104.5970 N.pl3  73  ARG73      -0.0865
     40  CZ       -42.2180  144.7530  105.3410 C.cat  73  ARG73       0.5346
     41  NH1      -43.4410  145.2750  105.4530 N.pl3  73  ARG73       0.1354
     42  NH2      -41.2150  145.3300  105.9980 N.pl3  73  ARG73       0.1354
     43  N        -44.3360  137.9180  106.5690 N.am   74  CYS74      -0.1968
     44  CA       -44.5110  136.4770  106.6470 C.3    74  CYS74       0.1712
     45  C        -45.4890  135.9500  105.5900 C.2    74  CYS74       0.2296
     46  O        -46.6980  136.0710  105.7320 O.2    74  CYS74      -0.2864
     47  CB       -45.0120  136.1090  108.0320 C.3    74  CYS74       0.0983
     48  SG       -45.4460  134.3720  108.1340 S.3    74  CYS74      -0.0798
     49  N        -48.3250  133.3790  106.7120 N.3    77  PHE77      -0.1227
     50  CA       -49.5630  133.8680  107.3360 C.3    77  PHE77       0.1736
     51  C        -50.6500  134.2840  106.3020 C.2    77  PHE77       0.2595
     52  O        -51.8510  134.2470  106.6010 O.2    77  PHE77      -0.2718
     53  CB       -49.2720  135.0250  108.3110 C.3    77  PHE77       0.0547
     54  CG       -50.3430  135.2130  109.3460 C.ar   77  PHE77      -0.0202
     55  CD1      -50.5180  134.2730  110.3510 C.ar   77  PHE77      -0.0042
     56  CD2      -51.1940  136.3000  109.2950 C.ar   77  PHE77      -0.0042
     57  CE1      -51.5110  134.4240  111.2970 C.ar   77  PHE77      -0.0003
     58  CE2      -52.1820  136.4630  110.2410 C.ar   77  PHE77      -0.0003
     59  CZ       -52.3460  135.5250  111.2410 C.ar   77  PHE77      -0.0000
     60  N        -50.2230  134.6620  105.0970 N.am   78  ARG78      -0.1980
     61  CA       -51.1510  134.9150  104.0020 C.3    78  ARG78       0.1597
     62  C        -51.7550  133.6190  103.4340 C.2    78  ARG78       0.2287
     63  O        -52.5810  133.6880  102.5370 O.2    78  ARG78      -0.2864
     64  CB       -50.4590  135.6630  102.8740 C.3    78  ARG78       0.0334
     65  CG       -49.9760  137.0420  103.2490 C.3    78  ARG78       0.0492
     66  CD       -49.0960  137.6100  102.1370 C.3    78  ARG78       0.2205
     67  NE       -49.3590  139.0260  101.8640 N.pl3  78  ARG78      -0.0865
     68  CZ       -48.5530  140.0590  102.1480 C.cat  78  ARG78       0.5346
     69  NH1      -47.3550  139.8700  102.7180 N.pl3  78  ARG78       0.1354
     70  NH2      -48.9500  141.3050  101.8510 N.pl3  78  ARG78       0.1354
     71  N        -51.9990  130.0530  109.1170 N.3    83  ARG83      -0.1245
     72  CA       -52.9290  130.4800  110.1560 C.3    83  ARG83       0.1563
     73  C        -53.3970  129.3320  111.0210 C.2    83  ARG83       0.2260
     74  O        -53.5830  129.5060  112.2230 O.2    83  ARG83      -0.2867
     75  CB       -54.1530  131.1480  109.5600 C.3    83  ARG83       0.0307
     76  CG       -53.8500  132.4490  108.8560 C.3    83  ARG83       0.0489
     77  CD       -55.0500  132.8760  108.0420 C.3    83  ARG83       0.2205
     78  NE       -54.6340  133.4500  106.7690 N.pl3  83  ARG83      -0.0865
     79  CZ       -55.2820  133.2660  105.6240 C.cat  83  ARG83       0.5346
     80  NH1      -56.3880  132.5290  105.5790 N.pl3  83  ARG83       0.1354
     81  NH2      -54.8240  133.8190  104.5110 N.pl3  83  ARG83       0.1354
     82  N        -48.6260  148.0770  110.5720 N.3   103  GLY103     -0.1210
     83  CA       -49.2380  149.0330  109.6410 C.3   103  GLY103      0.1956
     84  C        -50.5420  148.5120  109.0530 C.2   103  GLY103      0.2612
     85  O        -51.1580  147.5950  109.6010 O.2   103  GLY103     -0.2717
     86  N        -50.9130  149.0760  107.8990 N.am  104  ASP104     -0.1959
     87  CA       -52.1160  148.6910  107.1290 C.3   104  ASP104      0.1840
     88  C        -52.1860  147.1890  106.8820 C.2   104  ASP104      0.2623
     89  O        -53.1960  146.5470  107.2150 O.2   104  ASP104     -0.2715
     90  CB       -52.2640  149.5290  105.8340 C.3   104  ASP104      0.1450
     91  CG       -50.9540  149.8740  105.1760 C.2   104  ASP104      0.3671
     92  OD1      -49.9090  149.2110  105.4360 O.co2 104  ASP104     -0.2456
     93  OD2      -50.9860  150.8940  104.4430 O.co2 104  ASP104     -0.2456
     94  N        -51.0860  146.6070  106.4150 N.am  105  GLY105     -0.1940
     95  CA       -51.0800  145.1810  106.1190 C.3   105  GLY105      0.2014
     96  C        -51.2430  144.2910  107.3420 C.2   105  GLY105      0.2639
     97  O        -51.9940  143.3140  107.3260 O.2   105  GLY105     -0.2714
     98  N        -50.4780  144.5860  108.3920 N.am  106  SER106     -0.1949
     99  CA       -50.4550  143.7130  109.5750 C.3   106  SER106      0.1924
    100  C        -51.8380  143.6700  110.2100 C.2   106  SER106      0.2314
    101  O        -52.2880  142.6240  110.6730 O.2   106  SER106     -0.2863
    102  CB       -49.4230  144.1910  110.6100 C.3   106  SER106      0.2116
    103  OG       -48.3790  144.9460  110.0340 O.3   106  SER106     -0.2180
    104  N        -54.8990  144.3760  108.6810 N.3   108  THR108     -0.1203
    105  CA       -55.7770  143.5490  107.8280 C.3   108  THR108      0.1994
    106  C        -55.5460  142.0530  108.0360 C.2   108  THR108      0.2618
    107  O        -56.4740  141.2560  107.9340 O.2   108  THR108     -0.2717
    108  CB       -55.6130  143.7860  106.3300 C.3   108  THR108      0.1784
    109  OG1      -55.3430  145.1630  106.0590 O.3   108  THR108     -0.2211
    110  CG2      -56.8670  143.3600  105.6050 C.3   108  THR108      0.0376
    111  N        -54.2920  141.6720  108.2650 N.am  109  GLY109     -0.1956
    112  CA       -53.9830  140.2880  108.5620 C.3   109  GLY109      0.1869
    113  C        -54.7070  139.8100  109.7970 C.2   109  GLY109      0.2309
    114  O        -55.1670  138.6740  109.8610 O.2   109  GLY109     -0.2863
    115  N        -58.4650  139.4890  109.1860 N.3   112  LEU112     -0.1245
    116  CA       -58.6790  138.2140  108.5060 C.3   112  LEU112      0.1561
    117  C        -58.6230  137.0440  109.4840 C.2   112  LEU112      0.2260
    118  O        -59.4630  136.1540  109.4520 O.2   112  LEU112     -0.2867
    119  CB       -57.6390  138.0320  107.3880 C.3   112  LEU112      0.0270
    120  CG       -57.7710  136.7630  106.5320 C.3   112  LEU112      0.0019
    121  CD1      -59.0810  136.7700  105.7610 C.3   112  LEU112      0.0001
    122  CD2      -56.5930  136.5460  105.5820 C.3   112  LEU112      0.0001
    123  N        -46.3770  152.7100  112.0830 N.3   149  SER149     -0.1217
    124  CA       -45.6940  153.0500  110.8500 C.3   149  SER149      0.1889
    125  C        -45.2880  154.5050  111.0070 C.2   149  SER149      0.2288
    126  O        -45.9440  155.2870  111.7040 O.2   149  SER149     -0.2866
    127  CB       -46.5690  152.7730  109.5840 C.3   149  SER149      0.2089
    128  OG       -47.7630  153.5350  109.5690 O.3   149  SER149     -0.2183
    129  N        -50.3000  156.3020  107.8180 N.3   153  ASP153     -0.1239
    130  CA       -51.0790  155.6920  106.7230 C.3   153  ASP153      0.1674
    131  C        -52.5720  155.4230  107.0180 C.2   153  ASP153      0.2266
    132  O        -53.2620  154.8660  106.1770 O.2   153  ASP153     -0.2867
    133  CB       -50.4660  154.3020  106.4070 C.3   153  ASP153      0.1410
    134  CG       -49.4760  154.3190  105.2610 C.2   153  ASP153      0.3668
    135  OD1      -49.5030  155.2740  104.4620 O.co2 153  ASP153     -0.2456
    136  OD2      -48.6600  153.3590  105.1550 O.co2 153  ASP153     -0.2456
    137  N        -45.0020  155.8110  101.5830 N.3   191  ARG191     -0.1245
    138  CA       -45.1890  155.1160  100.3140 C.3   191  ARG191      0.1563
    139  C        -46.2600  155.8110   99.5040 C.2   191  ARG191      0.2260
    140  O        -45.9950  156.4230   98.4850 O.2   191  ARG191     -0.2867
    141  CB       -45.6920  153.6840  100.5260 C.3   191  ARG191      0.0307
    142  CG       -44.7290  152.6830  101.1110 C.3   191  ARG191      0.0489
    143  CD       -45.3970  151.8390  102.1950 C.3   191  ARG191      0.2205
    144  NE       -46.0630  150.6100  101.7110 N.pl3 191  ARG191     -0.0865
    145  CZ       -45.4170  149.4820  101.4150 C.cat 191  ARG191      0.5346
    146  NH1      -44.0930  149.4180  101.5360 N.pl3 191  ARG191      0.1354
    147  NH2      -46.0920  148.4040  100.9850 N.pl3 191  ARG191      0.1354
@<TRIPOS>BOND
     1   140   139    2
     2   139   138    1
     3   138   141    1
     4   138   137    1
     5   141   142    1
     6   147   145    1
     7   142   143    1
     8   145   146    1
     9   145   144    2
    10   144   143    1
    11    70    68    1
    12    67    66    1
    13    67    68    2
    14    66    65    1
    15    68    69    1
    16    63    62    2
    17    64    65    1
    18    64    61    1
    19    62    61    1
    20    38    39    1
    21    38    37    1
    22    61    60    1
    23    93    91   ar
    24   135   134   ar
    25    81    79    1
    26    39    40    2
    27    37    36    1
    28    36    33    1
    29    60    51   am
    30   136   134   ar
    31    91    92   ar
    32    91    90    1
    33   134   133    1
    34    40    41    1
    35    40    42    1
    36    80    79    1
    37   122   120    1
    38    45    46    2
    39    45    44    1
    40   110   108    1
    41    79    78    2
    42   121   120    1
    43    90    87    1
    44    35    34    2
    45   109   108    1
    46    95    94    1
    47    95    96    1
    48   132   131    2
    49    34    33    1
    50    34    43   am
    51    33    32    1
    52    51    52    2
    53    51    50    1
    54   108   105    1
    55   133   130    1
    56    94    88   am
    57   120   119    1
    58    43    44    1
    59    44    47    1
    60    49    50    1
    61   130   131    1
    62   130   129    1
    63    78    77    1
    64    88    87    1
    65    88    89    2
    66    87    86    1
    67    32    29   am
    68    97    96    2
    69    50    53    1
    70    96    98   am
    71   119   116    1
    72   105   106    1
    73   105   104    1
    74    86    84   am
    75   107   106    2
    76    47    48    1
    77   106   111   am
    78    77    76    1
    79   111   112    1
    80    53    54    1
    81    98    99    1
    82   116   115    1
    83   116   117    1
    84   112   113    1
    85    29    30    2
    86    29    28    1
    87    11    12    1
    88    11     9   am
    89    76    75    1
    90    12    13    1
    91     8     9    1
    92     8     7    1
    93    84    85    2
    94    84    83    1
    95    71    72    1
    96    56    54   ar
    97    56    58   ar
    98     9    10    2
    99    54    55   ar
   100   118   117    2
   101    28    31    1
   102    28    27    1
   103    75    72    1
   104   128   127    1
   105    99   100    1
   106    99   102    1
   107   127   124    1
   108    83    82    1
   109   113   114    2
   110     7     3   am
   111   103   102    1
   112    72    73    1
   113   100   101    2
   114    58    59   ar
   115    55    57   ar
   116    13    14    2
   117     6     5    1
   118    22    24   ar
   119    22    20   ar
   120    24    25   ar
   121   124   125    1
   122   124   123    1
   123   125   126    2
   124    73    74    2
   125    19    20    1
   126    19    16    1
   127     3     4    2
   128     3     2    1
   129    59    57   ar
   130    20    21   ar
   131    25    26    1
   132    25    23   ar
   133     5     2    1
   134    17    16    1
   135    17    18    2
   136     2     1    1
   137    16    15    1
   138    21    23   ar
