@<TRIPOS>MOLECULE
tmp/4xz3B00.pdb
 160 151 0 0 0
SMALL
GASTEIGER

@<TRIPOS>ATOM
      1  N         95.4280   35.9700   96.0630 N.3    33  THR33      -0.1218
      2  CA        96.4650   36.8940   95.6140 C.3    33  THR33       0.1862
      3  C         96.1930   38.2890   96.1680 C.2    33  THR33       0.2287
      4  O         95.1330   38.8680   95.9250 O.2    33  THR33      -0.2866
      5  CB        96.5630   36.9770   94.0730 C.3    33  THR33       0.1770
      6  OG1       95.4290   37.6730   93.5350 O.3    33  THR33      -0.2211
      7  CG2       96.6920   35.5860   93.4590 C.3    33  THR33       0.0375
      8  N        100.0770   42.7030   88.4200 N.3    56  VAL56      -0.1245
      9  CA        99.1240   42.6600   87.3180 C.3    56  VAL56       0.1561
     10  C         98.0900   43.7670   87.4860 C.2    56  VAL56       0.2260
     11  O         97.6440   44.0310   88.6040 O.2    56  VAL56      -0.2867
     12  CB        98.4110   41.2970   87.2510 C.3    56  VAL56       0.0252
     13  CG1       97.3860   41.2730   86.1190 C.3    56  VAL56       0.0019
     14  CG2       99.4280   40.1790   87.0890 C.3    56  VAL56       0.0019
     15  N         94.3300   45.3900   86.1640 N.3    58  LYS58      -0.1245
     16  CA        93.0390   45.1640   85.5140 C.3    58  LYS58       0.1561
     17  C         92.1300   46.3860   85.6200 C.2    58  LYS58       0.2260
     18  O         92.0120   46.9810   86.6880 O.2    58  LYS58      -0.2867
     19  CB        92.3180   43.9680   86.1410 C.3    58  LYS58       0.0271
     20  CG        92.8510   42.6070   85.7620 C.3    58  LYS58       0.0035
     21  CD        92.0180   41.5230   86.4310 C.3    58  LYS58       0.0206
     22  CE        92.5170   40.1280   86.1010 C.3    58  LYS58       0.1093
     23  NZ        91.7200   39.0850   86.8050 N.3    58  LYS58      -0.1314
     24  N         83.0390   43.6320   79.8010 N.3    65  VAL65      -0.1231
     25  CA        82.9090   42.2400   80.2120 C.3    65  VAL65       0.1692
     26  C         84.2320   41.5090   79.9610 C.2    65  VAL65       0.2592
     27  O         84.8290   40.9640   80.8890 O.2    65  VAL65      -0.2718
     28  CB        81.7630   41.5240   79.4630 C.3    65  VAL65       0.0266
     29  CG1       81.6720   40.0600   79.8860 C.3    65  VAL65       0.0020
     30  CG2       80.4370   42.2350   79.7110 C.3    65  VAL65       0.0020
     31  N         84.6920   41.5170   78.7100 N.am   66  HIS66      -0.1962
     32  CA        85.9650   40.8870   78.3410 C.3    66  HIS66       0.1787
     33  C         87.1090   41.8960   78.2500 C.2    66  HIS66       0.2620
     34  O         87.3400   42.5130   77.2060 O.2    66  HIS66      -0.2715
     35  CB        85.8340   40.1410   77.0110 C.3    66  HIS66       0.0785
     36  CG        84.8530   39.0110   77.0400 C.ar   66  HIS66       0.0821
     37  ND1       84.9800   37.9420   77.9010 N.ar   66  HIS66      -0.2267
     38  CD2       83.7340   38.7770   76.3130 C.ar   66  HIS66       0.1154
     39  CE1       83.9840   37.0970   77.7020 C.ar   66  HIS66       0.1986
     40  NE2       83.2130   37.5810   76.7450 N.ar   66  HIS66      -0.2212
     41  N         87.8330   42.0280   79.3570 N.am   67  LYS67      -0.1963
     42  CA        88.8690   43.0430   79.5170 C.3    67  LYS67       0.1728
     43  C         89.9760   42.8820   78.4840 C.2    67  LYS67       0.2616
     44  O         90.3130   43.8220   77.7630 O.2    67  LYS67      -0.2715
     45  CB        89.4570   42.9640   80.9250 C.3    67  LYS67       0.0311
     46  CG        88.4230   43.1190   82.0240 C.3    67  LYS67       0.0038
     47  CD        88.9660   42.6680   83.3650 C.3    67  LYS67       0.0206
     48  CE        87.8970   42.7390   84.4390 C.3    67  LYS67       0.1093
     49  NZ        87.2880   44.0890   84.5380 N.3    67  LYS67      -0.1314
     50  N         90.5290   41.6760   78.4150 N.am   68  SER68      -0.1950
     51  CA        91.6030   41.3650   77.4800 C.3    68  SER68       0.1924
     52  C         91.2900   41.8380   76.0590 C.2    68  SER68       0.2314
     53  O         92.1640   42.3630   75.3690 O.2    68  SER68      -0.2863
     54  CB        91.8750   39.8600   77.4770 C.3    68  SER68       0.2116
     55  OG        92.9920   39.5470   76.6650 O.3    68  SER68      -0.2180
     56  N         93.9140   44.8140   80.4000 N.3    73  VAL73      -0.1245
     57  CA        94.7190   44.0080   81.3150 C.3    73  VAL73       0.1561
     58  C         96.1990   44.0230   80.9310 C.2    73  VAL73       0.2260
     59  O         96.5550   43.8090   79.7690 O.2    73  VAL73      -0.2867
     60  CB        94.2390   42.5380   81.3530 C.3    73  VAL73       0.0252
     61  CG1       95.0010   41.7560   82.4190 C.3    73  VAL73       0.0019
     62  CG2       92.7390   42.4620   81.6130 C.3    73  VAL73       0.0019
     63  N         99.9340   42.3600   82.2040 N.3    75  VAL75      -0.1245
     64  CA       100.5170   41.2890   83.0110 C.3    75  VAL75       0.1561
     65  C        102.0270   41.4520   83.2120 C.2    75  VAL75       0.2260
     66  O        102.7250   42.0160   82.3680 O.2    75  VAL75      -0.2867
     67  CB       100.2400   39.9110   82.3720 C.3    75  VAL75       0.0252
     68  CG1      100.7720   38.7770   83.2470 C.3    75  VAL75       0.0019
     69  CG2       98.7470   39.7320   82.1300 C.3    75  VAL75       0.0019
     70  N         97.2630   43.6120   91.5720 N.3   109  GLN109     -0.1231
     71  CA        97.2700   42.3230   92.2610 C.3   109  GLN109      0.1698
     72  C         98.5770   41.5620   92.0530 C.2   109  GLN109      0.2592
     73  O         99.2200   41.6780   91.0090 O.2   109  GLN109     -0.2718
     74  CB        96.0630   41.4780   91.8360 C.3   109  GLN109      0.0381
     75  CG        96.2490   40.5830   90.6340 C.3   109  GLN109      0.0905
     76  CD        94.9680   39.8360   90.2870 C.2   109  GLN109      0.2608
     77  OE1       94.7760   38.6800   90.6730 O.2   109  GLN109     -0.2717
     78  NE2       94.0790   40.4990   89.5560 N.am  109  GLN109     -0.0878
     79  N         98.9640   40.8030   93.0730 N.am  110  GLU110     -0.1966
     80  CA       100.1570   39.9680   93.0270 C.3   110  GLU110      0.1733
     81  C        100.1410   39.0790   91.7910 C.2   110  GLU110      0.2616
     82  O         99.0760   38.6550   91.3470 O.2   110  GLU110     -0.2715
     83  CB       100.2310   39.1130   94.2980 C.3   110  GLU110      0.0429
     84  CG       101.1930   37.9280   94.2460 C.3   110  GLU110      0.1163
     85  CD       100.9880   36.9710   95.4070 C.2   110  GLU110      0.3649
     86  OE1      100.3560   37.3760   96.4080 O.co2 110  GLU110     -0.2457
     87  OE2      101.4460   35.8070   95.3110 O.co2 110  GLU110     -0.2457
     88  N        101.3200   38.8040   91.2340 N.am  111  PHE111     -0.1960
     89  CA       101.4290   37.9240   90.0730 C.3   111  PHE111      0.1771
     90  C        101.5150   36.4630   90.5090 C.2   111  PHE111      0.2619
     91  O        102.3200   36.1100   91.3700 O.2   111  PHE111     -0.2715
     92  CB       102.6520   38.2940   89.2330 C.3   111  PHE111      0.0574
     93  CG       102.8380   37.4320   88.0200 C.ar  111  PHE111     -0.0200
     94  CD1      102.1380   37.6920   86.8530 C.ar  111  PHE111     -0.0042
     95  CD2      103.7080   36.3570   88.0480 C.ar  111  PHE111     -0.0042
     96  CE1      102.3100   36.9000   85.7390 C.ar  111  PHE111     -0.0003
     97  CE2      103.8820   35.5600   86.9370 C.ar  111  PHE111     -0.0003
     98  CZ       103.1830   35.8300   85.7820 C.ar  111  PHE111     -0.0000
     99  N        100.6880   35.6170   89.9000 N.am  112  ALA112     -0.1977
    100  CA       100.6430   34.2000   90.2450 C.3   112  ALA112      0.1597
    101  C        101.4400   33.3570   89.2460 C.2   112  ALA112      0.2287
    102  O        101.0350   33.2270   88.0880 O.2   112  ALA112     -0.2864
    103  CB        99.2050   33.7210   90.3020 C.3   112  ALA112      0.0319
    104  N         95.8920   24.7430   87.3140 N.3   117  GLU117     -0.1245
    105  CA        94.7050   25.5930   87.4100 C.3   117  GLU117      0.1567
    106  C         93.4580   24.7720   87.7360 C.2   117  GLU117      0.2260
    107  O         93.0900   23.8620   86.9970 O.2   117  GLU117     -0.2867
    108  CB        94.4950   26.3690   86.1090 C.3   117  GLU117      0.0388
    109  CG        95.3580   27.6140   85.9890 C.3   117  GLU117      0.1160
    110  CD        94.9960   28.4780   84.7920 C.2   117  GLU117      0.3649
    111  OE1       94.6240   27.9220   83.7350 O.co2 117  GLU117     -0.2457
    112  OE2       95.0820   29.7190   84.9100 O.co2 117  GLU117     -0.2457
    113  N         91.0780   28.3580   81.5590 N.3   138  VAL138     -0.1245
    114  CA        90.2770   28.8540   80.4530 C.3   138  VAL138      0.1561
    115  C         89.4630   27.7190   79.8390 C.2   138  VAL138      0.2260
    116  O         88.4280   27.9530   79.2170 O.2   138  VAL138     -0.2867
    117  CB        91.1860   29.5100   79.3830 C.3   138  VAL138      0.0252
    118  CG1       90.4170   29.8430   78.1060 C.3   138  VAL138      0.0019
    119  CG2       91.8480   30.7560   79.9580 C.3   138  VAL138      0.0019
    120  N         87.9820   30.9880   90.1200 N.3   205  ASN205     -0.1226
    121  CA        88.5540   30.5570   88.8530 C.3   205  ASN205      0.1770
    122  C         89.5020   31.5930   88.2520 C.2   205  ASN205      0.2439
    123  O         89.0670   32.6870   87.9000 O.2   205  ASN205     -0.2733
    124  CB        87.4390   30.2610   87.8540 C.3   205  ASN205      0.1168
    125  CG        87.9600   29.6880   86.5480 C.2   205  ASN205      0.2627
    126  OD1       88.9300   28.9290   86.5310 O.2   205  ASN205     -0.2716
    127  ND2       87.3180   30.0570   85.4460 N.am  205  ASN205     -0.0877
    128  N         90.7940   31.2570   88.1080 N.am  206  PRO206     -0.2729
    129  CA        91.4520   29.9930   88.4550 C.3   206  PRO206      0.1401
    130  C         91.9330   29.9660   89.9020 C.2   206  PRO206      0.2269
    131  O         92.0930   31.0180   90.5250 O.2   206  PRO206     -0.2865
    132  CB        92.6270   29.9390   87.4840 C.3   206  PRO206      0.0296
    133  CG        92.9890   31.3630   87.2610 C.3   206  PRO206      0.0237
    134  CD        91.7230   32.1780   87.4230 C.3   206  PRO206      0.0939
    135  N         93.3250   33.1490   92.2030 N.3   217  VAL217     -0.1231
    136  CA        93.7410   34.2350   91.3190 C.3   217  VAL217      0.1692
    137  C         92.5950   35.1900   91.0100 C.2   217  VAL217      0.2592
    138  O         92.7770   36.4010   91.0410 O.2   217  VAL217     -0.2718
    139  CB        94.3130   33.6940   89.9950 C.3   217  VAL217      0.0266
    140  CG1       94.6080   34.8360   89.0190 C.3   217  VAL217      0.0020
    141  CG2       95.5680   32.8850   90.2670 C.3   217  VAL217      0.0020
    142  N         91.4220   34.6500   90.6980 N.am  218  ASP218     -0.1974
    143  CA        90.2740   35.4830   90.3450 C.3   218  ASP218      0.1709
    144  C         88.9840   34.8850   90.8980 C.2   218  ASP218      0.2293
    145  O         88.7590   33.6780   90.8180 O.2   218  ASP218     -0.2864
    146  CB        90.1810   35.6500   88.8210 C.3   218  ASP218      0.1436
    147  CG        89.2990   36.8190   88.4030 C.2   218  ASP218      0.3671
    148  OD1       88.5820   37.3760   89.2620 O.co2 218  ASP218     -0.2456
    149  OD2       89.3210   37.1820   87.2050 O.co2 218  ASP218     -0.2456
    150  N         84.5300   35.4310   91.5210 N.3   220  ARG220     -0.1245
    151  CA        83.3030   36.0240   91.0040 C.3   220  ARG220      0.1563
    152  C         82.1270   35.5960   91.8800 C.2   220  ARG220      0.2260
    153  O         81.8260   34.4100   91.9790 O.2   220  ARG220     -0.2867
    154  CB        83.0870   35.6030   89.5510 C.3   220  ARG220      0.0307
    155  CG        82.1280   36.4820   88.7670 C.3   220  ARG220      0.0489
    156  CD        81.9030   35.9340   87.3630 C.3   220  ARG220      0.2205
    157  NE        83.1570   35.6140   86.6860 N.pl3 220  ARG220     -0.0865
    158  CZ        83.2410   35.1020   85.4630 C.cat 220  ARG220      0.5346
    159  NH1       82.1420   34.8540   84.7620 N.pl3 220  ARG220      0.1354
    160  NH2       84.4290   34.8430   84.9330 N.pl3 220  ARG220      0.1354
@<TRIPOS>BOND
     1    53    52    2
     2    52    51    1
     3    38    40   ar
     4    38    36   ar
     5    55    54    1
     6    40    39   ar
     7    35    36    1
     8    35    32    1
     9    36    37   ar
    10    34    33    2
    11    54    51    1
    12    51    50    1
    13    39    37   ar
    14    44    43    2
    15   118   117    1
    16    33    32    1
    17    33    41   am
    18    32    31    1
    19    50    43   am
    20    43    42    1
    21    31    26   am
    22   116   115    2
    23    41    42    1
    24   117   119    1
    25   117   114    1
    26    28    30    1
    27    28    29    1
    28    28    25    1
    29    42    45    1
    30    59    58    2
    31    24    25    1
    32   115   114    1
    33    26    25    1
    34    26    27    2
    35    56    57    1
    36   114   113    1
    37    45    46    1
    38    58    57    1
    39    57    60    1
    40    60    62    1
    41    60    61    1
    42    46    47    1
    43    69    67    1
    44    63    64    1
    45    66    65    2
    46    67    64    1
    47    67    68    1
    48    64    65    1
    49    47    48    1
    50   111   110   ar
    51    48    49    1
    52   159   158    1
    53   110   112   ar
    54   110   109    1
    55   160   158    1
    56   127   125   am
    57   158   157    2
    58    16    17    1
    59    16    19    1
    60    16    15    1
    61    17    18    2
    62    96    98   ar
    63    96    94   ar
    64    20    19    1
    65    20    21    1
    66    98    97   ar
    67   109   108    1
    68    22    21    1
    69    22    23    1
    70   108   105    1
    71    13    12    1
    72   126   125    2
    73   125   124    1
    74   157   156    1
    75    94    93   ar
    76    97    95   ar
    77   107   106    2
    78    14    12    1
    79   149   147   ar
    80    12     9    1
    81   133   134    1
    82   133   132    1
    83   104   105    1
    84     9    10    1
    85     9     8    1
    86   156   155    1
    87   105   106    1
    88   134   128    1
    89   132   129    1
    90    10    11    2
    91   124   121    1
    92   123   122    2
    93    93    95   ar
    94    93    92    1
    95   102   101    2
    96   128   122   am
    97   128   129    1
    98   122   121    1
    99   147   146    1
   100   147   148   ar
   101   129   130    1
   102   155   154    1
   103   146   143    1
   104   121   120    1
   105   140   139    1
   106    92    89    1
   107   101   100    1
   108   154   151    1
   109    78    76   am
   110    99   100    1
   111    99    90   am
   112   130   131    2
   113   139   141    1
   114   139   136    1
   115    89    90    1
   116    89    88    1
   117   100   103    1
   118    76    75    1
   119    76    77    2
   120   143   142    1
   121   143   144    1
   122    90    91    2
   123    75    74    1
   124   142   137   am
   125   145   144    2
   126   151   150    1
   127   151   152    1
   128    73    72    2
   129   137   138    2
   130   137   136    1
   131    88    81   am
   132   136   135    1
   133    82    81    2
   134    70    71    1
   135    81    80    1
   136    74    71    1
   137   152   153    2
   138    72    71    1
   139    72    79   am
   140    80    79    1
   141    80    83    1
   142     7     5    1
   143     6     5    1
   144     5     2    1
   145    84    83    1
   146    84    85    1
   147    87    85   ar
   148    85    86   ar
   149     2     1    1
   150     2     3    1
   151     4     3    2
