@<TRIPOS>MOLECULE
tmp/4xz3C01.pdb
 61 58 0 0 0
SMALL
GASTEIGER

@<TRIPOS>ATOM
      1  N         50.6660    6.1580   76.5620 N.3   298  ASN298     -0.1225
      2  CA        49.5370    6.4730   77.4340 C.3   298  ASN298      0.1785
      3  C         49.9870    6.9280   78.8220 C.2   298  ASN298      0.2598
      4  O         49.1500    7.2050   79.6830 O.2   298  ASN298     -0.2718
      5  CB        48.6090    5.2660   77.5690 C.3   298  ASN298      0.1169
      6  CG        49.2590    4.1000   78.2960 C.2   298  ASN298      0.2627
      7  OD1       50.4830    3.9820   78.3440 O.2   298  ASN298     -0.2716
      8  ND2       48.4350    3.2230   78.8560 N.am  298  ASN298     -0.0877
      9  N         51.3010    7.0140   79.0280 N.am  299  GLY299     -0.1942
     10  CA        51.8560    7.3840   80.3220 C.3   299  GLY299      0.2014
     11  C         53.1180    8.2270   80.2320 C.2   299  GLY299      0.2639
     12  O         54.0890    7.8610   79.5580 O.2   299  GLY299     -0.2714
     13  N         53.1070    9.3570   80.9320 N.am  300  GLY300     -0.1939
     14  CA        54.2260   10.2810   80.9280 C.3   300  GLY300      0.2014
     15  C         55.5070    9.6750   81.4750 C.2   300  GLY300      0.2639
     16  O         56.5970    9.9480   80.9730 O.2   300  GLY300     -0.2714
     17  N         55.3790    8.8570   82.5150 N.am  301  GLY301     -0.1954
     18  CA        56.5300    8.2120   83.1170 C.3   301  GLY301      0.1869
     19  C         57.2880    7.3800   82.1020 C.2   301  GLY301      0.2309
     20  O         58.5080    7.4990   81.9670 O.2   301  GLY301     -0.2863
     21  N         43.6760   18.1160   77.4980 N.3   335  PHE335     -0.1227
     22  CA        44.7760   18.1750   78.4530 C.3   335  PHE335      0.1736
     23  C         45.8560   17.1380   78.1400 C.2   335  PHE335      0.2595
     24  O         46.7920   16.9620   78.9170 O.2   335  PHE335     -0.2718
     25  CB        44.2610   17.9900   79.8850 C.3   335  PHE335      0.0547
     26  CG        43.4650   16.7330   80.0970 C.ar  335  PHE335     -0.0202
     27  CD1       44.0960   15.5330   80.3760 C.ar  335  PHE335     -0.0042
     28  CD2       42.0820   16.7580   80.0390 C.ar  335  PHE335     -0.0042
     29  CE1       43.3610   14.3780   80.5800 C.ar  335  PHE335     -0.0003
     30  CE2       41.3430   15.6080   80.2450 C.ar  335  PHE335     -0.0003
     31  CZ        41.9840   14.4170   80.5140 C.ar  335  PHE335     -0.0000
     32  N         45.7330   16.4590   77.0020 N.am  336  ALA336     -0.1966
     33  CA        46.7850   15.5610   76.5370 C.3   336  ALA336      0.1728
     34  C         48.0140   16.3720   76.1250 C.2   336  ALA336      0.2616
     35  O         47.9180   17.5840   75.9350 O.2   336  ALA336     -0.2715
     36  CB        46.2880   14.7140   75.3770 C.3   336  ALA336      0.0334
     37  N         49.1590   15.7060   75.9910 N.am  337  SER337     -0.1950
     38  CA        50.3980   16.3730   75.5820 C.3   337  SER337      0.1924
     39  C         50.7720   16.0300   74.1460 C.2   337  SER337      0.2314
     40  O         50.4540   14.9470   73.6460 O.2   337  SER337     -0.2863
     41  CB        51.5510   15.9950   76.5100 C.3   337  SER337      0.2116
     42  OG        52.7140   16.7530   76.2120 O.3   337  SER337     -0.2180
     43  N         51.7220   12.2260   74.6790 N.3   343  ASP343     -0.1239
     44  CA        51.0200   11.5540   75.7730 C.3   343  ASP343      0.1674
     45  C         49.5100   11.5530   75.5220 C.2   343  ASP343      0.2266
     46  O         48.8690   12.6010   75.5980 O.2   343  ASP343     -0.2867
     47  CB        51.3390   12.2360   77.1110 C.3   343  ASP343      0.1410
     48  CG        50.8910   11.4180   78.3230 C.2   343  ASP343      0.3668
     49  OD1       50.1060   10.4560   78.1620 O.co2 343  ASP343     -0.2456
     50  OD2       51.3210   11.7490   79.4510 O.co2 343  ASP343     -0.2456
     51  N         47.4110   10.1400   77.4620 N.3   345  THR345     -0.1203
     52  CA        46.8160   10.0010   78.8010 C.3   345  THR345      0.1994
     53  C         46.4340    8.5630   79.1800 C.2   345  THR345      0.2618
     54  O         46.1790    7.7130   78.3220 O.2   345  THR345     -0.2717
     55  CB        45.5520   10.8990   78.9770 C.3   345  THR345      0.1784
     56  OG1       44.3680   10.1970   78.5720 O.3   345  THR345     -0.2211
     57  CG2       45.6830   12.2160   78.2070 C.3   345  THR345      0.0376
     58  N         46.4110    8.3140   80.4890 N.am  346  GLY346     -0.1956
     59  CA        46.2180    6.9840   81.0390 C.3   346  GLY346      0.1869
     60  C         44.8570    6.3610   80.7950 C.2   346  GLY346      0.2309
     61  O         44.7260    5.1370   80.8190 O.2   346  GLY346     -0.2863
@<TRIPOS>BOND
     1    40    39    2
     2    39    38    1
     3    43    44    1
     4    36    33    1
     5    45    46    2
     6    45    44    1
     7    38    37    1
     8    38    41    1
     9    44    47    1
    10    35    34    2
    11    37    34   am
    12    34    33    1
    13    42    41    1
    14    33    32    1
    15     1     2    1
    16    32    23   am
    17    47    48    1
    18     2     5    1
    19     2     3    1
    20    51    52    1
    21    21    22    1
    22     5     6    1
    23    23    22    1
    24    23    24    2
    25    49    48   ar
    26    57    55    1
    27     6     7    2
    28     6     8   am
    29    54    53    2
    30    48    50   ar
    31    22    25    1
    32    56    55    1
    33    52    55    1
    34    52    53    1
    35     3     9   am
    36     3     4    2
    37     9    10    1
    38    53    58   am
    39    12    11    2
    40    25    26    1
    41    28    26   ar
    42    28    30   ar
    43    26    27   ar
    44    11    10    1
    45    11    13   am
    46    30    31   ar
    47    27    29   ar
    48    58    59    1
    49    31    29   ar
    50    60    61    2
    51    60    59    1
    52    14    13    1
    53    14    15    1
    54    16    15    2
    55    15    17   am
    56    20    19    2
    57    19    18    1
    58    17    18    1
