@<TRIPOS>MOLECULE
tmp/4xz9C00.pdb
 93 86 0 0 0
SMALL
GASTEIGER

@<TRIPOS>ATOM
      1  N        -10.0200   -7.1460   13.8980 N.3     6  ASP6       -0.1239
      2  CA       -10.7750   -6.7620   15.0890 C.3     6  ASP6        0.1674
      3  C        -10.4540   -5.3070   15.4020 C.2     6  ASP6        0.2266
      4  O         -9.6270   -5.0170   16.2660 O.2     6  ASP6       -0.2867
      5  CB       -10.3600   -7.6700   16.2500 C.3     6  ASP6        0.1410
      6  CG       -11.3430   -7.6490   17.3980 C.2     6  ASP6        0.3668
      7  OD1      -10.9370   -8.0150   18.5300 O.co2   6  ASP6       -0.2456
      8  OD2      -12.5140   -7.3320   17.1690 O.co2   6  ASP6       -0.2456
      9  N        -16.9630   -3.9140   18.1140 N.3    28  ASN28      -0.1240
     10  CA       -17.7260   -4.0780   19.3420 C.3    28  ASN28       0.1653
     11  C        -17.8470   -2.6750   19.8930 C.2    28  ASN28       0.2266
     12  O        -17.2370   -1.7590   19.3450 O.2    28  ASN28      -0.2867
     13  CB       -17.0540   -5.0880   20.3020 C.3    28  ASN28       0.1155
     14  CG       -15.7150   -4.6040   20.8660 C.2    28  ASN28       0.2627
     15  OD1      -15.5520   -3.4480   21.2650 O.2    28  ASN28      -0.2716
     16  ND2      -14.7570   -5.5080   20.9070 N.am   28  ASN28      -0.0877
     17  N        -14.4520   -0.9040   20.7450 N.3    31  LEU31      -0.1245
     18  CA       -13.6720   -0.5560   19.5620 C.3    31  LEU31       0.1561
     19  C        -14.2530    0.6530   18.8340 C.2    31  LEU31       0.2260
     20  O        -13.5030    1.5220   18.3510 O.2    31  LEU31      -0.2867
     21  CB       -13.6070   -1.7380   18.5940 C.3    31  LEU31       0.0270
     22  CG       -12.8290   -2.9300   19.1400 C.3    31  LEU31       0.0019
     23  CD1      -12.9650   -4.1200   18.1690 C.3    31  LEU31       0.0001
     24  CD2      -11.3510   -2.5800   19.3720 C.3    31  LEU31       0.0001
     25  N        -23.9860   -8.8590   16.1200 N.3    86  LYS86      -0.1245
     26  CA       -23.3300   -9.4290   17.2930 C.3    86  LYS86       0.1561
     27  C        -24.3090   -9.3350   18.4490 C.2    86  LYS86       0.2260
     28  O        -24.9230   -8.2920   18.6710 O.2    86  LYS86      -0.2867
     29  CB       -22.0560   -8.6740   17.6230 C.3    86  LYS86       0.0271
     30  CG       -20.7800   -9.3940   17.3030 C.3    86  LYS86       0.0035
     31  CD       -19.6170   -8.5140   17.6880 C.3    86  LYS86       0.0206
     32  CE       -18.4150   -9.3320   18.0040 C.3    86  LYS86       0.1093
     33  NZ       -17.3090   -8.4680   18.4510 N.3    86  LYS86      -0.1314
     34  N        -13.6880  -15.6190   23.9000 N.3   132  TYR132     -0.1241
     35  CA       -12.6960  -14.5770   24.1780 C.3   132  TYR132      0.1605
     36  C        -11.4450  -15.1910   24.8350 C.2   132  TYR132      0.2264
     37  O        -11.3270  -15.1920   26.0790 O.2   132  TYR132     -0.2867
     38  CB       -13.2930  -13.5360   25.1070 C.3   132  TYR132      0.0534
     39  CG       -14.0850  -12.4370   24.4250 C.ar  132  TYR132     -0.0201
     40  CD1      -14.0410  -11.1380   24.9110 C.ar  132  TYR132     -0.0009
     41  CD2      -14.8800  -12.6970   23.3190 C.ar  132  TYR132     -0.0009
     42  CE1      -14.7330  -10.1240   24.3080 C.ar  132  TYR132      0.0417
     43  CE2      -15.5940  -11.6780   22.7070 C.ar  132  TYR132      0.0417
     44  CZ       -15.5200  -10.4030   23.2120 C.ar  132  TYR132      0.1957
     45  OH       -16.2150   -9.3840   22.6230 O.3   132  TYR132     -0.2866
     46  N         -9.1040  -13.0500   27.3060 N.3   135  ARG135     -0.1245
     47  CA        -9.6750  -12.7050   28.6180 C.3   135  ARG135      0.1563
     48  C         -9.6860  -13.9070   29.5290 C.2   135  ARG135      0.2260
     49  O         -9.6900  -13.7660   30.7640 O.2   135  ARG135     -0.2867
     50  CB       -11.0870  -12.1320   28.4940 C.3   135  ARG135      0.0307
     51  CG       -11.0630  -10.7860   27.7210 C.3   135  ARG135      0.0489
     52  CD       -12.3680  -10.0470   27.8920 C.3   135  ARG135      0.2205
     53  NE       -12.3760   -8.8220   27.0780 N.pl3 135  ARG135     -0.0865
     54  CZ       -13.4030   -7.9720   27.0060 C.cat 135  ARG135      0.5346
     55  NH1      -14.5220   -8.1810   27.7100 N.pl3 135  ARG135      0.1354
     56  NH2      -13.3110   -6.8910   26.2290 N.pl3 135  ARG135      0.1354
     57  N        -11.8010  -14.9520   19.3020 N.3   166  ALA166     -0.1231
     58  CA       -11.7320  -13.4990   19.5300 C.3   166  ALA166      0.1694
     59  C        -10.8840  -13.1910   20.7720 C.2   166  ALA166      0.2593
     60  O        -10.3630  -14.1310   21.4110 O.2   166  ALA166     -0.2718
     61  CB       -13.1310  -12.9430   19.6690 C.3   166  ALA166      0.0304
     62  N        -10.6990  -11.9040   21.0780 N.am  167  SER167     -0.1938
     63  CA        -9.7520  -11.4920   22.1340 C.3   167  SER167      0.2055
     64  C         -8.3680  -12.1230   21.9070 C.2   167  SER167      0.2643
     65  O         -7.7280  -12.6350   22.8200 O.2   167  SER167     -0.2714
     66  CB       -10.2860  -11.8740   23.5320 C.3   167  SER167      0.2130
     67  OG        -9.6900  -11.0420   24.5080 O.3   167  SER167     -0.2179
     68  N         -7.8970  -12.0610   20.6740 N.am  168  ILE168     -0.1963
     69  CA        -6.5680  -12.5650   20.3480 C.3   168  ILE168      0.1727
     70  C         -5.5190  -11.5490   20.7040 C.2   168  ILE168      0.2616
     71  O         -5.6730  -10.3470   20.4280 O.2   168  ILE168     -0.2715
     72  CB        -6.5230  -12.9460   18.8790 C.3   168  ILE168      0.0290
     73  CG1       -7.3410  -14.2460   18.7450 C.3   168  ILE168      0.0022
     74  CG2       -5.0710  -13.0870   18.3730 C.3   168  ILE168      0.0023
     75  CD1       -7.3140  -14.8420   17.3660 C.3   168  ILE168      0.0001
     76  N         -4.4610  -12.0200   21.3380 N.am  169  ARG169     -0.1977
     77  CA        -3.4210  -11.1250   21.8660 C.3   169  ARG169      0.1597
     78  C         -2.0610  -11.3300   21.2410 C.2   169  ARG169      0.2287
     79  O         -1.1890  -10.4920   21.3870 O.2   169  ARG169     -0.2864
     80  CB        -3.2810  -11.3550   23.3870 C.3   169  ARG169      0.0334
     81  CG        -4.5930  -11.2430   24.1780 C.3   169  ARG169      0.0492
     82  CD        -5.0760   -9.7560   24.3330 C.3   169  ARG169      0.2205
     83  NE        -6.3460   -9.7170   25.0600 N.pl3 169  ARG169     -0.0865
     84  CZ        -6.4500   -9.8410   26.3850 C.cat 169  ARG169      0.5346
     85  NH1       -5.3690  -10.0150   27.1260 N.pl3 169  ARG169      0.1354
     86  NH2       -7.6390   -9.8390   26.9620 N.pl3 169  ARG169      0.1354
     87  N        -10.2590  -13.5210   14.6840 N.3   186  THR186     -0.1218
     88  CA       -10.3300  -12.0600   14.4620 C.3   186  THR186      0.1862
     89  C         -9.2130  -11.4480   15.2860 C.2   186  THR186      0.2287
     90  O         -9.0270  -11.7830   16.4520 O.2   186  THR186     -0.2866
     91  CB       -11.6980  -11.4350   14.7920 C.3   186  THR186      0.1770
     92  OG1      -11.6550  -10.0640   14.3270 O.3   186  THR186     -0.2211
     93  CG2      -12.0320  -11.4840   16.3110 C.3   186  THR186      0.0375
@<TRIPOS>BOND
     1     1     2    1
     2    92    91    1
     3    88    87    1
     4    88    91    1
     5    88    89    1
     6    91    93    1
     7     2     3    1
     8     2     5    1
     9    89    90    2
    10     3     4    2
    11    25    26    1
    12     5     6    1
    13     8     6   ar
    14    26    29    1
    15    26    27    1
    16    30    29    1
    17    30    31    1
    18    75    73    1
    19     6     7   ar
    20    31    32    1
    21    32    33    1
    22     9    10    1
    23    23    22    1
    24    20    19    2
    25    74    72    1
    26    27    28    2
    27    21    22    1
    28    21    18    1
    29    73    72    1
    30    19    18    1
    31    72    69    1
    32    22    24    1
    33    57    58    1
    34    10    11    1
    35    10    13    1
    36    12    11    2
    37    58    61    1
    38    58    59    1
    39    18    17    1
    40    13    14    1
    41    69    68    1
    42    69    70    1
    43    71    70    2
    44    68    64   am
    45    70    76   am
    46    59    62   am
    47    59    60    2
    48    14    16   am
    49    14    15    2
    50    62    63    1
    51    78    79    2
    52    78    77    1
    53    76    77    1
    54    77    80    1
    55    64    63    1
    56    64    65    2
    57    63    66    1
    58    45    44    1
    59    43    44   ar
    60    43    41   ar
    61    44    42   ar
    62    41    39   ar
    63    80    81    1
    64    66    67    1
    65    34    35    1
    66    81    82    1
    67    35    36    1
    68    35    38    1
    69    42    40   ar
    70    82    83    1
    71    39    40   ar
    72    39    38    1
    73    36    37    2
    74    83    84    2
    75    56    54    1
    76    84    86    1
    77    84    85    1
    78    54    53    2
    79    54    55    1
    80    53    52    1
    81    46    47    1
    82    51    52    1
    83    51    50    1
    84    50    47    1
    85    47    48    1
    86    48    49    2
