@<TRIPOS>MOLECULE
tmp/4xzhA01.pdb
 178 180 0 0 0
SMALL
GASTEIGER

@<TRIPOS>ATOM
      1  N          1.1750   -2.1110   -8.3270 N.3    21  TRP21      -0.1241
      2  CA         1.9450   -1.0440   -8.9670 C.3    21  TRP21       0.1605
      3  C          2.9870   -1.6860   -9.8850 C.2    21  TRP21       0.2264
      4  O          3.7350   -2.5590   -9.4590 O.2    21  TRP21      -0.2867
      5  CB         2.6060   -0.1570   -7.9140 C.3    21  TRP21       0.0550
      6  CG         3.5170    0.8970   -8.4540 C.ar   21  TRP21       0.0003
      7  CD1        3.3520    1.6580   -9.5750 C.ar   21  TRP21       0.0946
      8  CD2        4.7730    1.2670   -7.9000 C.ar   21  TRP21       0.0152
      9  NE1        4.4260    2.5010   -9.7280 N.ar   21  TRP21      -0.2442
     10  CE2        5.3270    2.2620   -8.7260 C.ar   21  TRP21       0.0810
     11  CE3        5.4850    0.8570   -6.7620 C.ar   21  TRP21       0.0012
     12  CZ2        6.5500    2.8600   -8.4480 C.ar   21  TRP21       0.0191
     13  CZ3        6.7050    1.4380   -6.4910 C.ar   21  TRP21       0.0001
     14  CH2        7.2330    2.4250   -7.3340 C.ar   21  TRP21       0.0015
     15  N         -3.4650    5.9020   -9.9530 N.3    48  VAL48      -0.1231
     16  CA        -2.2230    6.2650  -10.6190 C.3    48  VAL48       0.1692
     17  C         -1.5050    5.0630  -11.2240 C.2    48  VAL48       0.2592
     18  O         -0.6630    5.2340  -12.0900 O.2    48  VAL48      -0.2718
     19  CB        -1.2870    7.0410   -9.6570 C.3    48  VAL48       0.0266
     20  CG1       -0.5650    6.1140   -8.6990 C.3    48  VAL48       0.0020
     21  CG2       -0.2730    7.8970  -10.4190 C.3    48  VAL48       0.0020
     22  N         -1.8300    3.8460  -10.7860 N.am   49  TYR49      -0.1976
     23  CA        -1.2020    2.6440  -11.3580 C.3    49  TYR49       0.1639
     24  C         -1.7420    2.3670  -12.7670 C.2    49  TYR49       0.2290
     25  O         -1.1290    1.6110  -13.5210 O.2    49  TYR49      -0.2864
     26  CB        -1.3880    1.4120  -10.4620 C.3    49  TYR49       0.0560
     27  CG        -0.8730    1.5530   -9.0630 C.ar   49  TYR49      -0.0198
     28  CD1        0.0030    2.5690   -8.7160 C.ar   49  TYR49      -0.0009
     29  CD2       -1.2730    0.6690   -8.0620 C.ar   49  TYR49      -0.0009
     30  CE1        0.4470    2.7270   -7.3990 C.ar   49  TYR49       0.0417
     31  CE2       -0.8360    0.8040   -6.7640 C.ar   49  TYR49       0.0417
     32  CZ         0.0190    1.8380   -6.4250 C.ar   49  TYR49       0.1957
     33  OH         0.4310    1.9800   -5.1180 O.3    49  TYR49      -0.2866
     34  N         -5.5170    9.9240   -6.0130 N.3    80  TRP80      -0.1241
     35  CA        -4.2550   10.4620   -6.4910 C.3    80  TRP80       0.1605
     36  C         -4.1220   11.9580   -6.1410 C.2    80  TRP80       0.2264
     37  O         -5.0970   12.6700   -5.8620 O.2    80  TRP80      -0.2867
     38  CB        -4.0350   10.1800   -7.9990 C.3    80  TRP80       0.0550
     39  CG        -2.6860   10.6510   -8.4340 C.ar   80  TRP80       0.0003
     40  CD1       -2.4070   11.6520   -9.3210 C.ar   80  TRP80       0.0946
     41  CD2       -1.4170   10.2440   -7.8900 C.ar   80  TRP80       0.0152
     42  NE1       -1.0580   11.8990   -9.3590 N.ar   80  TRP80      -0.2442
     43  CE2       -0.4270   11.0410   -8.5020 C.ar   80  TRP80       0.0810
     44  CE3       -1.0180    9.2710   -6.9570 C.ar   80  TRP80       0.0012
     45  CZ2        0.9300   10.8940   -8.2090 C.ar   80  TRP80       0.0191
     46  CZ3        0.3260    9.1310   -6.6680 C.ar   80  TRP80       0.0001
     47  CH2        1.2870    9.9320   -7.2870 C.ar   80  TRP80       0.0015
     48  N         -3.4660    8.9570   -1.1230 N.3   111  HIS111     -0.1226
     49  CA        -2.2890    8.2100   -1.5870 C.3   111  HIS111      0.1752
     50  C         -0.9750    8.8200   -1.0460 C.2   111  HIS111      0.2596
     51  O         -0.0790    8.0980   -0.6140 O.2   111  HIS111     -0.2718
     52  CB        -2.2870    8.1780   -3.1200 C.3   111  HIS111      0.0759
     53  CG        -1.4790    7.0800   -3.7100 C.ar  111  HIS111      0.0818
     54  ND1       -1.7920    6.5250   -4.9330 N.ar  111  HIS111     -0.2268
     55  CD2       -0.3580    6.4560   -3.2660 C.ar  111  HIS111      0.1154
     56  CE1       -0.9000    5.5900   -5.2000 C.ar  111  HIS111      0.1986
     57  NE2       -0.0250    5.5230   -4.2120 N.ar  111  HIS111     -0.2212
     58  N         -0.8910   10.1430   -1.0970 N.am  112  TRP112     -0.1976
     59  CA         0.2250   10.9190   -0.5420 C.3   112  TRP112      0.1640
     60  C         -0.3750   12.1690    0.0950 C.2   112  TRP112      0.2290
     61  O         -1.4280   12.6440   -0.3570 O.2   112  TRP112     -0.2864
     62  CB         1.2250   11.3420   -1.6490 C.3   112  TRP112      0.0576
     63  CG         2.0100   10.1770   -2.2100 C.ar  112  TRP112      0.0006
     64  CD1        1.6050    9.2860   -3.1750 C.ar  112  TRP112      0.0946
     65  CD2        3.3090    9.7690   -1.8060 C.ar  112  TRP112      0.0152
     66  NE1        2.5800    8.3390   -3.3810 N.ar  112  TRP112     -0.2442
     67  CE2        3.6360    8.6100   -2.5490 C.ar  112  TRP112      0.0810
     68  CE3        4.2320   10.2710   -0.8850 C.ar  112  TRP112      0.0012
     69  CZ2        4.8440    7.9390   -2.3750 C.ar  112  TRP112      0.0191
     70  CZ3        5.4450    9.6040   -0.7200 C.ar  112  TRP112      0.0001
     71  CH2        5.7350    8.4480   -1.4590 C.ar  112  TRP112      0.0015
     72  N          0.5430   15.1210   -0.1880 N.3   114  THR114     -0.1218
     73  CA         0.8000   16.2570   -1.0560 C.3   114  THR114      0.1862
     74  C         -0.2600   16.3820   -2.1680 C.2   114  THR114      0.2287
     75  O         -0.4380   15.4580   -2.9670 O.2   114  THR114     -0.2866
     76  CB         2.1580   16.0320   -1.7400 C.3   114  THR114      0.1770
     77  OG1        2.1610   14.7260   -2.3240 O.3   114  THR114     -0.2211
     78  CG2        3.3130   16.0820   -0.7680 C.3   114  THR114      0.0375
     79  N         -1.3490   17.8840   -5.7370 N.3   116  PHE116     -0.1241
     80  CA        -0.7290   18.3490   -6.9710 C.3   116  PHE116      0.1605
     81  C         -1.7800   19.1180   -7.7930 C.2   116  PHE116      0.2264
     82  O         -2.9760   18.8470   -7.7030 O.2   116  PHE116     -0.2867
     83  CB        -0.2290   17.1950   -7.8660 C.3   116  PHE116      0.0534
     84  CG         0.9080   16.3430   -7.3120 C.ar  116  PHE116     -0.0203
     85  CD1        1.5600   16.6040   -6.1200 C.ar  116  PHE116     -0.0042
     86  CD2        1.3320   15.2590   -8.0730 C.ar  116  PHE116     -0.0042
     87  CE1        2.6060   15.7610   -5.6930 C.ar  116  PHE116     -0.0003
     88  CE2        2.3520   14.4350   -7.6540 C.ar  116  PHE116     -0.0003
     89  CZ         2.9870   14.6760   -6.4650 C.ar  116  PHE116     -0.0000
     90  N          1.8320   13.9250  -12.8000 N.3   123  PHE123     -0.1241
     91  CA         3.0020   14.4820  -12.1340 C.3   123  PHE123      0.1605
     92  C          3.3750   15.7730  -12.8640 C.2   123  PHE123      0.2264
     93  O          4.3770   15.8290  -13.5780 O.2   123  PHE123     -0.2867
     94  CB         4.2030   13.5120  -12.1500 C.3   123  PHE123      0.0534
     95  CG         4.0460   12.3100  -11.2680 C.ar  123  PHE123     -0.0203
     96  CD1        3.3200   11.2280  -11.6990 C.ar  123  PHE123     -0.0042
     97  CD2        4.6670   12.2380  -10.0260 C.ar  123  PHE123     -0.0042
     98  CE1        3.1790   10.1010  -10.9080 C.ar  123  PHE123     -0.0003
     99  CE2        4.5370   11.1140   -9.2280 C.ar  123  PHE123     -0.0003
    100  CZ         3.7990   10.0490   -9.6780 C.ar  123  PHE123     -0.0000
    101  N          1.7490    7.2360    3.3470 N.3   161  ASN161     -0.1240
    102  CA         2.9120    8.1200    3.3610 C.3   161  ASN161      0.1653
    103  C          2.7030    9.3510    4.2360 C.2   161  ASN161      0.2266
    104  O          3.2500   10.4210    3.9280 O.2   161  ASN161     -0.2867
    105  CB         3.2950    8.5500    1.9450 C.3   161  ASN161      0.1155
    106  CG         3.5480    7.3740    1.0630 C.2   161  ASN161      0.2627
    107  OD1        4.5020    6.6170    1.2750 O.2   161  ASN161     -0.2716
    108  ND2        2.6780    7.1890    0.0780 N.am  161  ASN161     -0.0877
    109  N          4.2560   -1.4360    2.5150 N.3   210  TYR210     -0.1241
    110  CA         4.4570   -1.5000    1.0790 C.3   210  TYR210      0.1605
    111  C          5.9400   -1.6700    0.7400 C.2   210  TYR210      0.2264
    112  O          6.8210   -1.4890    1.5740 O.2   210  TYR210     -0.2867
    113  CB         3.8040   -0.3080    0.3830 C.3   210  TYR210      0.0534
    114  CG         4.4590    1.0630    0.3690 C.ar  210  TYR210     -0.0201
    115  CD1        5.6650    1.2840   -0.2630 C.ar  210  TYR210     -0.0009
    116  CD2        3.7610    2.1780    0.8360 C.ar  210  TYR210     -0.0009
    117  CE1        6.1800    2.5670   -0.4040 C.ar  210  TYR210      0.0417
    118  CE2        4.2580    3.4500    0.6940 C.ar  210  TYR210      0.0417
    119  CZ         5.4690    3.6420    0.0570 C.ar  210  TYR210      0.1957
    120  OH         5.9880    4.8830   -0.1810 O.3   210  TYR210     -0.2866
    121  N         13.0540    4.5480  -10.7140 N.3   220  TRP220     -0.1241
    122  CA        14.0730    5.5540  -10.4250 C.3   220  TRP220      0.1605
    123  C         15.1870    4.9790   -9.5540 C.2   220  TRP220      0.2264
    124  O         15.9700    5.7250   -8.9610 O.2   220  TRP220     -0.2867
    125  CB        13.4290    6.7540   -9.7100 C.3   220  TRP220      0.0550
    126  CG        12.7420    6.3500   -8.4670 C.ar  220  TRP220      0.0003
    127  CD1       13.3220    6.0970   -7.2580 C.ar  220  TRP220      0.0946
    128  CD2       11.3450    6.0940   -8.2990 C.ar  220  TRP220      0.0152
    129  NE1       12.3710    5.7140   -6.3450 N.ar  220  TRP220     -0.2442
    130  CE2       11.1470    5.7060   -6.9590 C.ar  220  TRP220      0.0810
    131  CE3       10.2340    6.1760   -9.1450 C.ar  220  TRP220      0.0012
    132  CZ2        9.8900    5.3950   -6.4530 C.ar  220  TRP220      0.0191
    133  CZ3        8.9920    5.8650   -8.6350 C.ar  220  TRP220      0.0001
    134  CH2        8.8330    5.4770   -7.3070 C.ar  220  TRP220      0.0015
    135  N         11.1000    4.7880   -1.8930 N.3   299  CYS299     -0.1221
    136  CA         9.9550    5.4960   -2.4860 C.3   299  CYS299      0.1808
    137  C          9.8800    6.9450   -1.9710 C.2   299  CYS299      0.2601
    138  O          9.2880    7.2470   -0.9650 O.2   299  CYS299     -0.2717
    139  CB         8.6340    4.7920   -2.1710 C.3   299  CYS299      0.0970
    140  SG         8.4650    3.1470   -2.8960 S.3   299  CYS299     -0.0800
    141  N         10.5500    7.8180   -2.7260 N.am  300  ALA300     -0.1965
    142  CA        10.6060    9.2340   -2.4240 C.3   300  ALA300      0.1728
    143  C         11.2060    9.9020   -3.6530 C.2   300  ALA300      0.2616
    144  O         12.1130    9.3360   -4.2670 O.2   300  ALA300     -0.2715
    145  CB        11.4790    9.4840   -1.2220 C.3   300  ALA300      0.0334
    146  N         10.7060   11.0890   -4.0040 N.am  301  LEU301     -0.1977
    147  CA        11.1320   11.8060   -5.2080 C.3   301  LEU301      0.1596
    148  C         11.7080   13.1670   -4.8800 C.2   301  LEU301      0.2287
    149  O         11.1160   13.9670   -4.1500 O.2   301  LEU301     -0.2864
    150  CB         9.9550   12.0440   -6.1540 C.3   301  LEU301      0.0297
    151  CG         9.2670   10.8440   -6.7830 C.3   301  LEU301      0.0022
    152  CD1        8.2080   11.3320   -7.7570 C.3   301  LEU301      0.0001
    153  CD2       10.2640    9.9140   -7.4760 C.3   301  LEU301      0.0001
    154  N          9.4830   16.2380   -5.3060 N.3   304  CYS304     -0.1235
    155  CA         8.4100   16.5060   -4.3460 C.3   304  CYS304      0.1677
    156  C          8.9110   17.1250   -3.0360 C.2   304  CYS304      0.2270
    157  O          8.1120   17.4810   -2.1640 O.2   304  CYS304     -0.2867
    158  CB         7.6580   15.2150   -4.0330 C.3   304  CYS304      0.0956
    159  SG         6.7660   14.5370   -5.4450 S.3   304  CYS304     -0.0801
    160  N          5.3810   17.5880    1.9870 N.3   310  TYR310     -0.1228
    161  CA         6.3010   16.4730    1.7750 C.3   310  TYR310      0.1721
    162  C          6.5100   15.7600    3.1120 C.2   310  TYR310      0.2437
    163  O          6.8080   16.4100    4.1090 O.2   310  TYR310     -0.2733
    164  CB         7.6400   16.9580    1.2540 C.3   310  TYR310      0.0547
    165  CG         8.6480   15.8590    1.0100 C.ar  310  TYR310     -0.0200
    166  CD1        8.5080   14.9630   -0.0430 C.ar  310  TYR310     -0.0009
    167  CD2        9.7560   15.7210    1.8280 C.ar  310  TYR310     -0.0009
    168  CE1        9.4430   13.9680   -0.2710 C.ar  310  TYR310      0.0417
    169  CE2       10.6980   14.7280    1.6060 C.ar  310  TYR310      0.0417
    170  CZ        10.5410   13.8650    0.5500 C.ar  310  TYR310      0.1957
    171  OH        11.4700   12.8760    0.3180 O.3   310  TYR310     -0.2866
    172  N          6.3480   14.4290    3.1480 N.am  311  PRO311     -0.2729
    173  CA         6.2680   13.7670    4.4580 C.3   311  PRO311      0.1401
    174  C          7.5980   13.3730    5.1010 C.2   311  PRO311      0.2269
    175  O          7.5960   13.0440    6.2930 O.2   311  PRO311     -0.2865
    176  CB         5.4500   12.4990    4.1530 C.3   311  PRO311      0.0296
    177  CG         5.7580   12.2100    2.7180 C.3   311  PRO311      0.0237
    178  CD         5.8420   13.5700    2.0640 C.3   311  PRO311      0.0939
@<TRIPOS>BOND
     1    93    92    2
     2    25    24    2
     3    92    91    1
     4    90    91    1
     5    24    23    1
     6    94    91    1
     7    94    95    1
     8    18    17    2
     9    96    95   ar
    10    96    98   ar
    11    23    22    1
    12    23    26    1
    13    95    97   ar
    14    17    22   am
    15    17    16    1
    16    98   100   ar
    17   121   122    1
    18    16    15    1
    19    16    19    1
    20    26    27    1
    21   122   125    1
    22   122   123    1
    23    21    19    1
    24    97    99   ar
    25     3     4    2
    26     3     2    1
    27     9     7   ar
    28     9    10   ar
    29   125   126    1
    30   100    99   ar
    31    19    20    1
    32     7     6   ar
    33   123   124    2
    34    42    40   ar
    35    42    43   ar
    36    40    39   ar
    37   131   133   ar
    38   131   128   ar
    39    27    28   ar
    40    27    29   ar
    41     2     1    1
    42     2     5    1
    43    10    12   ar
    44    10     8   ar
    45    28    30   ar
    46   133   134   ar
    47    43    45   ar
    48    43    41   ar
    49   126   128   ar
    50   126   127   ar
    51     6     5    1
    52     6     8   ar
    53    12    14   ar
    54    39    38    1
    55    39    41   ar
    56   128   130   ar
    57    45    47   ar
    58    86    88   ar
    59    86    84   ar
    60    29    31   ar
    61    38    35    1
    62     8    11   ar
    63    41    44   ar
    64    83    84    1
    65    83    80    1
    66    81    82    2
    67    81    80    1
    68   152   151    1
    69    88    89   ar
    70   153   151    1
    71    30    32   ar
    72    14    13   ar
    73    84    85   ar
    74   134   132   ar
    75    47    46   ar
    76   127   129   ar
    77    80    79    1
    78   130   132   ar
    79   130   129   ar
    80    44    46   ar
    81   151   150    1
    82    31    32   ar
    83    11    13   ar
    84    35    36    1
    85    35    34    1
    86    89    87   ar
    87    32    33    1
    88   150   147    1
    89    36    37    2
    90    85    87   ar
    91   159   158    1
    92   154   155    1
    93   147   148    1
    94   147   146    1
    95    56    54   ar
    96    56    57   ar
    97    54    53   ar
    98   148   149    2
    99   155   158    1
   100   155   156    1
   101   144   143    2
   102    57    55   ar
   103   146   143   am
   104    53    55   ar
   105    53    52    1
   106   143   142    1
   107    66    64   ar
   108    66    67   ar
   109    64    63   ar
   110    52    49    1
   111   156   157    2
   112    75    74    2
   113   140   139    1
   114   141   142    1
   115   141   137   am
   116    67    69   ar
   117    67    65   ar
   118   136   139    1
   119   136   137    1
   120   136   135    1
   121   142   145    1
   122    69    71   ar
   123    77    76    1
   124    63    65   ar
   125    63    62    1
   126    74    73    1
   127   137   138    2
   128    65    68   ar
   129    76    73    1
   130    76    78    1
   131    62    59    1
   132    49    48    1
   133    49    50    1
   134    71    70   ar
   135    58    50   am
   136    58    59    1
   137    73    72    1
   138    50    51    2
   139    68    70   ar
   140    59    60    1
   141   117   115   ar
   142   117   119   ar
   143    61    60    2
   144   168   166   ar
   145   168   170   ar
   146   115   114   ar
   147   120   119    1
   148   166   165   ar
   149   119   118   ar
   150   108   106   am
   151   171   170    1
   152   114   113    1
   153   114   116   ar
   154   113   110    1
   155   170   169   ar
   156   118   116   ar
   157   111   110    1
   158   111   112    2
   159   165   164    1
   160   165   167   ar
   161   106   107    2
   162   106   105    1
   163   110   109    1
   164   164   161    1
   165   169   167   ar
   166   161   160    1
   167   161   162    1
   168   105   102    1
   169   178   177    1
   170   178   172    1
   171   177   176    1
   172   162   172   am
   173   162   163    2
   174   172   173    1
   175   101   102    1
   176   102   103    1
   177   104   103    2
   178   176   173    1
   179   173   174    1
   180   174   175    2
