@<TRIPOS>MOLECULE
tmp/4xziA01.pdb
 167 168 0 0 0
SMALL
GASTEIGER

@<TRIPOS>ATOM
      1  N         16.3610    4.7620   36.5260 N.3    21  TRP21      -0.1241
      2  CA        15.0260    4.1820   36.6710 C.3    21  TRP21       0.1605
      3  C         15.1310    2.7140   36.2790 C.2    21  TRP21       0.2264
      4  O         15.7390    2.4140   35.2640 O.2    21  TRP21      -0.2867
      5  CB        14.0080    4.9210   35.7920 C.3    21  TRP21       0.0550
      6  CG        12.6180    4.3030   35.7450 C.ar   21  TRP21       0.0003
      7  CD1       11.9000    3.7690   36.7880 C.ar   21  TRP21       0.0946
      8  CD2       11.7850    4.1800   34.5900 C.ar   21  TRP21       0.0152
      9  NE1       10.6810    3.3200   36.3430 N.ar   21  TRP21      -0.2442
     10  CE2       10.5910    3.5470   34.9970 C.ar   21  TRP21       0.0810
     11  CE3       11.9370    4.5270   33.2500 C.ar   21  TRP21       0.0012
     12  CZ2        9.5590    3.2690   34.1120 C.ar   21  TRP21       0.0191
     13  CZ3       10.9010    4.2400   32.3710 C.ar   21  TRP21       0.0001
     14  CH2        9.7360    3.6170   32.8070 C.ar   21  TRP21       0.0015
     15  N         11.1450    7.9970   43.7270 N.3    48  VAL48      -0.1231
     16  CA        10.2840    6.9240   43.2190 C.3    48  VAL48       0.1692
     17  C         11.0080    5.7610   42.5120 C.2    48  VAL48       0.2592
     18  O         10.3560    4.8260   42.0460 O.2    48  VAL48      -0.2718
     19  CB         9.2240    7.4950   42.2330 C.3    48  VAL48       0.0266
     20  CG1        9.8200    7.6110   40.8230 C.3    48  VAL48       0.0020
     21  CG2        7.9760    6.6450   42.2220 C.3    48  VAL48       0.0020
     22  N         12.3350    5.8090   42.4120 N.am   49  TYR49      -0.1976
     23  CA        13.0770    4.6850   41.8320 C.3    49  TYR49       0.1639
     24  C         13.4720    3.7140   42.9430 C.2    49  TYR49       0.2290
     25  O         14.0310    2.6380   42.6990 O.2    49  TYR49      -0.2864
     26  CB        14.3120    5.1380   41.0380 C.3    49  TYR49       0.0560
     27  CG        14.0300    6.0700   39.8720 C.ar   49  TYR49      -0.0198
     28  CD1       12.7870    6.1200   39.2690 C.ar   49  TYR49      -0.0009
     29  CD2       15.0330    6.8990   39.3690 C.ar   49  TYR49      -0.0009
     30  CE1       12.5430    6.9890   38.2020 C.ar   49  TYR49       0.0417
     31  CE2       14.8120    7.7510   38.3150 C.ar   49  TYR49       0.0417
     32  CZ        13.5640    7.8050   37.7350 C.ar   49  TYR49       0.1957
     33  OH        13.3460    8.6790   36.6890 O.3    49  TYR49      -0.2866
     34  N          8.5210   13.3720   43.7570 N.3    80  TRP80      -0.1241
     35  CA         7.4500   12.5260   43.2760 C.3    80  TRP80       0.1605
     36  C          6.1030   13.1920   43.4830 C.2    80  TRP80       0.2264
     37  O          5.9680   14.1360   44.2690 O.2    80  TRP80      -0.2867
     38  CB         7.4830   11.1330   43.9240 C.3    80  TRP80       0.0550
     39  CG         6.4860   10.2200   43.2680 C.ar   80  TRP80       0.0003
     40  CD1        5.4340    9.5780   43.8610 C.ar   80  TRP80       0.0946
     41  CD2        6.4110    9.9130   41.8670 C.ar   80  TRP80       0.0152
     42  NE1        4.7250    8.8740   42.9130 N.ar   80  TRP80      -0.2442
     43  CE2        5.3100    9.0640   41.6850 C.ar   80  TRP80       0.0810
     44  CE3        7.1850   10.2620   40.7480 C.ar   80  TRP80       0.0012
     45  CZ2        4.9650    8.5540   40.4260 C.ar   80  TRP80       0.0191
     46  CZ3        6.8260    9.7620   39.5000 C.ar   80  TRP80       0.0001
     47  CH2        5.7380    8.9210   39.3580 C.ar   80  TRP80       0.0015
     48  N          8.7160   16.0480   39.2830 N.3   111  HIS111     -0.1226
     49  CA         8.8720   14.8400   38.4880 C.3   111  HIS111      0.1752
     50  C          7.8050   14.7380   37.3830 C.2   111  HIS111      0.2596
     51  O          8.1270   14.3760   36.2460 O.2   111  HIS111     -0.2718
     52  CB         8.8870   13.6240   39.3990 C.3   111  HIS111      0.0759
     53  CG         9.4530   12.3910   38.7740 C.ar  111  HIS111      0.0818
     54  ND1       10.1750   11.4600   39.4940 N.ar  111  HIS111     -0.2268
     55  CD2        9.3690   11.9090   37.5110 C.ar  111  HIS111      0.1154
     56  CE1       10.5250   10.4650   38.6960 C.ar  111  HIS111      0.1986
     57  NE2       10.0480   10.7120   37.4870 N.ar  111  HIS111     -0.2212
     58  N          6.5570   15.0680   37.7340 N.am  112  TRP112     -0.1976
     59  CA         5.4350   15.1810   36.8020 C.3   112  TRP112      0.1640
     60  C          4.6080   16.3690   37.2500 C.2   112  TRP112      0.2290
     61  O          4.5900   16.6830   38.4430 O.2   112  TRP112     -0.2864
     62  CB         4.5530   13.9290   36.8270 C.3   112  TRP112      0.0576
     63  CG         5.2330   12.7390   36.2960 C.ar  112  TRP112      0.0006
     64  CD1        6.0950   11.9230   36.9630 C.ar  112  TRP112      0.0946
     65  CD2        5.1420   12.2260   34.9580 C.ar  112  TRP112      0.0152
     66  NE1        6.5420   10.9290   36.1280 N.ar  112  TRP112     -0.2442
     67  CE2        5.9690   11.0920   34.8910 C.ar  112  TRP112      0.0810
     68  CE3        4.4350   12.6130   33.8180 C.ar  112  TRP112      0.0012
     69  CZ2        6.1180   10.3470   33.7250 C.ar  112  TRP112      0.0191
     70  CZ3        4.5740   11.8640   32.6690 C.ar  112  TRP112      0.0001
     71  CH2        5.4100   10.7490   32.6270 C.ar  112  TRP112      0.0015
     72  N         -0.4450   13.7040   43.2310 N.3   116  PHE116     -0.1241
     73  CA        -1.1830   12.5430   43.7380 C.3   116  PHE116      0.1605
     74  C         -1.5150   12.7030   45.2350 C.2   116  PHE116      0.2264
     75  O         -0.9040   13.5320   45.9260 O.2   116  PHE116     -0.2867
     76  CB        -0.4230   11.2220   43.5200 C.3   116  PHE116      0.0534
     77  CG        -0.0700   10.9170   42.0740 C.ar  116  PHE116     -0.0203
     78  CD1       -0.5670   11.6870   41.0110 C.ar  116  PHE116     -0.0042
     79  CD2        0.7620    9.8450   41.7800 C.ar  116  PHE116     -0.0042
     80  CE1       -0.2200   11.3950   39.6960 C.ar  116  PHE116     -0.0003
     81  CE2        1.1100    9.5450   40.4420 C.ar  116  PHE116     -0.0003
     82  CZ         0.6180   10.3130   39.4140 C.ar  116  PHE116     -0.0000
     83  N          1.7920    5.2510   43.5300 N.3   123  PHE123     -0.1241
     84  CA         0.6990    5.4840   42.5860 C.3   123  PHE123      0.1605
     85  C         -0.6440    5.0670   43.1850 C.2   123  PHE123      0.2264
     86  O         -1.0460    3.9280   43.0780 O.2   123  PHE123     -0.2867
     87  CB         0.9510    4.7930   41.2250 C.3   123  PHE123      0.0534
     88  CG         1.5980    3.4260   41.3260 C.ar  123  PHE123     -0.0203
     89  CD1        0.8360    2.2870   41.5910 C.ar  123  PHE123     -0.0042
     90  CD2        2.9630    3.2750   41.1290 C.ar  123  PHE123     -0.0042
     91  CE1        1.4260    1.0340   41.6790 C.ar  123  PHE123     -0.0003
     92  CE2        3.5570    2.0230   41.2120 C.ar  123  PHE123     -0.0003
     93  CZ         2.7860    0.9070   41.4900 C.ar  123  PHE123     -0.0000
     94  N         -4.4900    4.5600   43.4170 N.3   125  LEU125     -0.1245
     95  CA        -5.5680    4.4610   42.4480 C.3   125  LEU125      0.1561
     96  C         -6.9210    4.2010   43.0860 C.2   125  LEU125      0.2260
     97  O         -7.0290    3.5290   44.1150 O.2   125  LEU125     -0.2867
     98  CB        -5.2590    3.3580   41.4330 C.3   125  LEU125      0.0270
     99  CG        -4.0450    3.5900   40.5290 C.3   125  LEU125      0.0019
    100  CD1       -3.7680    2.3600   39.6780 C.3   125  LEU125      0.0001
    101  CD2       -4.2510    4.8170   39.6550 C.3   125  LEU125      0.0001
    102  N         -5.4110    7.3020   38.8860 N.3   131  VAL131     -0.1245
    103  CA        -4.8550    7.7470   40.1590 C.3   131  VAL131      0.1561
    104  C         -5.7630    8.7200   40.8920 C.2   131  VAL131      0.2260
    105  O         -6.6460    9.3700   40.3070 O.2   131  VAL131     -0.2867
    106  CB        -3.4730    8.4180   40.0390 C.3   131  VAL131      0.0252
    107  CG1       -2.5770    7.6350   39.0930 C.3   131  VAL131      0.0019
    108  CG2       -3.6440    9.8460   39.6030 C.3   131  VAL131      0.0019
    109  N         14.8460   11.9400   28.0910 N.3   210  TYR210     -0.1241
    110  CA        14.8510   10.6750   28.8160 C.3   210  TYR210      0.1605
    111  C         14.4130    9.5030   27.9560 C.2   210  TYR210      0.2264
    112  O         13.8520    9.7070   26.8890 O.2   210  TYR210     -0.2867
    113  CB        14.0990   10.7720   30.1530 C.3   210  TYR210      0.0534
    114  CG        12.5750   10.8150   30.1490 C.ar  210  TYR210     -0.0201
    115  CD1       11.8430    9.7720   29.6320 C.ar  210  TYR210     -0.0009
    116  CD2       11.8800   11.8680   30.7660 C.ar  210  TYR210     -0.0009
    117  CE1       10.4780    9.7780   29.6710 C.ar  210  TYR210      0.0417
    118  CE2       10.5130   11.8850   30.8010 C.ar  210  TYR210      0.0417
    119  CZ         9.8210   10.8220   30.2610 C.ar  210  TYR210      0.1957
    120  OH         8.4510   10.7600   30.2720 O.3   210  TYR210     -0.2866
    121  N          8.2000   -1.9320   31.8370 N.3   219  PRO219     -0.2102
    122  CA         7.4210   -3.1080   32.2510 C.3   219  PRO219      0.1504
    123  C          6.2230   -3.4170   31.3620 C.2   219  PRO219      0.2575
    124  O          5.8880   -4.5940   31.1510 O.2   219  PRO219     -0.2718
    125  CB         6.9410   -2.7370   33.6630 C.3   219  PRO219      0.0282
    126  CG         7.0710   -1.2640   33.7440 C.3   219  PRO219      0.0208
    127  CD         8.2140   -0.8800   32.8600 C.3   219  PRO219      0.0893
    128  N          5.5940   -2.3720   30.8310 N.am  220  TRP220     -0.1977
    129  CA         4.4000   -2.5380   30.0180 C.3   220  TRP220      0.1640
    130  C          4.7150   -2.5850   28.5160 C.2   220  TRP220      0.2290
    131  O          3.8830   -2.1820   27.7090 O.2   220  TRP220     -0.2864
    132  CB         3.4260   -1.3920   30.2850 C.3   220  TRP220      0.0576
    133  CG         4.0480   -0.0740   29.9890 C.ar  220  TRP220      0.0006
    134  CD1        4.2080    0.5010   28.7650 C.ar  220  TRP220      0.0946
    135  CD2        4.6000    0.8400   30.9320 C.ar  220  TRP220      0.0152
    136  NE1        4.8270    1.7160   28.8850 N.ar  220  TRP220     -0.2442
    137  CE2        5.0850    1.9470   30.2080 C.ar  220  TRP220      0.0810
    138  CE3        4.7350    0.8310   32.3190 C.ar  220  TRP220      0.0012
    139  CZ2        5.6960    3.0330   30.8280 C.ar  220  TRP220      0.0191
    140  CZ3        5.3390    1.8970   32.9280 C.ar  220  TRP220      0.0001
    141  CH2        5.8150    2.9880   32.1910 C.ar  220  TRP220      0.0015
    142  N          6.4710    6.7110   27.9220 N.3   299  CYS299     -0.1235
    143  CA         5.8140    7.1170   29.1770 C.3   299  CYS299      0.1677
    144  C          4.6830    8.1320   29.0150 C.2   299  CYS299      0.2270
    145  O          4.9190    9.3500   28.9920 O.2   299  CYS299     -0.2867
    146  CB         6.8180    7.6550   30.1840 C.3   299  CYS299      0.0956
    147  SG         8.1230    6.5020   30.5820 S.3   299  CYS299     -0.0801
    148  N          1.7710    7.9940   31.0770 N.3   301  LEU301     -0.1245
    149  CA         1.0800    8.2090   32.3630 C.3   301  LEU301      0.1561
    150  C         -0.4290    8.0560   32.1990 C.2   301  LEU301      0.2260
    151  O         -1.2090    8.8670   32.7220 O.2   301  LEU301     -0.2867
    152  CB         1.3900    9.6110   32.9010 C.3   301  LEU301      0.0270
    153  CG         1.3880    9.8590   34.4080 C.3   301  LEU301      0.0019
    154  CD1        2.6320    9.2650   35.0090 C.3   301  LEU301      0.0001
    155  CD2        1.2860   11.3510   34.7340 C.3   301  LEU301      0.0001
    156  N         -2.7480    6.1800   33.2830 N.3   303  SER303     -0.1202
    157  CA        -3.5600    6.1530   34.4910 C.3   303  SER303      0.2020
    158  C         -3.9460    7.5660   34.9260 C.2   303  SER303      0.2619
    159  O         -4.8570    7.7260   35.7460 O.2   303  SER303     -0.2717
    160  CB        -2.7970    5.4640   35.6120 C.3   303  SER303      0.2103
    161  OG        -1.4620    5.9520   35.6390 O.3   303  SER303     -0.2182
    162  N         -3.2630    8.5850   34.3820 N.am  304  CYS304     -0.1969
    163  CA        -3.5860    9.9830   34.7070 C.3   304  CYS304      0.1712
    164  C         -4.2610   10.8010   33.5840 C.2   304  CYS304      0.2296
    165  O         -4.2990   12.0370   33.6580 O.2   304  CYS304     -0.2864
    166  CB        -2.3570   10.7390   35.2270 C.3   304  CYS304      0.0983
    167  SG        -1.5400   10.0140   36.7270 S.3   304  CYS304     -0.0798
@<TRIPOS>BOND
     1   112   111    2
     2   131   130    2
     3   142   143    1
     4   111   110    1
     5   109   110    1
     6   130   129    1
     7   134   136   ar
     8   134   133   ar
     9   110   113    1
    10   136   137   ar
    11   145   144    2
    12   144   143    1
    13   143   146    1
    14   115   117   ar
    15   115   114   ar
    16   117   119   ar
    17   133   132    1
    18   133   135   ar
    19   129   132    1
    20   129   128    1
    21   114   113    1
    22   114   116   ar
    23   146   147    1
    24   137   139   ar
    25   137   135   ar
    26   119   120    1
    27   119   118   ar
    28   116   118   ar
    29   139   141   ar
    30   128   123   am
    31   135   138   ar
    32   148   149    1
    33   124   123    2
    34   123   122    1
    35   121   122    1
    36   121   127    1
    37   141   140   ar
    38   150   149    1
    39   150   151    2
    40   122   125    1
    41   138   140   ar
    42   149   152    1
    43    13    14   ar
    44    13    11   ar
    45    71    70   ar
    46    71    69   ar
    47    70    68   ar
    48    14    12   ar
    49   127   126    1
    50   152   153    1
    51    11     8   ar
    52   156   157    1
    53   164   165    2
    54   164   163    1
    55   125   126    1
    56    69    67   ar
    57    68    65   ar
    58    12    10   ar
    59   162   163    1
    60   162   158   am
    61   153   155    1
    62   153   154    1
    63   157   158    1
    64   157   160    1
    65     8    10   ar
    66     8     6   ar
    67   163   166    1
    68    67    65   ar
    69    67    66   ar
    70   158   159    2
    71    65    63   ar
    72    10     9   ar
    73   166   167    1
    74     4     3    2
    75   160   161    1
    76     6     5    1
    77     6     7   ar
    78     5     2    1
    79    66    64   ar
    80    51    50    2
    81     3     2    1
    82    63    62    1
    83    63    64   ar
    84     9     7   ar
    85     1     2    1
    86    33    32    1
    87    59    62    1
    88    59    60    1
    89    59    58    1
    90    60    61    2
    91    50    58   am
    92    50    49    1
    93    57    55   ar
    94    57    56   ar
    95    55    53   ar
    96    32    30   ar
    97    32    31   ar
    98    30    28   ar
    99    31    29   ar
   100    49    48    1
   101    49    52    1
   102    56    54   ar
   103    53    52    1
   104    53    54   ar
   105   102   103    1
   106   107   106    1
   107    28    27   ar
   108    47    46   ar
   109    47    45   ar
   110    29    27   ar
   111    82    80   ar
   112    82    81   ar
   113    46    44   ar
   114   108   106    1
   115   101    99    1
   116   100    99    1
   117    80    78   ar
   118    27    26    1
   119   106   103    1
   120   103   104    1
   121   105   104    2
   122    45    43   ar
   123    81    79   ar
   124    99    98    1
   125    44    41   ar
   126    20    19    1
   127    78    77   ar
   128    26    23    1
   129    90    92   ar
   130    90    88   ar
   131    92    93   ar
   132    87    88    1
   133    87    84    1
   134    88    89   ar
   135    98    95    1
   136    93    91   ar
   137    89    91   ar
   138    43    41   ar
   139    43    42   ar
   140    79    77   ar
   141    23    22    1
   142    23    24    1
   143    41    39   ar
   144    18    17    2
   145    77    76    1
   146    21    19    1
   147    19    16    1
   148    22    17   am
   149    95    96    1
   150    95    94    1
   151    17    16    1
   152    84    85    1
   153    84    83    1
   154    25    24    2
   155    42    40   ar
   156    86    85    2
   157    96    97    2
   158    16    15    1
   159    72    73    1
   160    39    40   ar
   161    39    38    1
   162    35    36    1
   163    35    34    1
   164    35    38    1
   165    36    37    2
   166    76    73    1
   167    73    74    1
   168    74    75    2
