@<TRIPOS>MOLECULE
tmp/4xzjA00.pdb
 241 235 0 0 0
SMALL
GASTEIGER

@<TRIPOS>ATOM
      1  N         13.5350   47.5030    3.0520 N.3    49  PHE49      -0.1227
      2  CA        13.1130   46.2990    3.7870 C.3    49  PHE49       0.1736
      3  C         11.8070   45.7330    3.2140 C.2    49  PHE49       0.2596
      4  O         11.6650   44.5100    3.0520 O.2    49  PHE49      -0.2718
      5  CB        12.9190   46.6350    5.2460 C.3    49  PHE49       0.0547
      6  CG        12.5650   45.4420    6.0740 C.ar   49  PHE49      -0.0202
      7  CD1       13.5620   44.6180    6.5650 C.ar   49  PHE49      -0.0042
      8  CD2       11.2550   45.1610    6.3580 C.ar   49  PHE49      -0.0042
      9  CE1       13.2490   43.5010    7.3100 C.ar   49  PHE49      -0.0003
     10  CE2       10.9300   44.0460    7.1240 C.ar   49  PHE49      -0.0003
     11  CZ        11.9230   43.2130    7.5680 C.ar   49  PHE49      -0.0000
     12  N         10.8640   46.6170    2.8950 N.am   50  SER50      -0.1952
     13  CA         9.5340   46.1970    2.4120 C.3    50  SER50       0.1924
     14  C          9.5700   45.6110    1.0220 C.2    50  SER50       0.2314
     15  O          8.7520   44.7630    0.6890 O.2    50  SER50      -0.2863
     16  CB         8.5380   47.3460    2.4490 C.3    50  SER50       0.2116
     17  OG         9.1350   48.4890    1.8410 O.3    50  SER50      -0.2180
     18  N         13.4440   42.2030    3.4910 N.3    54  TYR54      -0.1227
     19  CA        12.7410   41.2650    4.4030 C.3    54  TYR54       0.1736
     20  C         12.9430   39.8100    3.9850 C.2    54  TYR54       0.2595
     21  O         12.9540   38.8960    4.8210 O.2    54  TYR54      -0.2718
     22  CB        11.2390   41.5620    4.5070 C.3    54  TYR54       0.0548
     23  CG        10.3920   40.9930    3.3940 C.ar   54  TYR54      -0.0200
     24  CD1        9.8020   39.7480    3.5130 C.ar   54  TYR54      -0.0009
     25  CD2       10.1550   41.7200    2.2150 C.ar   54  TYR54      -0.0009
     26  CE1        9.0160   39.2280    2.4950 C.ar   54  TYR54       0.0417
     27  CE2        9.3660   41.2160    1.2320 C.ar   54  TYR54       0.0417
     28  CZ         8.8220   39.9580    1.3560 C.ar   54  TYR54       0.1957
     29  OH         8.0700   39.4530    0.3240 O.3    54  TYR54      -0.2866
     30  N         13.1000   39.5880    2.6880 N.am   55  GLN55      -0.1979
     31  CA        13.2360   38.2230    2.1870 C.3    55  GLN55       0.1601
     32  C         14.4920   37.5300    2.6630 C.2    55  GLN55       0.2287
     33  O         14.4410   36.3620    3.0540 O.2    55  GLN55      -0.2864
     34  CB        13.1240   38.1750    0.6720 C.3    55  GLN55       0.0394
     35  CG        11.7470   38.6790    0.2170 C.3    55  GLN55       0.0908
     36  CD        11.6170   38.8580   -1.2710 C.2    55  GLN55       0.2608
     37  OE1       12.5840   38.7250   -2.0260 O.2    55  GLN55      -0.2717
     38  NE2       10.3890   39.1170   -1.7200 N.am   55  GLN55      -0.0878
     39  N         14.4290   37.7420    6.9740 N.3    58  ASN58      -0.1240
     40  CA        13.5200   36.8370    7.6390 C.3    58  ASN58       0.1653
     41  C         13.9380   35.3830    7.4300 C.2    58  ASN58       0.2266
     42  O         13.8060   34.5490    8.3260 O.2    58  ASN58      -0.2867
     43  CB        12.0820   37.1090    7.2340 C.3    58  ASN58       0.1155
     44  CG        11.5640   38.4320    7.7650 C.2    58  ASN58       0.2627
     45  OD1       12.2240   39.1150    8.5760 O.2    58  ASN58      -0.2716
     46  ND2       10.3700   38.7880    7.3420 N.am   58  ASN58      -0.0877
     47  N         14.8120   32.7360   10.4170 N.3    62  ARG62      -0.1245
     48  CA        14.0110   31.5020   10.5130 C.3    62  ARG62       0.1563
     49  C         14.8290   30.2440   10.1860 C.2    62  ARG62       0.2260
     50  O         14.3180   29.1180   10.2580 O.2    62  ARG62      -0.2867
     51  CB        12.8400   31.5890    9.5370 C.3    62  ARG62       0.0307
     52  CG        11.7040   32.4860   10.0240 C.3    62  ARG62       0.0489
     53  CD        10.7740   32.8380    8.8630 C.3    62  ARG62       0.2205
     54  NE         9.6540   33.6530    9.3100 N.pl3  62  ARG62      -0.0865
     55  CZ         9.0060   34.5210    8.5310 C.cat  62  ARG62       0.5346
     56  NH1        9.3780   34.6740    7.2590 N.pl3  62  ARG62       0.1354
     57  NH2        7.9890   35.2330    9.0300 N.pl3  62  ARG62       0.1354
     58  N         -2.4930   40.9580   10.0160 N.3    99  ARG99      -0.1231
     59  CA        -1.4550   40.2230    9.3130 C.3    99  ARG99       0.1694
     60  C         -2.0370   39.0350    8.6200 C.2    99  ARG99       0.2593
     61  O         -2.6630   38.1960    9.2550 O.2    99  ARG99      -0.2718
     62  CB        -0.3650   39.7780   10.2860 C.3    99  ARG99       0.0321
     63  CG         0.6750   38.8600    9.7040 C.3    99  ARG99       0.0489
     64  CD         1.8670   38.6960   10.6310 C.3    99  ARG99       0.2205
     65  NE         2.7590   37.6630   10.1090 N.pl3  99  ARG99      -0.0865
     66  CZ         3.5930   37.8290    9.0990 C.cat  99  ARG99       0.5346
     67  NH1        3.7280   39.0070    8.4840 N.pl3  99  ARG99       0.1354
     68  NH2        4.3040   36.7910    8.6990 N.pl3  99  ARG99       0.1354
     69  N         -1.8580   38.9870    7.3000 N.am  100  GLY100     -0.1942
     70  CA        -2.2790   37.8340    6.4890 C.3   100  GLY100      0.2014
     71  C         -1.0660   36.9660    6.2850 C.2   100  GLY100      0.2640
     72  O         -0.0080   37.4550    5.8980 O.2   100  GLY100     -0.2714
     73  N         -1.2040   35.6640    6.5330 N.am  101  THR101     -0.1936
     74  CA        -0.0720   34.7660    6.4450 C.3   101  THR101      0.2028
     75  C         -0.5520   33.3160    6.2510 C.2   101  THR101      0.2642
     76  O         -1.7370   33.0510    6.0270 O.2   101  THR101     -0.2714
     77  CB         0.8740   34.9240    7.6850 C.3   101  THR101      0.1808
     78  OG1        2.1680   34.3440    7.4410 O.3   101  THR101     -0.2208
     79  CG2        0.2560   34.3990    8.9850 C.3   101  THR101      0.0379
     80  N          0.4220   32.4230    6.3060 N.am  102  TRP102     -0.1959
     81  CA         0.2340   30.9900    6.2810 C.3   102  TRP102      0.1771
     82  C          0.9220   30.3760    7.4810 C.2   102  TRP102      0.2620
     83  O          1.9700   30.8680    7.9200 O.2   102  TRP102     -0.2715
     84  CB         0.8240   30.4140    5.0010 C.3   102  TRP102      0.0590
     85  CG         0.2030   30.9000    3.7170 C.ar  102  TRP102      0.0006
     86  CD1        0.4890   32.0710    3.0370 C.ar  102  TRP102      0.0946
     87  CD2       -0.7900   30.2310    2.9530 C.ar  102  TRP102      0.0152
     88  NE1       -0.2990   32.1610    1.9140 N.ar  102  TRP102     -0.2442
     89  CE2       -1.0710   31.0300    1.8300 C.ar  102  TRP102      0.0810
     90  CE3       -1.4740   29.0200    3.1080 C.ar  102  TRP102      0.0012
     91  CZ2       -2.0020   30.6510    0.8560 C.ar  102  TRP102      0.0191
     92  CZ3       -2.3940   28.6470    2.1370 C.ar  102  TRP102      0.0001
     93  CH2       -2.6540   29.4750    1.0320 C.ar  102  TRP102      0.0015
     94  N          0.3250   29.2950    8.0040 N.am  103  VAL103     -0.1963
     95  CA         0.8390   28.6090    9.1730 C.3   103  VAL103      0.1727
     96  C          0.6950   27.1000    8.9780 C.2   103  VAL103      0.2616
     97  O         -0.2220   26.6430    8.3270 O.2   103  VAL103     -0.2715
     98  CB         0.1400   29.0970   10.4700 C.3   103  VAL103      0.0290
     99  CG1        0.7030   28.4120   11.6890 C.3   103  VAL103      0.0023
    100  CG2        0.3170   30.6170   10.6630 C.3   103  VAL103      0.0023
    101  N          1.6550   26.3360    9.5030 N.am  104  LYS104     -0.1977
    102  CA         1.5420   24.8850    9.5160 C.3   104  LYS104      0.1596
    103  C          0.2320   24.4550   10.1690 C.2   104  LYS104      0.2287
    104  O         -0.0660   24.8190   11.3030 O.2   104  LYS104     -0.2864
    105  CB         2.6950   24.2270   10.2780 C.3   104  LYS104      0.0298
    106  CG         4.0200   24.2090    9.5560 C.3   104  LYS104      0.0038
    107  CD         5.1150   23.6230   10.4530 C.3   104  LYS104      0.0206
    108  CE         6.4600   23.6710    9.7610 C.3   104  LYS104      0.1093
    109  NZ         7.5810   23.0340   10.5200 N.3   104  LYS104     -0.1314
    110  N          7.2930   34.9400   16.8110 N.3   119  GLU119     -0.1245
    111  CA         7.7890   35.0150   15.4310 C.3   119  GLU119      0.1567
    112  C          9.3050   35.2490   15.4270 C.2   119  GLU119      0.2260
    113  O          9.7750   36.3000   15.9250 O.2   119  GLU119     -0.2867
    114  CB         7.0880   36.1560   14.6640 C.3   119  GLU119      0.0388
    115  CG         7.6830   36.4030   13.2770 C.3   119  GLU119      0.1160
    116  CD         7.6550   35.1610   12.3710 C.2   119  GLU119      0.3649
    117  OE1        6.5670   34.6450   12.0630 O.co2 119  GLU119     -0.2457
    118  OE2        8.7220   34.6990   11.9290 O.co2 119  GLU119     -0.2457
    119  N         11.3240   39.2940   11.6310 N.3   122  PHE122     -0.1241
    120  CA        10.5390   40.4940   11.8200 C.3   122  PHE122      0.1605
    121  C          9.0620   40.1170   11.5460 C.2   122  PHE122      0.2264
    122  O          8.7940   39.1500   10.8120 O.2   122  PHE122     -0.2867
    123  CB        10.9900   41.5870   10.8270 C.3   122  PHE122      0.0534
    124  CG        12.3370   42.1370   11.1170 C.ar  122  PHE122     -0.0203
    125  CD1       12.4690   43.2500   11.9170 C.ar  122  PHE122     -0.0042
    126  CD2       13.4990   41.5500   10.5740 C.ar  122  PHE122     -0.0042
    127  CE1       13.7070   43.7810   12.1820 C.ar  122  PHE122     -0.0003
    128  CE2       14.7330   42.0540   10.8560 C.ar  122  PHE122     -0.0003
    129  CZ        14.8460   43.2060   11.6600 C.ar  122  PHE122     -0.0000
    130  N          5.6340   41.7130    9.9540 N.3   124  SER124     -0.1202
    131  CA         4.9710   42.7510    9.1900 C.3   124  SER124      0.2020
    132  C          3.4530   42.6970    9.4500 C.2   124  SER124      0.2619
    133  O          2.8340   41.6210    9.3570 O.2   124  SER124     -0.2717
    134  CB         5.2810   42.5560    7.6990 C.3   124  SER124      0.2103
    135  OG         4.6040   43.5030    6.9200 O.3   124  SER124     -0.2182
    136  N          2.8770   43.8370    9.7810 N.am  125  THR125     -0.1938
    137  CA         1.4230   44.0170    9.8950 C.3   125  THR125      0.2028
    138  C          0.9900   45.2820    9.1170 C.2   125  THR125      0.2642
    139  O          1.8160   46.1490    8.8120 O.2   125  THR125     -0.2714
    140  CB         0.9680   44.1850   11.3430 C.3   125  THR125      0.1808
    141  OG1        1.3790   45.4640   11.8450 O.3   125  THR125     -0.2208
    142  CG2        1.5360   43.0900   12.2390 C.3   125  THR125      0.0379
    143  N         -0.3000   45.4040    8.8590 N.am  126  SER126     -0.1949
    144  CA        -0.8760   46.6430    8.2830 C.3   126  SER126      0.1924
    145  C         -2.0150   47.1100    9.1490 C.2   126  SER126      0.2314
    146  O         -2.7210   46.3010    9.7280 O.2   126  SER126     -0.2863
    147  CB        -1.4370   46.3690    6.9070 C.3   126  SER126      0.2116
    148  OG        -1.9310   47.5620    6.3310 O.3   126  SER126     -0.2180
    149  N         -4.9950   45.2970    3.0610 N.3   131  VAL131     -0.1231
    150  CA        -3.6120   45.0230    2.7400 C.3   131  VAL131      0.1692
    151  C         -3.1750   43.6640    3.2780 C.2   131  VAL131      0.2591
    152  O         -2.5460   42.8770    2.5370 O.2   131  VAL131     -0.2718
    153  CB        -2.7100   46.1650    3.2420 C.3   131  VAL131      0.0266
    154  CG1       -1.2430   45.8160    3.0560 C.3   131  VAL131      0.0020
    155  CG2       -3.0490   47.4110    2.4510 C.3   131  VAL131      0.0020
    156  N         -3.5060   43.4040    4.5440 N.am  132  ALA132     -0.1980
    157  CA        -3.1070   42.1650    5.2030 C.3   132  ALA132      0.1597
    158  C         -3.6160   40.9520    4.4190 C.2   132  ALA132      0.2287
    159  O         -2.9030   39.9690    4.2590 O.2   132  ALA132     -0.2864
    160  CB        -3.6130   42.1170    6.6120 C.3   132  ALA132      0.0319
    161  N         -1.6780   38.9550    1.6170 N.3   135  PHE135     -0.1241
    162  CA        -0.5090   38.1030    1.9160 C.3   135  PHE135      0.1605
    163  C         -0.8560   36.6800    2.3530 C.2   135  PHE135      0.2264
    164  O          0.0280   35.8950    2.7590 O.2   135  PHE135     -0.2867
    165  CB         0.3900   38.8670    2.8890 C.3   135  PHE135      0.0534
    166  CG         0.9430   40.1150    2.2660 C.ar  135  PHE135     -0.0203
    167  CD1        1.9720   40.0280    1.3550 C.ar  135  PHE135     -0.0042
    168  CD2        0.3400   41.3770    2.4680 C.ar  135  PHE135     -0.0042
    169  CE1        2.4620   41.1470    0.7140 C.ar  135  PHE135     -0.0003
    170  CE2        0.8410   42.5000    1.8290 C.ar  135  PHE135     -0.0003
    171  CZ         1.8950   42.3830    0.9470 C.ar  135  PHE135     -0.0000
    172  N         -1.2740   33.4460   -1.9260 N.3   138  VAL138     -0.1231
    173  CA        -0.3500   32.3880   -2.3700 C.3   138  VAL138      0.1692
    174  C          0.8250   32.2590   -1.3890 C.2   138  VAL138      0.2592
    175  O          1.0870   33.1590   -0.5640 O.2   138  VAL138     -0.2718
    176  CB         0.1770   32.5970   -3.8140 C.3   138  VAL138      0.0266
    177  CG1       -0.9790   32.6100   -4.8200 C.3   138  VAL138      0.0020
    178  CG2        1.0140   33.8580   -3.9520 C.3   138  VAL138      0.0020
    179  N          1.5630   31.1600   -1.4990 N.am  139  HIS139     -0.1962
    180  CA         2.8180   31.0540   -0.7420 C.3   139  HIS139      0.1772
    181  C          3.9050   30.3980   -1.6080 C.2   139  HIS139      0.2462
    182  O          3.5790   29.6570   -2.5440 O.2   139  HIS139     -0.2730
    183  CB         2.5800   30.2670    0.5660 C.3   139  HIS139      0.0785
    184  CG         2.0800   28.8800    0.3390 C.ar  139  HIS139      0.0821
    185  ND1        2.8950   27.8660   -0.1170 N.ar  139  HIS139     -0.2267
    186  CD2        0.8540   28.3300    0.5090 C.ar  139  HIS139      0.1154
    187  CE1        2.1890   26.7530   -0.2280 C.ar  139  HIS139      0.1986
    188  NE2        0.9490   27.0050    0.1590 N.ar  139  HIS139     -0.2212
    189  N          5.1950   30.6440   -1.2820 N.am  140  PRO140     -0.2727
    190  CA         6.2630   29.9330   -1.9810 C.3   140  PRO140      0.1402
    191  C          6.0510   28.4220   -1.9270 C.2   140  PRO140      0.2269
    192  O          5.4400   27.8940   -0.9800 O.2   140  PRO140     -0.2865
    193  CB         7.5250   30.3290   -1.2040 C.3   140  PRO140      0.0296
    194  CG         7.2010   31.6610   -0.5980 C.3   140  PRO140      0.0237
    195  CD         5.7240   31.6070   -0.2990 C.3   140  PRO140      0.0939
    196  N          0.1630   23.7770    4.8100 N.3   146  LEU146     -0.1245
    197  CA        -0.0040   25.1280    5.3200 C.3   146  LEU146      0.1561
    198  C         -1.4560   25.5550    5.1640 C.2   146  LEU146      0.2260
    199  O         -2.1590   25.1200    4.2480 O.2   146  LEU146     -0.2867
    200  CB         0.9010   26.1000    4.5560 C.3   146  LEU146      0.0270
    201  CG         2.4150   25.8170    4.5470 C.3   146  LEU146      0.0019
    202  CD1        3.1220   26.8870    3.7190 C.3   146  LEU146      0.0001
    203  CD2        3.0180   25.7260    5.9360 C.3   146  LEU146      0.0001
    204  N          0.8460   50.7010    2.0350 N.3   171  GLU171     -0.1245
    205  CA         0.6830   49.5080    2.9130 C.3   171  GLU171      0.1567
    206  C          0.4210   49.7220    4.3990 C.2   171  GLU171      0.2260
    207  O          0.0700   48.7730    5.1070 O.2   171  GLU171     -0.2867
    208  CB         1.7460   48.4330    2.6520 C.3   171  GLU171      0.0388
    209  CG         1.4670   47.7270    1.2910 C.3   171  GLU171      0.1160
    210  CD         2.4850   46.6650    0.9570 C.2   171  GLU171      0.3649
    211  OE1        3.2210   46.2940    1.8490 O.co2 171  GLU171     -0.2457
    212  OE2        2.5880   46.2360   -0.2010 O.co2 171  GLU171     -0.2457
    213  N          2.1210   50.0850    6.9670 N.3   173  GLU173     -0.1245
    214  CA         2.8490   49.0100    7.6450 C.3   173  GLU173      0.1567
    215  C          3.4120   49.3690    9.0280 C.2   173  GLU173      0.2260
    216  O          4.1120   50.3730    9.2040 O.2   173  GLU173     -0.2867
    217  CB         4.0020   48.5280    6.7770 C.3   173  GLU173      0.0388
    218  CG         4.6880   47.2810    7.3250 C.3   173  GLU173      0.1160
    219  CD         5.6250   46.5750    6.3440 C.2   173  GLU173      0.3649
    220  OE1        5.8170   47.0780    5.2410 O.co2 173  GLU173     -0.2457
    221  OE2        6.2120   45.5290    6.7400 O.co2 173  GLU173     -0.2457
    222  N          6.1990   30.4000   15.6950 N.3   214  LEU214     -0.1231
    223  CA         5.1520   30.5310   14.6880 C.3   214  LEU214      0.1693
    224  C          5.5840   29.9320   13.3350 C.2   214  LEU214      0.2592
    225  O          4.7490   29.4620   12.5680 O.2   214  LEU214     -0.2718
    226  CB         4.7420   32.0030   14.5790 C.3   214  LEU214      0.0284
    227  CG         3.5490   32.3730   13.7130 C.3   214  LEU214      0.0019
    228  CD1        2.3110   31.5530   14.0690 C.3   214  LEU214      0.0001
    229  CD2        3.3020   33.8710   13.8620 C.3   214  LEU214      0.0001
    230  N          6.8940   29.9660   13.0590 N.am  215  TYR215     -0.1976
    231  CA         7.4270   29.5070   11.7800 C.3   215  TYR215      0.1639
    232  C          7.6920   28.0290   11.8000 C.2   215  TYR215      0.2290
    233  O          7.1810   27.3070   10.9520 O.2   215  TYR215     -0.2864
    234  CB         8.6720   30.2790   11.3630 C.3   215  TYR215      0.0560
    235  CG         9.0920   29.8940    9.9780 C.ar  215  TYR215     -0.0198
    236  CD1        8.3900   30.3420    8.8640 C.ar  215  TYR215     -0.0009
    237  CD2       10.1390   29.0320    9.7800 C.ar  215  TYR215     -0.0009
    238  CE1        8.7600   29.9500    7.5900 C.ar  215  TYR215      0.0417
    239  CE2       10.4920   28.6160    8.5040 C.ar  215  TYR215      0.0417
    240  CZ         9.8020   29.0770    7.4300 C.ar  215  TYR215      0.1957
    241  OH        10.1840   28.6640    6.1740 O.3   215  TYR215     -0.2866
@<TRIPOS>BOND
     1   177   176    1
     2   178   176    1
     3   176   173    1
     4   182   181    2
     5   173   172    1
     6   173   174    1
     7    37    36    2
     8   190   191    1
     9   190   189    1
    10   190   193    1
    11   191   192    2
    12    38    36   am
    13   181   189   am
    14   181   180    1
    15   179   174   am
    16   179   180    1
    17   174   175    2
    18   189   195    1
    19    36    35    1
    20   193   194    1
    21   180   183    1
    22   194   195    1
    23   187   185   ar
    24   187   188   ar
    25   212   210   ar
    26   185   184   ar
    27   188   186   ar
    28    35    34    1
    29    29    28    1
    30   184   186   ar
    31   184   183    1
    32    34    31    1
    33    15    14    2
    34   169   171   ar
    35   169   167   ar
    36    91    93   ar
    37    91    89   ar
    38   171   170   ar
    39   210   209    1
    40   210   211   ar
    41    14    13    1
    42    93    92   ar
    43    27    28   ar
    44    27    25   ar
    45   209   208    1
    46   167   166   ar
    47    28    26   ar
    48   161   162    1
    49   170   168   ar
    50    89    88   ar
    51    89    87   ar
    52    17    16    1
    53    88    86   ar
    54   162   163    1
    55   162   165    1
    56   204   205    1
    57    92    90   ar
    58    31    32    1
    59    31    30    1
    60    25    23   ar
    61   166   168   ar
    62   166   165    1
    63   163   164    2
    64    13    16    1
    65    13    12    1
    66   155   153    1
    67    26    24   ar
    68   152   151    2
    69   208   205    1
    70    32    33    2
    71    30    20   am
    72   150   149    1
    73   150   153    1
    74   150   151    1
    75    12     3   am
    76   205   206    1
    77    87    90   ar
    78    87    85   ar
    79    86    85   ar
    80     4     3    2
    81     1     2    1
    82   154   153    1
    83     3     2    1
    84   151   156   am
    85    23    24   ar
    86    23    22    1
    87    18    19    1
    88    85    84    1
    89   202   201    1
    90     2     5    1
    91    20    19    1
    92    20    21    2
    93   199   198    2
    94   159   158    2
    95   206   207    2
    96    19    22    1
    97   158   157    1
    98   156   157    1
    99   201   200    1
   100   201   203    1
   101   200   197    1
   102   196   197    1
   103    84    81    1
   104   198   197    1
   105   157   160    1
   106   220   219   ar
   107     5     6    1
   108    72    71    2
   109    76    75    2
   110     6     8   ar
   111     6     7   ar
   112   241   240    1
   113    75    80   am
   114    75    74    1
   115    81    80    1
   116    81    82    1
   117    71    70    1
   118    71    73   am
   119   148   147    1
   120   219   221   ar
   121   219   218    1
   122     8    10   ar
   123    74    73    1
   124    74    77    1
   125    70    69    1
   126     7     9   ar
   127   217   218    1
   128   217   214    1
   129   147   144    1
   130   135   134    1
   131   213   214    1
   132    39    40    1
   133    10    11   ar
   134    43    40    1
   135    43    44    1
   136    56    55    1
   137    69    60   am
   138     9    11   ar
   139    46    44   am
   140    41    40    1
   141    41    42    2
   142   240   238   ar
   143   240   239   ar
   144    78    77    1
   145    82    83    2
   146    82    94   am
   147   238   236   ar
   148   214   215    1
   149    77    79    1
   150   134   131    1
   151    44    45    2
   152    94    95    1
   153   144   143    1
   154   144   145    1
   155    97    96    2
   156    67    66    1
   157   239   237   ar
   158    55    57    1
   159    55    54    2
   160    60    61    2
   161    60    59    1
   162    68    66    1
   163   139   138    2
   164   143   138   am
   165    53    54    1
   166    53    52    1
   167   236   235   ar
   168    96    95    1
   169    96   101   am
   170   215   216    2
   171    66    65    2
   172   138   137    1
   173   145   146    2
   174    95    98    1
   175   131   132    1
   176   131   130    1
   177    59    58    1
   178    59    62    1
   179   133   132    2
   180   132   136   am
   181   101   102    1
   182   102   103    1
   183   102   105    1
   184    51    52    1
   185    51    48    1
   186   106   105    1
   187   106   107    1
   188    63    62    1
   189    63    64    1
   190   108   107    1
   191   108   109    1
   192   237   235   ar
   193   136   137    1
   194   137   140    1
   195   235   234    1
   196    65    64    1
   197   103   104    2
   198    49    50    2
   199    49    48    1
   200    47    48    1
   201    98   100    1
   202    98    99    1
   203   126   128   ar
   204   126   124   ar
   205   122   121    2
   206   123   124    1
   207   123   120    1
   208   128   129   ar
   209   233   232    2
   210   124   125   ar
   211   140   141    1
   212   140   142    1
   213   234   231    1
   214   121   120    1
   215   119   120    1
   216   129   127   ar
   217   231   232    1
   218   231   230    1
   219   125   127   ar
   220   118   116   ar
   221   117   116   ar
   222   116   115    1
   223   225   224    2
   224   230   224   am
   225   115   114    1
   226   224   223    1
   227   227   229    1
   228   227   228    1
   229   227   226    1
   230   226   223    1
   231   114   111    1
   232   223   222    1
   233   112   111    1
   234   112   113    2
   235   111   110    1
