@<TRIPOS>MOLECULE
tmp/4xzkA00.pdb
 105 102 0 0 0
SMALL
GASTEIGER

@<TRIPOS>ATOM
      1  N         13.3540   47.4610    3.5170 N.3    44  PHE44      -0.1227
      2  CA        12.7710   46.3590    4.2530 C.3    44  PHE44       0.1736
      3  C         11.4220   45.9040    3.7360 C.2    44  PHE44       0.2596
      4  O         11.1890   44.7120    3.4770 O.2    44  PHE44      -0.2718
      5  CB        12.6470   46.7250    5.7230 C.3    44  PHE44       0.0547
      6  CG        12.1070   45.5870    6.5720 C.ar   44  PHE44      -0.0202
      7  CD1       12.9830   44.6250    7.0520 C.ar   44  PHE44      -0.0042
      8  CD2       10.7430   45.4530    6.8130 C.ar   44  PHE44      -0.0042
      9  CE1       12.5080   43.5380    7.7900 C.ar   44  PHE44      -0.0003
     10  CE2       10.2730   44.3460    7.5470 C.ar   44  PHE44      -0.0003
     11  CZ        11.1740   43.4250    8.0450 C.ar   44  PHE44      -0.0000
     12  N         10.5290   46.8620    3.5960 N.am   45  SER45      -0.1952
     13  CA         9.1610   46.5800    3.2390 C.3    45  SER45       0.1924
     14  C          8.9890   45.9520    1.8500 C.2    45  SER45       0.2314
     15  O          8.1020   45.1030    1.6390 O.2    45  SER45      -0.2863
     16  CB         8.3190   47.8700    3.4440 C.3    45  SER45       0.2116
     17  OG         6.9940   47.5770    3.0960 O.3    45  SER45      -0.2180
     18  N         12.9500   42.3570    3.8310 N.3    49  TYR49      -0.1241
     19  CA        12.3320   41.4680    4.8060 C.3    49  TYR49       0.1605
     20  C         12.4950   40.0220    4.3600 C.2    49  TYR49       0.2264
     21  O         12.5770   39.1250    5.1930 O.2    49  TYR49      -0.2867
     22  CB        10.8280   41.7900    5.0230 C.3    49  TYR49       0.0534
     23  CG         9.9170   41.2210    3.9590 C.ar   49  TYR49      -0.0201
     24  CD1        9.3890   39.9280    4.0670 C.ar   49  TYR49      -0.0009
     25  CD2        9.6350   41.9550    2.8210 C.ar   49  TYR49      -0.0009
     26  CE1        8.5750   39.3900    3.0700 C.ar   49  TYR49       0.0417
     27  CE2        8.8150   41.4340    1.8260 C.ar   49  TYR49       0.0417
     28  CZ         8.2860   40.1880    1.9350 C.ar   49  TYR49       0.1957
     29  OH         7.5230   39.7430    0.8700 O.3    49  TYR49      -0.2866
     30  N         -2.4450   40.4710   10.2850 N.3    94  ARG94      -0.1231
     31  CA        -1.3690   39.7450    9.5710 C.3    94  ARG94       0.1694
     32  C         -1.9250   38.4180    9.0660 C.2    94  ARG94       0.2593
     33  O         -2.5230   37.6860    9.8240 O.2    94  ARG94      -0.2718
     34  CB        -0.1800   39.4800   10.5070 C.3    94  ARG94       0.0321
     35  CG         0.9630   38.6500    9.9160 C.3    94  ARG94       0.0489
     36  CD         2.2090   38.6610   10.8190 C.3    94  ARG94       0.2205
     37  NE         3.1830   37.6440   10.4280 N.pl3  94  ARG94      -0.0865
     38  CZ         4.0710   37.7860    9.4360 C.cat  94  ARG94       0.5346
     39  NH1        4.1460   38.9360    8.7530 N.pl3  94  ARG94       0.1354
     40  NH2        4.8750   36.7720    9.1100 N.pl3  94  ARG94       0.1354
     41  N         -1.6750   38.1270    7.7950 N.am   95  GLY95      -0.1942
     42  CA        -2.0150   36.8330    7.1640 C.3    95  GLY95       0.2014
     43  C         -0.6900   36.0940    6.9800 C.2    95  GLY95       0.2640
     44  O          0.3040   36.6680    6.5000 O.2    95  GLY95      -0.2714
     45  N         -0.6750   34.8230    7.3340 N.am   96  THR96      -0.1936
     46  CA         0.4960   33.9840    7.1670 C.3    96  THR96       0.2028
     47  C          0.1020   32.4950    7.0780 C.2    96  THR96       0.2642
     48  O         -1.0530   32.1810    6.9920 O.2    96  THR96      -0.2714
     49  CB         1.5270   34.2650    8.2750 C.3    96  THR96       0.1808
     50  OG1        2.7460   33.6370    7.9580 O.3    96  THR96      -0.2208
     51  CG2        1.0500   33.8520    9.6340 C.3    96  THR96       0.0379
     52  N          1.0830   31.6170    7.0430 N.am   97  TRP97      -0.1973
     53  CA         0.8780   30.1960    6.9270 C.3    97  TRP97       0.1640
     54  C          1.5000   29.5260    8.0910 C.2    97  TRP97       0.2290
     55  O          2.6470   29.8230    8.4470 O.2    97  TRP97      -0.2864
     56  CB         1.5100   29.7170    5.6310 C.3    97  TRP97       0.0576
     57  CG         0.7600   30.2850    4.4640 C.ar   97  TRP97       0.0006
     58  CD1        0.9870   31.5100    3.8290 C.ar   97  TRP97       0.0946
     59  CD2       -0.4030   29.7110    3.8150 C.ar   97  TRP97       0.0152
     60  NE1        0.0550   31.6790    2.8360 N.ar   97  TRP97      -0.2442
     61  CE2       -0.8150   30.6190    2.8140 C.ar   97  TRP97       0.0810
     62  CE3       -1.1180   28.5310    3.9750 C.ar   97  TRP97       0.0012
     63  CZ2       -1.9230   30.3740    1.9920 C.ar   97  TRP97       0.0191
     64  CZ3       -2.2160   28.2920    3.1700 C.ar   97  TRP97       0.0001
     65  CH2       -2.6050   29.2050    2.1770 C.ar   97  TRP97       0.0015
     66  N          5.6520   41.7250   10.5860 N.3   119  SER119     -0.1217
     67  CA         5.0220   42.8460    9.8660 C.3   119  SER119      0.1889
     68  C          3.5100   42.6450    9.8920 C.2   119  SER119      0.2288
     69  O          2.9710   41.5380    9.5830 O.2   119  SER119     -0.2866
     70  CB         5.5090   42.7990    8.3980 C.3   119  SER119      0.2089
     71  OG         4.7150   43.6690    7.6170 O.3   119  SER119     -0.2183
     72  N         -3.4410   43.1860    4.8020 N.3   127  ALA127     -0.1245
     73  CA        -3.0140   41.8890    5.3690 C.3   127  ALA127      0.1562
     74  C         -3.3780   40.6900    4.5560 C.2   127  ALA127      0.2260
     75  O         -2.5670   39.7820    4.3360 O.2   127  ALA127     -0.2867
     76  CB        -3.6040   41.6900    6.7280 C.3   127  ALA127      0.0290
     77  N         -1.1850   39.2670    1.4880 N.3   130  PHE130     -0.1241
     78  CA         0.1240   38.6150    1.6340 C.3   130  PHE130      0.1605
     79  C         -0.0060   37.1630    1.9410 C.2   130  PHE130      0.2264
     80  O          1.0180   36.4920    2.0270 O.2   130  PHE130     -0.2867
     81  CB         0.9880   39.3090    2.6800 C.3   130  PHE130      0.0534
     82  CG         1.4560   40.6420    2.2110 C.ar  130  PHE130     -0.0203
     83  CD1        2.5910   40.7410    1.4210 C.ar  130  PHE130     -0.0042
     84  CD2        0.7220   41.7770    2.4730 C.ar  130  PHE130     -0.0042
     85  CE1        3.0040   41.9560    0.9390 C.ar  130  PHE130     -0.0003
     86  CE2        1.1320   43.0180    2.0010 C.ar  130  PHE130     -0.0003
     87  CZ         2.2700   43.1060    1.2180 C.ar  130  PHE130     -0.0000
     88  N          0.6220   50.5970    2.5950 N.3   164  GLU164     -0.1245
     89  CA         0.5340   49.3530    3.3650 C.3   164  GLU164      0.1567
     90  C          0.1460   49.4970    4.8590 C.2   164  GLU164      0.2260
     91  O         -0.0750   48.4510    5.5180 O.2   164  GLU164     -0.2867
     92  CB         1.8800   48.6040    3.3080 C.3   164  GLU164      0.0388
     93  CG         1.9030   47.4730    2.3070 C.3   164  GLU164      0.1160
     94  CD         3.2540   46.7960    2.1590 C.2   164  GLU164      0.3649
     95  OE1        3.7720   46.7630    1.0130 O.co2 164  GLU164     -0.2457
     96  OE2        3.7650   46.2550    3.1640 O.co2 164  GLU164     -0.2457
     97  N          1.8990   49.9700    7.5330 N.3   166  GLU166     -0.1245
     98  CA         2.6890   48.8920    8.1120 C.3   166  GLU166      0.1567
     99  C          3.2360   49.1860    9.4980 C.2   166  GLU166      0.2260
    100  O          3.8730   50.2280    9.7430 O.2   166  GLU166     -0.2867
    101  CB         3.7740   48.5210    7.1060 C.3   166  GLU166      0.0388
    102  CG         4.5800   47.3200    7.4920 C.3   166  GLU166      0.1160
    103  CD         5.5030   46.8290    6.3970 C.2   166  GLU166      0.3649
    104  OE1        5.7520   47.5540    5.4220 O.co2 166  GLU166     -0.2457
    105  OE2        5.9990   45.6920    6.5620 O.co2 166  GLU166     -0.2457
@<TRIPOS>BOND
     1    29    28    1
     2    85    87   ar
     3    85    83   ar
     4    95    94   ar
     5    87    86   ar
     6    83    82   ar
     7    77    78    1
     8    78    79    1
     9    78    81    1
    10    15    14    2
    11    27    28   ar
    12    27    25   ar
    13    14    13    1
    14    28    26   ar
    15    79    80    2
    16    63    65   ar
    17    63    61   ar
    18    86    84   ar
    19    94    93    1
    20    94    96   ar
    21    65    64   ar
    22    82    84   ar
    23    82    81    1
    24    93    92    1
    25    88    89    1
    26    61    60   ar
    27    61    59   ar
    28    25    23   ar
    29    60    58   ar
    30    26    24   ar
    31    17    16    1
    32    64    62   ar
    33    13    16    1
    34    13    12    1
    35    92    89    1
    36    89    90    1
    37     4     3    2
    38     1     2    1
    39    12     3   am
    40     3     2    1
    41    59    62   ar
    42    59    57   ar
    43    58    57   ar
    44    18    19    1
    45    23    24   ar
    46    23    22    1
    47     2     5    1
    48    75    74    2
    49    20    19    1
    50    20    21    2
    51    57    56    1
    52    74    73    1
    53    72    73    1
    54    19    22    1
    55    90    91    2
    56    73    76    1
    57   104   103   ar
    58    56    53    1
    59     5     6    1
    60   103   105   ar
    61   103   102    1
    62    44    43    2
    63     6     8   ar
    64     6     7   ar
    65     8    10   ar
    66    53    52    1
    67    53    54    1
    68    43    42    1
    69    43    45   am
    70    48    47    2
    71    52    47   am
    72     7     9   ar
    73    47    46    1
    74   101   102    1
    75   101    98    1
    76    42    41    1
    77    46    45    1
    78    46    49    1
    79    97    98    1
    80    10    11   ar
    81    71    70    1
    82     9    11   ar
    83    41    32   am
    84    50    49    1
    85    54    55    2
    86    98    99    1
    87    49    51    1
    88    70    67    1
    89    39    38    1
    90    32    31    1
    91    32    33    2
    92    40    38    1
    93    38    37    2
    94    99   100    2
    95    31    30    1
    96    31    34    1
    97    69    68    2
    98    67    68    1
    99    67    66    1
   100    35    34    1
   101    35    36    1
   102    37    36    1
