@<TRIPOS>MOLECULE
tmp/4xzlA01.pdb
 177 176 0 0 0
SMALL
GASTEIGER

@<TRIPOS>ATOM
      1  N         -4.9660   32.0350    2.2090 N.3    20  TRP20      -0.1241
      2  CA        -3.8450   31.7110    1.3240 C.3    20  TRP20       0.1605
      3  C         -3.0830   32.9840    0.9680 C.2    20  TRP20       0.2264
      4  O         -3.6840   33.9720    0.5410 O.2    20  TRP20      -0.2867
      5  CB        -4.3350   31.0220    0.0520 C.3    20  TRP20       0.0550
      6  CG        -3.2390   30.6530   -0.9150 C.ar   20  TRP20       0.0003
      7  CD1       -1.9730   30.2430   -0.6070 C.ar   20  TRP20       0.0946
      8  CD2       -3.3200   30.6660   -2.3460 C.ar   20  TRP20       0.0152
      9  NE1       -1.2610   30.0000   -1.7590 N.ar   20  TRP20      -0.2442
     10  CE2       -2.0640   30.2520   -2.8400 C.ar   20  TRP20       0.0810
     11  CE3       -4.3310   30.9880   -3.2570 C.ar   20  TRP20       0.0012
     12  CZ2       -1.7950   30.1500   -4.2040 C.ar   20  TRP20       0.0191
     13  CZ3       -4.0620   30.8870   -4.6120 C.ar   20  TRP20       0.0001
     14  CH2       -2.8040   30.4720   -5.0720 C.ar   20  TRP20       0.0015
     15  N         -0.2410   24.1220    4.3090 N.3    45  VAL45      -0.1231
     16  CA         0.6750   24.5830    3.2720 C.3    45  VAL45       0.1692
     17  C          0.7980   26.1130    3.2140 C.2    45  VAL45       0.2592
     18  O          1.7180   26.6500    2.5850 O.2    45  VAL45      -0.2718
     19  CB         0.2940   23.9950    1.8860 C.3    45  VAL45       0.0266
     20  CG1       -0.9490   24.6630    1.3430 C.3    45  VAL45       0.0020
     21  CG2        1.4580   24.1110    0.8990 C.3    45  VAL45       0.0020
     22  N         -0.1070   26.8180    3.8860 N.am   46  TYR46      -0.1976
     23  CA        -0.0790   28.2790    3.8570 C.3    46  TYR46       0.1639
     24  C          0.9910   28.8040    4.8030 C.2    46  TYR46       0.2290
     25  O          1.4060   29.9560    4.6980 O.2    46  TYR46      -0.2864
     26  CB        -1.4350   28.8850    4.2290 C.3    46  TYR46       0.0560
     27  CG        -2.5870   28.4760    3.3370 C.ar   46  TYR46      -0.0198
     28  CD1       -2.3650   27.8460    2.1170 C.ar   46  TYR46      -0.0009
     29  CD2       -3.8960   28.7210    3.7200 C.ar   46  TYR46      -0.0009
     30  CE1       -3.4190   27.4620    1.3080 C.ar   46  TYR46       0.0417
     31  CE2       -4.9570   28.3520    2.9140 C.ar   46  TYR46       0.0417
     32  CZ        -4.7120   27.7200    1.7170 C.ar   46  TYR46       0.1957
     33  OH        -5.7630   27.3430    0.9280 O.3    46  TYR46      -0.2866
     34  N         -2.1270   18.2520    3.4530 N.3    75  TRP75      -0.1241
     35  CA        -1.3350   18.3900    2.2360 C.3    75  TRP75       0.1605
     36  C         -0.8730   17.0100    1.7490 C.2    75  TRP75       0.2264
     37  O         -0.5620   16.1380    2.5610 O.2    75  TRP75      -0.2867
     38  CB        -0.1470   19.3320    2.4970 C.3    75  TRP75       0.0550
     39  CG         0.5920   19.7250    1.2630 C.ar   75  TRP75       0.0003
     40  CD1        1.8480   19.3300    0.8990 C.ar   75  TRP75       0.0946
     41  CD2        0.1170   20.5740    0.2080 C.ar   75  TRP75       0.0152
     42  NE1        2.1840   19.8830   -0.3120 N.ar   75  TRP75      -0.2442
     43  CE2        1.1380   20.6470   -0.7590 C.ar   75  TRP75       0.0810
     44  CE3       -1.0740   21.2740   -0.0130 C.ar   75  TRP75       0.0012
     45  CZ2        1.0110   21.3980   -1.9260 C.ar   75  TRP75       0.0191
     46  CZ3       -1.2010   22.0170   -1.1720 C.ar   75  TRP75       0.0001
     47  CH2       -0.1620   22.0760   -2.1140 C.ar   75  TRP75       0.0015
     48  N         -6.5620   18.2160    0.7590 N.3   104  HIS104     -0.1226
     49  CA        -6.3110   19.4530    0.0040 C.3   104  HIS104      0.1752
     50  C         -6.3180   19.2440   -1.5120 C.2   104  HIS104      0.2596
     51  O         -6.8090   20.0870   -2.2660 O.2   104  HIS104     -0.2718
     52  CB        -4.9800   20.0650    0.4640 C.3   104  HIS104      0.0759
     53  CG        -4.8420   21.5330    0.1930 C.ar  104  HIS104      0.0818
     54  ND1       -4.1900   22.3850    1.0580 N.ar  104  HIS104     -0.2268
     55  CD2       -5.2520   22.2960   -0.8480 C.ar  104  HIS104      0.1154
     56  CE1       -4.2150   23.6130    0.5690 C.ar  104  HIS104      0.1986
     57  NE2       -4.8480   23.5860   -0.5890 N.ar  104  HIS104     -0.2212
     58  N         -5.7700   18.1090   -1.9320 N.am  105  TRP105     -0.1976
     59  CA        -5.6510   17.7470   -3.3400 C.3   105  TRP105      0.1640
     60  C         -5.7020   16.2270   -3.4190 C.2   105  TRP105      0.2290
     61  O         -5.1880   15.5450   -2.5380 O.2   105  TRP105     -0.2864
     62  CB        -4.3270   18.2520   -3.9250 C.3   105  TRP105      0.0576
     63  CG        -4.3020   19.7180   -4.2830 C.ar  105  TRP105      0.0006
     64  CD1       -3.8580   20.7520   -3.5040 C.ar  105  TRP105      0.0946
     65  CD2       -4.7240   20.3040   -5.5200 C.ar  105  TRP105      0.0152
     66  NE1       -3.9810   21.9450   -4.1840 N.ar  105  TRP105     -0.2442
     67  CE2       -4.5160   21.6960   -5.4190 C.ar  105  TRP105      0.0810
     68  CE3       -5.2650   19.7860   -6.7020 C.ar  105  TRP105      0.0012
     69  CZ2       -4.8250   22.5730   -6.4550 C.ar  105  TRP105      0.0191
     70  CZ3       -5.5750   20.6590   -7.7260 C.ar  105  TRP105      0.0001
     71  CH2       -5.3520   22.0380   -7.5970 C.ar  105  TRP105      0.0015
     72  N          1.5910   13.2620   -3.3350 N.3   109  PHE109     -0.1241
     73  CA         2.9230   13.7040   -3.7370 C.3   109  PHE109      0.1605
     74  C          3.9560   12.9290   -2.9370 C.2   109  PHE109      0.2264
     75  O          3.6020   12.2300   -1.9860 O.2   109  PHE109     -0.2867
     76  CB         3.1060   15.2060   -3.4860 C.3   109  PHE109      0.0534
     77  CG         2.2410   16.0820   -4.3500 C.ar  109  PHE109     -0.0203
     78  CD1        1.7760   15.6320   -5.5760 C.ar  109  PHE109     -0.0042
     79  CD2        1.8970   17.3570   -3.9360 C.ar  109  PHE109     -0.0042
     80  CE1        0.9890   16.4380   -6.3740 C.ar  109  PHE109     -0.0003
     81  CE2        1.1030   18.1660   -4.7300 C.ar  109  PHE109     -0.0003
     82  CZ         0.6490   17.7040   -5.9510 C.ar  109  PHE109     -0.0000
     83  N          6.6720   20.8430   -1.9250 N.3   116  PHE116     -0.1241
     84  CA         6.5510   20.9440   -3.3700 C.3   116  PHE116      0.1605
     85  C          7.6740   20.1710   -4.0380 C.2   116  PHE116      0.2264
     86  O          8.5670   20.7660   -4.6440 O.2   116  PHE116     -0.2867
     87  CB         6.5760   22.4100   -3.8010 C.3   116  PHE116      0.0534
     88  CG         5.5380   23.2510   -3.1210 C.ar  116  PHE116     -0.0203
     89  CD1        4.2440   23.2960   -3.6050 C.ar  116  PHE116     -0.0042
     90  CD2        5.8520   23.9830   -1.9880 C.ar  116  PHE116     -0.0042
     91  CE1        3.2820   24.0640   -2.9780 C.ar  116  PHE116     -0.0003
     92  CE2        4.8940   24.7510   -1.3540 C.ar  116  PHE116     -0.0003
     93  CZ         3.6090   24.7920   -1.8500 C.ar  116  PHE116     -0.0000
     94  N          9.5260   18.5090   -6.7890 N.3   118  ARG118     -0.1245
     95  CA         9.4320   18.7390   -8.2230 C.3   118  ARG118      0.1563
     96  C         10.6800   18.2390   -8.9330 C.2   118  ARG118      0.2260
     97  O         11.7580   18.1820   -8.3370 O.2   118  ARG118     -0.2867
     98  CB         9.2620   20.2350   -8.5090 C.3   118  ARG118      0.0307
     99  CG         7.9500   20.8390   -8.0130 C.3   118  ARG118      0.0489
    100  CD         8.0900   22.3420   -7.7990 C.3   118  ARG118      0.2205
    101  NE         9.2060   22.6430   -6.9040 N.pl3 118  ARG118     -0.0865
    102  CZ         9.5530   23.8650   -6.5150 C.cat 118  ARG118      0.5346
    103  NH1        8.8680   24.9190   -6.9350 N.pl3 118  ARG118      0.1354
    104  NH2       10.5870   24.0340   -5.7000 N.pl3 118  ARG118      0.1354
    105  N          9.9360   21.2200  -13.1070 N.3   122  GLY122     -0.1225
    106  CA         8.9610   21.7710  -12.1850 C.3   122  GLY122      0.1811
    107  C          7.7080   20.9250  -12.0650 C.2   122  GLY122      0.2280
    108  O          6.7210   21.3500  -11.4650 O.2   122  GLY122     -0.2866
    109  N          5.4300   18.0000  -10.5530 N.3   124  ALA124     -0.1245
    110  CA         5.2890   17.3800   -9.2420 C.3   124  ALA124      0.1562
    111  C          5.7740   15.9300   -9.2360 C.2   124  ALA124      0.2260
    112  O          5.5730   15.1920  -10.1970 O.2   124  ALA124     -0.2867
    113  CB         3.8340   17.4520   -8.7850 C.3   124  ALA124      0.0290
    114  N        -10.7440   20.0020   -4.4890 N.3   153  ASN153     -0.1240
    115  CA       -10.2430   19.7260   -5.8300 C.3   153  ASN153      0.1653
    116  C        -10.5310   18.3080   -6.2910 C.2   153  ASN153      0.2266
    117  O         -9.7530   17.7260   -7.0380 O.2   153  ASN153     -0.2867
    118  CB        -8.7450   20.0220   -5.9420 C.3   153  ASN153      0.1155
    119  CG        -8.4220   21.4650   -5.6590 C.2   153  ASN153      0.2627
    120  OD1       -8.8140   22.3620   -6.4140 O.2   153  ASN153     -0.2716
    121  ND2       -7.7080   21.7060   -4.5640 N.am  153  ASN153     -0.0877
    122  N        -13.7360   28.3730   -3.8060 N.3   200  TYR200     -0.1241
    123  CA       -12.4950   29.1070   -3.5970 C.3   200  TYR200      0.1605
    124  C        -12.1410   30.0100   -4.7850 C.2   200  TYR200      0.2264
    125  O        -12.7240   29.8830   -5.8640 O.2   200  TYR200     -0.2867
    126  CB       -11.3460   28.1900   -3.1350 C.3   200  TYR200      0.0534
    127  CG       -10.6050   27.3360   -4.1550 C.ar  200  TYR200     -0.0201
    128  CD1       -9.8580   27.9070   -5.1790 C.ar  200  TYR200     -0.0009
    129  CD2      -10.5640   25.9510   -4.0210 C.ar  200  TYR200     -0.0009
    130  CE1       -9.1420   27.1190   -6.0720 C.ar  200  TYR200      0.0417
    131  CE2       -9.8560   25.1600   -4.9060 C.ar  200  TYR200      0.0417
    132  CZ        -9.1350   25.7490   -5.9230 C.ar  200  TYR200      0.1957
    133  OH        -8.4190   24.9520   -6.7930 O.3   200  TYR200     -0.2866
    134  N          0.5190   34.1370   -8.3390 N.3   209  PRO209     -0.2102
    135  CA         1.8360   34.4530   -8.9060 C.3   209  PRO209      0.1504
    136  C          1.9050   34.2330  -10.4160 C.2   209  PRO209      0.2575
    137  O          2.5270   35.0240  -11.1270 O.2   209  PRO209     -0.2718
    138  CB         2.7680   33.4720   -8.1880 C.3   209  PRO209      0.0282
    139  CG         2.0550   33.1220   -6.9230 C.3   209  PRO209      0.0208
    140  CD         0.6000   33.1200   -7.2770 C.3   209  PRO209      0.0893
    141  N          1.2530   33.1780  -10.8920 N.am  210  TRP210     -0.1977
    142  CA         1.3490   32.7720  -12.2900 C.3   210  TRP210      0.1640
    143  C          0.3720   33.5000  -13.2160 C.2   210  TRP210      0.2290
    144  O          0.1760   33.0910  -14.3600 O.2   210  TRP210     -0.2864
    145  CB         1.1410   31.2610  -12.4080 C.3   210  TRP210      0.0576
    146  CG        -0.1960   30.8030  -11.8980 C.ar  210  TRP210      0.0006
    147  CD1       -1.3850   30.8280  -12.5730 C.ar  210  TRP210      0.0946
    148  CD2       -0.4800   30.2530  -10.6050 C.ar  210  TRP210      0.0152
    149  NE1       -2.3900   30.3270  -11.7790 N.ar  210  TRP210     -0.2442
    150  CE2       -1.8600   29.9670  -10.5670 C.ar  210  TRP210      0.0810
    151  CE3        0.2990   29.9740   -9.4770 C.ar  210  TRP210      0.0012
    152  CZ2       -2.4780   29.4160   -9.4440 C.ar  210  TRP210      0.0191
    153  CZ3       -0.3190   29.4280   -8.3620 C.ar  210  TRP210      0.0001
    154  CH2       -1.6920   29.1550   -8.3550 C.ar  210  TRP210      0.0015
    155  N         -6.6000   28.1940  -11.0410 N.3   285  CYS285     -0.1235
    156  CA        -5.7880   27.1530  -10.4140 C.3   285  CYS285      0.1677
    157  C         -5.8310   25.8530  -11.2160 C.2   285  CYS285      0.2270
    158  O         -6.5700   24.9270  -10.8780 O.2   285  CYS285     -0.2867
    159  CB        -6.2590   26.8930   -8.9810 C.3   285  CYS285      0.0956
    160  SG        -5.8530   28.1960   -7.7840 S.3   285  CYS285     -0.0801
    161  N         -3.0210   23.9090  -12.0650 N.3   287  LEU287     -0.1245
    162  CA        -1.9740   22.9800  -11.6270 C.3   287  LEU287      0.1561
    163  C         -1.5140   22.0130  -12.7200 C.2   287  LEU287      0.2260
    164  O         -1.4890   20.7990  -12.5140 O.2   287  LEU287     -0.2867
    165  CB        -2.4110   22.1960  -10.3840 C.3   287  LEU287      0.0270
    166  CG        -1.2290   21.7310   -9.5240 C.3   287  LEU287      0.0019
    167  CD1       -0.5790   22.9190   -8.8500 C.3   287  LEU287      0.0001
    168  CD2       -1.6370   20.7000   -8.4940 C.3   287  LEU287      0.0001
    169  N          1.2880   21.4030  -13.6560 N.3   289  GLN289     -0.1245
    170  CA         2.5290   20.7640  -13.2310 C.3   289  GLN289      0.1566
    171  C          2.3320   19.3780  -12.6160 C.2   289  GLN289      0.2260
    172  O          3.3090   18.7120  -12.2690 O.2   289  GLN289     -0.2867
    173  CB         3.2860   21.6670  -12.2480 C.3   289  GLN289      0.0367
    174  CG         2.4040   22.3890  -11.2290 C.3   289  GLN289      0.0905
    175  CD         1.8400   23.7000  -11.7600 C.2   289  GLN289      0.2608
    176  OE1        1.8510   23.9500  -12.9650 O.2   289  GLN289     -0.2717
    177  NE2        1.3520   24.5440  -10.8600 N.am  289  GLN289     -0.0878
@<TRIPOS>BOND
     1   144   143    2
     2   169   170    1
     3   170   171    1
     4   170   173    1
     5   143   142    1
     6   105   106    1
     7   176   175    2
     8   163   164    2
     9   163   162    1
    10   171   172    2
    11   147   146   ar
    12   147   149   ar
    13   145   142    1
    14   145   146    1
    15   142   141    1
    16   173   174    1
    17   106   107    1
    18   161   162    1
    19   107   108    2
    20   146   148   ar
    21   149   150   ar
    22   175   174    1
    23   175   177   am
    24   162   165    1
    25   157   158    2
    26   157   156    1
    27   137   136    2
    28   155   156    1
    29   141   136   am
    30   148   150   ar
    31   148   151   ar
    32   150   152   ar
    33   109   110    1
    34   136   135    1
    35   156   159    1
    36   165   166    1
    37   112   111    2
    38   166   167    1
    39   166   168    1
    40   151   153   ar
    41   152   154   ar
    42   110   111    1
    43   110   113    1
    44   159   160    1
    45    96    97    2
    46    96    95    1
    47   135   134    1
    48   135   138    1
    49    98    95    1
    50    98    99    1
    51   153   154   ar
    52   134   140    1
    53    95    94    1
    54   138   139    1
    55    99   100    1
    56   100   101    1
    57    70    71   ar
    58    70    68   ar
    59    71    69   ar
    60   140   139    1
    61   117   116    2
    62   103   102    1
    63   101   102    2
    64   133   132    1
    65    68    65   ar
    66   102   104    1
    67    69    67   ar
    68   120   119    2
    69    80    82   ar
    70    80    78   ar
    71   116   115    1
    72   130   132   ar
    73   130   128   ar
    74    82    81   ar
    75   118   115    1
    76   118   119    1
    77   132   131   ar
    78   125   124    2
    79   115   114    1
    80   119   121   am
    81    78    77   ar
    82    65    67   ar
    83    65    63   ar
    84    67    66   ar
    85   128   127   ar
    86    14    13   ar
    87    14    12   ar
    88   131   129   ar
    89   124   123    1
    90    81    79   ar
    91    86    85    2
    92    13    11   ar
    93    77    79   ar
    94    77    76    1
    95    63    62    1
    96    63    64   ar
    97    12    10   ar
    98    66    64   ar
    99   127   129   ar
   100   127   126    1
   101    85    84    1
   102    62    59    1
   103   122   123    1
   104    87    84    1
   105    87    88    1
   106    73    76    1
   107    73    72    1
   108    73    74    1
   109    89    88   ar
   110    89    91   ar
   111   123   126    1
   112    60    59    1
   113    60    61    2
   114    84    83    1
   115    59    58    1
   116    11     8   ar
   117    88    90   ar
   118    91    93   ar
   119    74    75    2
   120    10     8   ar
   121    10     9   ar
   122     8     6   ar
   123    51    50    2
   124    47    45   ar
   125    47    46   ar
   126    90    92   ar
   127    58    50   am
   128    45    43   ar
   129    93    92   ar
   130     9     7   ar
   131    50    49    1
   132    46    44   ar
   133     6     7   ar
   134     6     5    1
   135    55    57   ar
   136    55    53   ar
   137    43    42   ar
   138    43    41   ar
   139    57    56   ar
   140    42    40   ar
   141    44    41   ar
   142    49    52    1
   143    49    48    1
   144     5     2    1
   145    53    52    1
   146    53    54   ar
   147    41    39   ar
   148     4     3    2
   149    56    54   ar
   150    21    19    1
   151    40    39   ar
   152    33    32    1
   153     3     2    1
   154    39    38    1
   155    30    32   ar
   156    30    28   ar
   157     2     1    1
   158    20    19    1
   159    32    31   ar
   160    36    35    1
   161    36    37    2
   162    19    16    1
   163    28    27   ar
   164    35    38    1
   165    35    34    1
   166    18    17    2
   167    31    29   ar
   168    17    16    1
   169    17    22   am
   170    16    15    1
   171    27    29   ar
   172    27    26    1
   173    23    22    1
   174    23    26    1
   175    23    24    1
   176    25    24    2
