@<TRIPOS>MOLECULE
tmp/4xzvG00.pdb
 145 141 0 0 0
SMALL
GASTEIGER

@<TRIPOS>ATOM
      1  N       -164.6030   26.7260  -45.7960 N.3    12  ASN12      -0.1240
      2  CA      -164.4830   27.3700  -47.1020 C.3    12  ASN12       0.1653
      3  C       -165.2610   28.6920  -47.2000 C.2    12  ASN12       0.2266
      4  O       -166.3360   28.8690  -46.5870 O.2    12  ASN12      -0.2867
      5  CB      -164.9270   26.4030  -48.2010 C.3    12  ASN12       0.1155
      6  CG      -164.3310   26.7320  -49.5480 C.2    12  ASN12       0.2627
      7  OD1     -163.1770   27.1160  -49.6470 O.2    12  ASN12      -0.2716
      8  ND2     -165.1100   26.5610  -50.5940 N.am   12  ASN12      -0.0877
      9  N       -167.1760   30.0840  -49.2730 N.3    14  ASP14      -0.1225
     10  CA      -168.5160   30.1430  -49.8270 C.3    14  ASP14       0.1805
     11  C       -169.5810   29.6690  -48.8170 C.2    14  ASP14       0.2597
     12  O       -170.7850   29.7010  -49.1320 O.2    14  ASP14      -0.2718
     13  CB      -168.5910   29.3840  -51.1750 C.3    14  ASP14       0.1424
     14  CG      -168.1540   27.9070  -51.0800 C.2    14  ASP14       0.3668
     15  OD1     -167.8380   27.4200  -49.9860 O.co2  14  ASP14      -0.2456
     16  OD2     -168.1060   27.2160  -52.1200 O.co2  14  ASP14      -0.2456
     17  N       -169.1490   29.2320  -47.6230 N.am   15  LYS15      -0.1979
     18  CA      -170.0790   28.6750  -46.6310 C.3    15  LYS15       0.1596
     19  C       -170.4770   29.7000  -45.5880 C.2    15  LYS15       0.2287
     20  O       -169.9570   30.8090  -45.5640 O.2    15  LYS15      -0.2864
     21  CB      -169.4750   27.4680  -45.8970 C.3    15  LYS15       0.0298
     22  CG      -168.8250   26.4090  -46.7560 C.3    15  LYS15       0.0038
     23  CD      -169.7610   25.7380  -47.7390 C.3    15  LYS15       0.0206
     24  CE      -168.9450   24.6970  -48.4910 C.3    15  LYS15       0.1093
     25  NZ      -169.5430   24.1020  -49.7160 N.3    15  LYS15      -0.1314
     26  N       -164.4220   20.6400  -44.7530 N.3    62  TRP62      -0.1227
     27  CA      -164.3990   20.4720  -46.1960 C.3    62  TRP62       0.1737
     28  C       -165.3240   19.3220  -46.5620 C.2    62  TRP62       0.2595
     29  O       -165.8060   18.5920  -45.6880 O.2    62  TRP62      -0.2718
     30  CB      -162.9910   20.1910  -46.7110 C.3    62  TRP62       0.0564
     31  CG      -162.9160   20.3430  -48.1790 C.ar   62  TRP62       0.0003
     32  CD1     -163.0330   19.3670  -49.1230 C.ar   62  TRP62       0.0946
     33  CD2     -162.7810   21.5700  -48.8840 C.ar   62  TRP62       0.0152
     34  NE1     -162.9440   19.9110  -50.3810 N.ar   62  TRP62      -0.2442
     35  CE2     -162.7940   21.2670  -50.2620 C.ar   62  TRP62       0.0810
     36  CE3     -162.6430   22.9000  -48.4810 C.ar   62  TRP62       0.0012
     37  CZ2     -162.6670   22.2490  -51.2380 C.ar   62  TRP62       0.0191
     38  CZ3     -162.5240   23.8700  -49.4410 C.ar   62  TRP62       0.0001
     39  CH2     -162.5380   23.5450  -50.8110 C.ar   62  TRP62       0.0015
     40  N       -165.6290   19.1830  -47.8430 N.am   63  ALA63      -0.1980
     41  CA      -166.3350   17.9950  -48.2940 C.3    63  ALA63       0.1597
     42  C       -165.5190   16.7600  -47.9700 C.2    63  ALA63       0.2287
     43  O       -164.2950   16.8100  -47.9260 O.2    63  ALA63      -0.2864
     44  CB      -166.6120   18.0640  -49.7830 C.3    63  ALA63       0.0319
     45  N       -164.5020   14.1860  -49.5470 N.3    65  ASP65      -0.1239
     46  CA      -163.6230   13.5500  -50.5460 C.3    65  ASP65       0.1674
     47  C       -162.1330   13.7320  -50.2450 C.2    65  ASP65       0.2266
     48  O       -161.3000   12.8950  -50.6090 O.2    65  ASP65      -0.2867
     49  CB      -163.9340   14.0300  -51.9740 C.3    65  ASP65       0.1410
     50  CG      -163.6820   15.5240  -52.1810 C.2    65  ASP65       0.3668
     51  OD1     -164.3240   16.3280  -51.5230 O.co2  65  ASP65      -0.2456
     52  OD2     -162.8720   15.9210  -53.0410 O.co2  65  ASP65      -0.2456
     53  N       -174.3700   18.0250  -49.9660 N.3   111  GLU111     -0.1245
     54  CA      -174.3120   19.0340  -51.0070 C.3   111  GLU111      0.1567
     55  C       -174.4710   18.3660  -52.3710 C.2   111  GLU111      0.2260
     56  O       -173.7410   17.4300  -52.6980 O.2   111  GLU111     -0.2867
     57  CB      -172.9320   19.7150  -51.0070 C.3   111  GLU111      0.0388
     58  CG      -172.4520   20.3550  -49.7090 C.3   111  GLU111      0.1160
     59  CD      -170.9830   20.8110  -49.7700 C.2   111  GLU111      0.3649
     60  OE1     -170.5860   21.6160  -48.9100 O.co2 111  GLU111     -0.2457
     61  OE2     -170.2090   20.4050  -50.6690 O.co2 111  GLU111     -0.2457
     62  N       -169.3490   28.1000  -63.2660 N.3   150  ASN150     -0.1240
     63  CA      -167.9080   28.0790  -63.0090 C.3   150  ASN150      0.1653
     64  C       -167.2020   26.9810  -63.7650 C.2   150  ASN150      0.2266
     65  O       -167.3040   25.8230  -63.4050 O.2   150  ASN150     -0.2867
     66  CB      -167.6320   27.9120  -61.5110 C.3   150  ASN150      0.1155
     67  CG      -166.1570   28.0510  -61.1500 C.2   150  ASN150      0.2627
     68  OD1     -165.3010   28.2420  -62.0200 O.2   150  ASN150     -0.2716
     69  ND2     -165.8580   27.9770  -59.8500 N.am  150  ASN150     -0.0877
     70  N       -163.5080   25.1230  -61.9680 N.3   153  GLU153     -0.1245
     71  CA      -163.5210   24.0120  -60.9880 C.3   153  GLU153      0.1567
     72  C       -164.2220   22.8370  -61.5910 C.2   153  GLU153      0.2260
     73  O       -165.4100   22.9480  -61.9170 O.2   153  GLU153     -0.2867
     74  CB      -164.2320   24.3620  -59.6800 C.3   153  GLU153      0.0388
     75  CG      -163.4480   25.2770  -58.7450 C.3   153  GLU153      0.1160
     76  CD      -162.0940   24.7520  -58.3080 C.2   153  GLU153      0.3649
     77  OE1     -161.9580   23.5270  -58.1290 O.co2 153  GLU153     -0.2457
     78  OE2     -161.1710   25.5760  -58.1490 O.co2 153  GLU153     -0.2457
     79  N       -165.4890   20.2870  -60.4100 N.3   155  TYR155     -0.1227
     80  CA      -166.7440   20.0110  -59.6810 C.3   155  TYR155      0.1736
     81  C       -167.9850   20.3970  -60.4720 C.2   155  TYR155      0.2595
     82  O       -168.9490   19.6400  -60.5010 O.2   155  TYR155     -0.2718
     83  CB      -166.7770   20.7950  -58.3600 C.3   155  TYR155      0.0548
     84  CG      -167.8940   20.4290  -57.3840 C.ar  155  TYR155     -0.0200
     85  CD1     -167.9720   19.1480  -56.8220 C.ar  155  TYR155     -0.0009
     86  CD2     -168.8320   21.3740  -56.9820 C.ar  155  TYR155     -0.0009
     87  CE1     -168.9580   18.8180  -55.9120 C.ar  155  TYR155      0.0417
     88  CE2     -169.8230   21.0430  -56.0690 C.ar  155  TYR155      0.0417
     89  CZ      -169.8730   19.7640  -55.5360 C.ar  155  TYR155      0.1957
     90  OH      -170.8400   19.4070  -54.6330 O.3   155  TYR155     -0.2866
     91  N       -167.9480   21.5740  -61.1000 N.am  156  PHE156     -0.1976
     92  CA      -169.1270   22.1450  -61.7600 C.3   156  PHE156      0.1639
     93  C       -169.3870   21.5830  -63.1560 C.2   156  PHE156      0.2290
     94  O       -170.5340   21.5920  -63.6040 O.2   156  PHE156     -0.2864
     95  CB      -169.0160   23.6630  -61.8620 C.3   156  PHE156      0.0560
     96  CG      -169.0540   24.3770  -60.5470 C.ar  156  PHE156     -0.0200
     97  CD1     -167.9110   24.5230  -59.7890 C.ar  156  PHE156     -0.0042
     98  CD2     -170.2210   24.9450  -60.0890 C.ar  156  PHE156     -0.0042
     99  CE1     -167.9360   25.2180  -58.5830 C.ar  156  PHE156     -0.0003
    100  CE2     -170.2640   25.6370  -58.8860 C.ar  156  PHE156     -0.0003
    101  CZ      -169.1180   25.7810  -58.1330 C.ar  156  PHE156     -0.0000
    102  N       -175.2900   26.6750  -50.9010 N.3   230  TRP230     -0.1241
    103  CA      -174.5660   27.8400  -50.4000 C.3   230  TRP230      0.1605
    104  C       -174.8550   29.0990  -51.2150 C.2   230  TRP230      0.2264
    105  O       -174.8490   30.2020  -50.6560 O.2   230  TRP230     -0.2867
    106  CB      -173.0560   27.5710  -50.3470 C.3   230  TRP230      0.0550
    107  CG      -172.4810   27.1600  -51.6560 C.ar  230  TRP230      0.0003
    108  CD1     -172.0460   27.9820  -52.6420 C.ar  230  TRP230      0.0946
    109  CD2     -172.2960   25.8230  -52.1400 C.ar  230  TRP230      0.0152
    110  NE1     -171.6030   27.2490  -53.7200 N.ar  230  TRP230     -0.2442
    111  CE2     -171.7350   25.9180  -53.4310 C.ar  230  TRP230      0.0810
    112  CE3     -172.5580   24.5540  -51.6130 C.ar  230  TRP230      0.0012
    113  CZ2     -171.4170   24.7930  -54.2000 C.ar  230  TRP230      0.0191
    114  CZ3     -172.2290   23.4280  -52.3840 C.ar  230  TRP230      0.0001
    115  CH2     -171.6700   23.5620  -53.6590 C.ar  230  TRP230      0.0015
    116  N       -170.3640   17.7560  -46.6270 N.3   262  LEU262     -0.1245
    117  CA      -169.5870   18.7400  -45.8750 C.3   262  LEU262      0.1561
    118  C       -169.3440   18.1460  -44.4950 C.2   262  LEU262      0.2260
    119  O       -170.2930   17.7340  -43.8150 O.2   262  LEU262     -0.2867
    120  CB      -170.2900   20.1050  -45.7650 C.3   262  LEU262      0.0270
    121  CG      -169.5490   21.1580  -44.9040 C.3   262  LEU262      0.0019
    122  CD1     -168.3100   21.6770  -45.6110 C.3   262  LEU262      0.0001
    123  CD2     -170.4280   22.3450  -44.5210 C.3   262  LEU262      0.0001
    124  N       -168.9310   11.2260  -53.8060 N.3   330  MET330     -0.1245
    125  CA      -167.5050   11.2310  -54.1260 C.3   330  MET330      0.1570
    126  C       -166.7970   10.1220  -53.3700 C.2   330  MET330      0.2261
    127  O       -167.1450    9.8400  -52.2280 O.2   330  MET330     -0.2867
    128  CB      -166.8630   12.5750  -53.7830 C.3   330  MET330      0.0387
    129  CG      -167.2560   13.6580  -54.7470 C.3   330  MET330      0.0595
    130  SD      -166.4590   15.2190  -54.4270 S.3   330  MET330     -0.1393
    131  CE      -167.3940   15.7440  -52.9910 C.3   330  MET330      0.0692
    132  N       -158.7380   15.1610  -59.0720 N.3   340  TRP340     -0.1241
    133  CA      -159.4230   16.4440  -59.1310 C.3   340  TRP340      0.1605
    134  C       -158.6910   17.5280  -59.9030 C.2   340  TRP340      0.2264
    135  O       -159.3380   18.2870  -60.6470 O.2   340  TRP340     -0.2867
    136  CB      -159.7610   16.9560  -57.7270 C.3   340  TRP340      0.0550
    137  CG      -161.0600   16.5000  -57.2600 C.ar  340  TRP340      0.0003
    138  CD1     -161.3410   15.9490  -56.0610 C.ar  340  TRP340      0.0946
    139  CD2     -162.2810   16.5280  -57.9960 C.ar  340  TRP340      0.0152
    140  NE1     -162.6790   15.6530  -55.9880 N.ar  340  TRP340     -0.2442
    141  CE2     -163.2770   15.9940  -57.1700 C.ar  340  TRP340      0.0810
    142  CE3     -162.6330   16.9580  -59.2700 C.ar  340  TRP340      0.0012
    143  CZ2     -164.6090   15.8680  -57.5830 C.ar  340  TRP340      0.0191
    144  CZ3     -163.9390   16.8360  -59.6670 C.ar  340  TRP340      0.0001
    145  CH2     -164.9120   16.3080  -58.8290 C.ar  340  TRP340      0.0015
@<TRIPOS>BOND
     1    64    65    2
     2    64    63    1
     3    94    93    2
     4    62    63    1
     5    93    92    1
     6    63    66    1
     7    68    67    2
     8    70    71    1
     9    73    72    2
    10    95    92    1
    11    95    96    1
    12    92    91    1
    13    72    71    1
    14    66    67    1
    15    67    69   am
    16    91    81   am
    17    71    74    1
    18   135   134    2
    19    96    98   ar
    20    96    97   ar
    21    82    81    2
    22    81    80    1
    23    79    80    1
    24    98   100   ar
    25   134   133    1
    26    97    99   ar
    27    80    83    1
    28    74    75    1
    29   144   142   ar
    30   144   145   ar
    31   142   139   ar
    32   133   132    1
    33   133   136    1
    34   100   101   ar
    35   145   143   ar
    36    75    76    1
    37    99   101   ar
    38    83    84    1
    39    76    78   ar
    40    76    77   ar
    41   139   137   ar
    42   139   141   ar
    43   136   137    1
    44   143   141   ar
    45    84    86   ar
    46    84    85   ar
    47   137   138   ar
    48   141   140   ar
    49    86    88   ar
    50    85    87   ar
    51    88    89   ar
    52   138   140   ar
    53    87    89   ar
    54    89    90    1
    55   129   130    1
    56   129   128    1
    57   130   131    1
    58   113   115   ar
    59   113   111   ar
    60   125   124    1
    61   125   128    1
    62   125   126    1
    63   110   111   ar
    64   110   108   ar
    65   115   114   ar
    66   111   109   ar
    67   126   127    2
    68    52    50   ar
    69    56    55    2
    70   108   107   ar
    71   114   112   ar
    72    55    54    1
    73    50    49    1
    74    50    51   ar
    75   109   107   ar
    76   109   112   ar
    77    16    14   ar
    78    49    46    1
    79   107   106    1
    80    37    39   ar
    81    37    35   ar
    82   104   105    2
    83   104   103    1
    84    13    14    1
    85    13    10    1
    86    14    15   ar
    87    54    57    1
    88    54    53    1
    89    57    58    1
    90   102   103    1
    91    39    38   ar
    92    61    59   ar
    93    48    47    2
    94     8     6   am
    95    46    47    1
    96    46    45    1
    97   103   106    1
    98    34    35   ar
    99    34    32   ar
   100    35    33   ar
   101    10     9    1
   102    10    11    1
   103    44    41    1
   104    59    58    1
   105    59    60   ar
   106    25    24    1
   107     7     6    2
   108     6     5    1
   109    38    36   ar
   110    12    11    2
   111    32    31   ar
   112    33    36   ar
   113    33    31   ar
   114    11    17   am
   115    24    23    1
   116    41    42    1
   117    41    40    1
   118     5     2    1
   119    31    30    1
   120    42    43    2
   121    40    28   am
   122    23    22    1
   123    17    18    1
   124     3     2    1
   125     3     4    2
   126     2     1    1
   127    22    21    1
   128    30    27    1
   129    18    21    1
   130    18    19    1
   131   116   117    1
   132    28    27    1
   133    28    29    2
   134    27    26    1
   135   117   120    1
   136   117   118    1
   137   120   121    1
   138   122   121    1
   139    19    20    2
   140   121   123    1
   141   118   119    2
