@<TRIPOS>MOLECULE
tmp/4xzvG01.pdb
 108 107 0 0 0
SMALL
GASTEIGER

@<TRIPOS>ATOM
      1  N       -158.2480   23.8880  -48.7400 N.3    44  GLU44      -0.1245
      2  CA      -158.0670   22.4410  -48.9680 C.3    44  GLU44       0.1567
      3  C       -156.6250   22.0650  -49.3040 C.2    44  GLU44       0.2260
      4  O       -156.2230   20.9230  -49.0800 O.2    44  GLU44      -0.2867
      5  CB      -159.0450   21.8890  -50.0310 C.3    44  GLU44       0.0388
      6  CG      -158.6640   22.1180  -51.4930 C.3    44  GLU44       0.1160
      7  CD      -159.0170   23.5060  -52.0190 C.2    44  GLU44       0.3649
      8  OE1     -159.1280   24.4730  -51.2260 O.co2  44  GLU44      -0.2457
      9  OE2     -159.1790   23.6330  -53.2510 O.co2  44  GLU44      -0.2457
     10  N       -164.4220   20.6400  -44.7530 N.3    62  TRP62      -0.1227
     11  CA      -164.3990   20.4720  -46.1960 C.3    62  TRP62       0.1737
     12  C       -165.3240   19.3220  -46.5620 C.2    62  TRP62       0.2595
     13  O       -165.8060   18.5920  -45.6880 O.2    62  TRP62      -0.2718
     14  CB      -162.9910   20.1910  -46.7110 C.3    62  TRP62       0.0564
     15  CG      -162.9160   20.3430  -48.1790 C.ar   62  TRP62       0.0003
     16  CD1     -163.0330   19.3670  -49.1230 C.ar   62  TRP62       0.0946
     17  CD2     -162.7810   21.5700  -48.8840 C.ar   62  TRP62       0.0152
     18  NE1     -162.9440   19.9110  -50.3810 N.ar   62  TRP62      -0.2442
     19  CE2     -162.7940   21.2670  -50.2620 C.ar   62  TRP62       0.0810
     20  CE3     -162.6430   22.9000  -48.4810 C.ar   62  TRP62       0.0012
     21  CZ2     -162.6670   22.2490  -51.2380 C.ar   62  TRP62       0.0191
     22  CZ3     -162.5240   23.8700  -49.4410 C.ar   62  TRP62       0.0001
     23  CH2     -162.5380   23.5450  -50.8110 C.ar   62  TRP62       0.0015
     24  N       -165.6290   19.1830  -47.8430 N.am   63  ALA63      -0.1980
     25  CA      -166.3350   17.9950  -48.2940 C.3    63  ALA63       0.1597
     26  C       -165.5190   16.7600  -47.9700 C.2    63  ALA63       0.2287
     27  O       -164.2950   16.8100  -47.9260 O.2    63  ALA63      -0.2864
     28  CB      -166.6120   18.0640  -49.7830 C.3    63  ALA63       0.0319
     29  N       -164.5020   14.1860  -49.5470 N.3    65  ASP65      -0.1225
     30  CA      -163.6230   13.5500  -50.5460 C.3    65  ASP65       0.1805
     31  C       -162.1330   13.7320  -50.2450 C.2    65  ASP65       0.2597
     32  O       -161.3000   12.8950  -50.6090 O.2    65  ASP65      -0.2718
     33  CB      -163.9340   14.0300  -51.9740 C.3    65  ASP65       0.1424
     34  CG      -163.6820   15.5240  -52.1810 C.2    65  ASP65       0.3668
     35  OD1     -164.3240   16.3280  -51.5230 O.co2  65  ASP65      -0.2456
     36  OD2     -162.8720   15.9210  -53.0410 O.co2  65  ASP65      -0.2456
     37  N       -161.8080   14.8260  -49.5700 N.am   66  ARG66      -0.1979
     38  CA      -160.4260   15.1460  -49.2540 C.3    66  ARG66       0.1597
     39  C       -159.9670   14.5170  -47.9620 C.2    66  ARG66       0.2287
     40  O       -158.7810   14.5700  -47.6520 O.2    66  ARG66      -0.2864
     41  CB      -160.2710   16.6490  -49.0850 C.3    66  ARG66       0.0334
     42  CG      -160.5020   17.4460  -50.3430 C.3    66  ARG66       0.0492
     43  CD      -159.2040   17.6080  -51.0760 C.3    66  ARG66       0.2205
     44  NE      -159.4020   18.1850  -52.3880 N.pl3  66  ARG66      -0.0865
     45  CZ      -158.3980   18.4640  -53.2070 C.cat  66  ARG66       0.5346
     46  NH1     -157.1550   18.2170  -52.8380 N.pl3  66  ARG66       0.1354
     47  NH2     -158.6300   18.9930  -54.3940 N.pl3  66  ARG66       0.1354
     48  N       -163.5080   25.1230  -61.9680 N.3   153  GLU153     -0.1231
     49  CA      -163.5210   24.0120  -60.9880 C.3   153  GLU153      0.1684
     50  C       -164.2220   22.8370  -61.5910 C.2   153  GLU153      0.2434
     51  O       -165.4100   22.9480  -61.9170 O.2   153  GLU153     -0.2733
     52  CB      -164.2320   24.3620  -59.6800 C.3   153  GLU153      0.0402
     53  CG      -163.4480   25.2770  -58.7450 C.3   153  GLU153      0.1161
     54  CD      -162.0940   24.7520  -58.3080 C.2   153  GLU153      0.3649
     55  OE1     -161.9580   23.5270  -58.1290 O.co2 153  GLU153     -0.2457
     56  OE2     -161.1710   25.5760  -58.1490 O.co2 153  GLU153     -0.2457
     57  N       -163.4960   21.7030  -61.7300 N.am  154  PRO154     -0.2718
     58  CA      -164.0590   20.5340  -62.4090 C.3   154  PRO154      0.1535
     59  C       -165.3200   19.9800  -61.6970 C.2   154  PRO154      0.2598
     60  O       -166.1350   19.3090  -62.3300 O.2   154  PRO154     -0.2715
     61  CB      -162.8740   19.5380  -62.4490 C.3   154  PRO154      0.0310
     62  CG      -161.9780   19.9670  -61.3460 C.3   154  PRO154      0.0237
     63  CD      -162.1170   21.4470  -61.2420 C.3   154  PRO154      0.0939
     64  N       -165.4890   20.2870  -60.4100 N.am  155  TYR155     -0.1974
     65  CA      -166.7440   20.0110  -59.6810 C.3   155  TYR155      0.1639
     66  C       -167.9850   20.3970  -60.4720 C.2   155  TYR155      0.2290
     67  O       -168.9490   19.6400  -60.5010 O.2   155  TYR155     -0.2864
     68  CB      -166.7770   20.7950  -58.3600 C.3   155  TYR155      0.0560
     69  CG      -167.8940   20.4290  -57.3840 C.ar  155  TYR155     -0.0198
     70  CD1     -167.9720   19.1480  -56.8220 C.ar  155  TYR155     -0.0009
     71  CD2     -168.8320   21.3740  -56.9820 C.ar  155  TYR155     -0.0009
     72  CE1     -168.9580   18.8180  -55.9120 C.ar  155  TYR155      0.0417
     73  CE2     -169.8230   21.0430  -56.0690 C.ar  155  TYR155      0.0417
     74  CZ      -169.8730   19.7640  -55.5360 C.ar  155  TYR155      0.1957
     75  OH      -170.8400   19.4070  -54.6330 O.3   155  TYR155     -0.2866
     76  N       -168.9310   11.2260  -53.8060 N.3   330  MET330     -0.1245
     77  CA      -167.5050   11.2310  -54.1260 C.3   330  MET330      0.1570
     78  C       -166.7970   10.1220  -53.3700 C.2   330  MET330      0.2261
     79  O       -167.1450    9.8400  -52.2280 O.2   330  MET330     -0.2867
     80  CB      -166.8630   12.5750  -53.7830 C.3   330  MET330      0.0387
     81  CG      -167.2560   13.6580  -54.7470 C.3   330  MET330      0.0595
     82  SD      -166.4590   15.2190  -54.4270 S.3   330  MET330     -0.1393
     83  CE      -167.3940   15.7440  -52.9910 C.3   330  MET330      0.0692
     84  N       -158.7380   15.1610  -59.0720 N.3   340  TRP340     -0.1241
     85  CA      -159.4230   16.4440  -59.1310 C.3   340  TRP340      0.1605
     86  C       -158.6910   17.5280  -59.9030 C.2   340  TRP340      0.2264
     87  O       -159.3380   18.2870  -60.6470 O.2   340  TRP340     -0.2867
     88  CB      -159.7610   16.9560  -57.7270 C.3   340  TRP340      0.0550
     89  CG      -161.0600   16.5000  -57.2600 C.ar  340  TRP340      0.0003
     90  CD1     -161.3410   15.9490  -56.0610 C.ar  340  TRP340      0.0946
     91  CD2     -162.2810   16.5280  -57.9960 C.ar  340  TRP340      0.0152
     92  NE1     -162.6790   15.6530  -55.9880 N.ar  340  TRP340     -0.2442
     93  CE2     -163.2770   15.9940  -57.1700 C.ar  340  TRP340      0.0810
     94  CE3     -162.6330   16.9580  -59.2700 C.ar  340  TRP340      0.0012
     95  CZ2     -164.6090   15.8680  -57.5830 C.ar  340  TRP340      0.0191
     96  CZ3     -163.9390   16.8360  -59.6670 C.ar  340  TRP340      0.0001
     97  CH2     -164.9120   16.3080  -58.8290 C.ar  340  TRP340      0.0015
     98  N       -159.1160   19.1460  -63.5370 N.3   344  ARG344     -0.1245
     99  CA      -159.1070   20.6130  -63.4770 C.3   344  ARG344      0.1563
    100  C       -158.2900   21.2020  -64.6220 C.2   344  ARG344      0.2260
    101  O       -158.6640   22.2200  -65.2070 O.2   344  ARG344     -0.2867
    102  CB      -158.5540   21.1000  -62.1360 C.3   344  ARG344      0.0307
    103  CG      -158.0770   22.5610  -62.1380 C.3   344  ARG344      0.0489
    104  CD      -157.6600   23.0430  -60.7590 C.3   344  ARG344      0.2205
    105  NE      -158.7640   22.8560  -59.8080 N.pl3 344  ARG344     -0.0865
    106  CZ      -158.6150   22.6510  -58.5030 C.cat 344  ARG344      0.5346
    107  NH1     -157.3980   22.6460  -57.9590 N.pl3 344  ARG344      0.1354
    108  NH2     -159.6910   22.4490  -57.7360 N.pl3 344  ARG344      0.1354
@<TRIPOS>BOND
     1   101   100    2
     2   100    99    1
     3    98    99    1
     4    99   102    1
     5    61    58    1
     6    61    62    1
     7    58    57    1
     8    58    59    1
     9    60    59    2
    10   103   102    1
    11   103   104    1
    12    48    49    1
    13    51    50    2
    14    57    50   am
    15    57    63    1
    16    59    64   am
    17    50    49    1
    18    62    63    1
    19    49    52    1
    20   104   105    1
    21    87    86    2
    22    67    66    2
    23    66    65    1
    24    64    65    1
    25    86    85    1
    26   105   106    2
    27    65    68    1
    28    52    53    1
    29    96    94   ar
    30    96    97   ar
    31    94    91   ar
    32    85    84    1
    33    85    88    1
    34    97    95   ar
    35    53    54    1
    36   106   107    1
    37   106   108    1
    38    68    69    1
    39    54    56   ar
    40    54    55   ar
    41    91    89   ar
    42    91    93   ar
    43    88    89    1
    44    95    93   ar
    45    69    71   ar
    46    69    70   ar
    47    89    90   ar
    48    93    92   ar
    49    71    73   ar
    50    70    72   ar
    51    73    74   ar
    52    90    92   ar
    53    72    74   ar
    54    74    75    1
    55    81    82    1
    56    81    80    1
    57    82    83    1
    58    47    45    1
    59    77    76    1
    60    77    80    1
    61    77    78    1
    62    78    79    2
    63     9     7   ar
    64    45    46    1
    65    45    44    2
    66    36    34   ar
    67    44    43    1
    68    34    33    1
    69    34    35   ar
    70     7     6    1
    71     7     8   ar
    72    33    30    1
    73     6     5    1
    74    21    23   ar
    75    21    19   ar
    76    43    42    1
    77    23    22   ar
    78    32    31    2
    79    30    31    1
    80    30    29    1
    81    18    19   ar
    82    18    16   ar
    83    42    41    1
    84    19    17   ar
    85    31    37   am
    86     5     2    1
    87    28    25    1
    88    37    38    1
    89    22    20   ar
    90     3     4    2
    91     3     2    1
    92    38    41    1
    93    38    39    1
    94    16    15   ar
    95     2     1    1
    96    17    20   ar
    97    17    15   ar
    98    25    26    1
    99    25    24    1
   100    15    14    1
   101    26    27    2
   102    39    40    2
   103    24    12   am
   104    14    11    1
   105    12    11    1
   106    12    13    2
   107    11    10    1
