@<TRIPOS>MOLECULE
tmp/4xzwA02.pdb
 134 131 0 0 0
SMALL
GASTEIGER

@<TRIPOS>ATOM
      1  N        -11.6780  -23.9230   -4.9240 N.3    64  TYR64      -0.1241
      2  CA       -11.1780  -25.3030   -5.1000 C.3    64  TYR64       0.1605
      3  C        -11.7770  -26.2150   -4.0260 C.2    64  TYR64       0.2264
      4  O        -12.0120  -25.7910   -2.8760 O.2    64  TYR64      -0.2867
      5  CB        -9.6550  -25.3720   -5.0000 C.3    64  TYR64       0.0534
      6  CG        -8.8980  -24.9380   -6.2400 C.ar   64  TYR64      -0.0201
      7  CD1       -8.9380  -23.6050   -6.7060 C.ar   64  TYR64      -0.0009
      8  CD2       -8.1020  -25.8220   -6.9440 C.ar   64  TYR64      -0.0009
      9  CE1       -8.2400  -23.2170   -7.8400 C.ar   64  TYR64       0.0417
     10  CE2       -7.3850  -25.4310   -8.0850 C.ar   64  TYR64       0.0417
     11  CZ        -7.4570  -24.1240   -8.5200 C.ar   64  TYR64       0.1957
     12  OH        -6.7420  -23.7420   -9.6590 O.3    64  TYR64      -0.2866
     13  N        -14.9180  -25.5560   -7.5730 N.3   102  HIS102     -0.1241
     14  CA       -13.8370  -25.6220   -8.5390 C.3   102  HIS102      0.1621
     15  C        -13.1090  -26.9580   -8.4750 C.2   102  HIS102      0.2264
     16  O        -11.9840  -27.0430   -7.9750 O.2   102  HIS102     -0.2867
     17  CB       -12.8940  -24.4330   -8.3290 C.3   102  HIS102      0.0745
     18  CG       -11.9460  -24.1880   -9.4640 C.ar  102  HIS102      0.0817
     19  ND1      -12.2350  -23.3320  -10.5060 N.ar  102  HIS102     -0.2268
     20  CD2      -10.7070  -24.6790   -9.7120 C.ar  102  HIS102      0.1154
     21  CE1      -11.2130  -23.3030  -11.3370 C.ar  102  HIS102      0.1986
     22  NE2      -10.2720  -24.1120  -10.8800 N.ar  102  HIS102     -0.2212
     23  N        -11.1010  -30.1020  -10.0370 N.3   104  LEU104     -0.1245
     24  CA       -10.0400  -30.1790  -11.0470 C.3   104  LEU104      0.1561
     25  C         -9.3110  -31.5170  -10.9230 C.2   104  LEU104      0.2260
     26  O         -9.6390  -32.4400  -11.6500 O.2   104  LEU104     -0.2867
     27  CB        -9.0930  -28.9820  -10.9400 C.3   104  LEU104      0.0270
     28  CG        -8.0080  -28.8680  -12.0100 C.3   104  LEU104      0.0019
     29  CD1       -8.6240  -28.7350  -13.4010 C.3   104  LEU104      0.0001
     30  CD2       -7.0920  -27.6920  -11.7110 C.3   104  LEU104      0.0001
     31  N        -16.6950  -27.0300  -11.8810 N.3   139  ASN139     -0.1225
     32  CA       -15.7800  -26.3150  -12.8080 C.3   139  ASN139      0.1785
     33  C        -15.4030  -27.1140  -14.0610 C.2   139  ASN139      0.2597
     34  O        -15.7840  -26.7540  -15.1810 O.2   139  ASN139     -0.2718
     35  CB       -14.5180  -25.9180  -12.0280 C.3   139  ASN139      0.1169
     36  CG       -13.4090  -25.4040  -12.9200 C.2   139  ASN139      0.2627
     37  OD1      -13.6180  -24.5360  -13.7640 O.2   139  ASN139     -0.2716
     38  ND2      -12.2210  -25.9410  -12.7420 N.am  139  ASN139     -0.0877
     39  N        -14.6070  -28.1670  -13.8640 N.am  140  GLU140     -0.1979
     40  CA       -14.0130  -28.9280  -14.9640 C.3   140  GLU140      0.1602
     41  C        -13.9640  -30.4370  -14.6970 C.2   140  GLU140      0.2287
     42  O        -12.9200  -30.9690  -14.2710 O.2   140  GLU140     -0.2864
     43  CB       -12.5950  -28.4330  -15.2730 C.3   140  GLU140      0.0415
     44  CG       -12.5750  -27.1320  -16.0540 C.3   140  GLU140      0.1163
     45  CD       -11.2090  -26.6300  -16.4640 C.2   140  GLU140      0.3649
     46  OE1      -10.1580  -27.1560  -16.0430 O.co2 140  GLU140     -0.2457
     47  OE2      -11.1660  -25.6220  -17.1790 O.co2 140  GLU140     -0.2457
     48  N        -14.0360  -33.2650  -20.5690 N.3   177  THR177     -0.1203
     49  CA       -12.7360  -32.8420  -21.0560 C.3   177  THR177      0.1994
     50  C        -12.4450  -31.3670  -20.7120 C.2   177  THR177      0.2617
     51  O        -12.2050  -30.5510  -21.5870 O.2   177  THR177     -0.2717
     52  CB       -12.6030  -33.1150  -22.5730 C.3   177  THR177      0.1784
     53  OG1      -13.0600  -34.4410  -22.8570 O.3   177  THR177     -0.2211
     54  CG2      -11.1740  -32.9410  -23.0600 C.3   177  THR177      0.0376
     55  N        -12.4470  -31.0690  -19.4090 N.am  178  TRP178     -0.1975
     56  CA       -12.1890  -29.7100  -18.8970 C.3   178  TRP178      0.1640
     57  C        -13.1730  -28.7110  -19.4940 C.2   178  TRP178      0.2290
     58  O        -12.7970  -27.6250  -19.9300 O.2   178  TRP178     -0.2864
     59  CB       -10.7460  -29.2480  -19.1260 C.3   178  TRP178      0.0576
     60  CG        -9.7200  -30.1240  -18.4380 C.ar  178  TRP178      0.0006
     61  CD1       -9.3520  -30.0980  -17.1120 C.ar  178  TRP178      0.0946
     62  CD2       -8.9400  -31.1520  -19.0480 C.ar  178  TRP178      0.0152
     63  NE1       -8.3830  -31.0500  -16.8730 N.ar  178  TRP178     -0.2442
     64  CE2       -8.1160  -31.7080  -18.0420 C.ar  178  TRP178      0.0810
     65  CE3       -8.8400  -31.6420  -20.3490 C.ar  178  TRP178      0.0012
     66  CZ2       -7.2110  -32.7440  -18.3050 C.ar  178  TRP178      0.0191
     67  CZ3       -7.9410  -32.6740  -20.6100 C.ar  178  TRP178      0.0001
     68  CH2       -7.1430  -33.2130  -19.5900 C.ar  178  TRP178      0.0015
     69  N        -14.9850  -28.8470  -22.2420 N.3   180  GLN180     -0.1245
     70  CA       -14.9630  -28.7400  -23.6960 C.3   180  GLN180      0.1566
     71  C        -16.1450  -29.4460  -24.3620 C.2   180  GLN180      0.2260
     72  O        -16.5890  -29.0070  -25.4160 O.2   180  GLN180     -0.2867
     73  CB       -13.6350  -29.2980  -24.2600 C.3   180  GLN180      0.0367
     74  CG       -12.4390  -28.4390  -23.8880 C.3   180  GLN180      0.0905
     75  CD       -11.0870  -29.1180  -24.0960 C.2   180  GLN180      0.2608
     76  OE1      -10.1030  -28.8270  -23.3850 O.2   180  GLN180     -0.2717
     77  NE2      -11.0230  -30.0000  -25.0680 N.am  180  GLN180     -0.0878
     78  N         -8.2450  -22.0940  -23.7830 N.3   202  TYR202     -0.1241
     79  CA        -7.0520  -21.2460  -23.7600 C.3   202  TYR202      0.1605
     80  C         -6.7090  -20.8350  -25.1830 C.2   202  TYR202      0.2264
     81  O         -6.6840  -21.6560  -26.0910 O.2   202  TYR202     -0.2867
     82  CB        -5.8710  -21.9720  -23.0890 C.3   202  TYR202      0.0534
     83  CG        -5.8620  -21.7430  -21.5910 C.ar  202  TYR202     -0.0201
     84  CD1       -4.9690  -20.8590  -21.0200 C.ar  202  TYR202     -0.0009
     85  CD2       -6.7920  -22.3450  -20.7830 C.ar  202  TYR202     -0.0009
     86  CE1       -4.9460  -20.6480  -19.6610 C.ar  202  TYR202      0.0417
     87  CE2       -6.7900  -22.1270  -19.4270 C.ar  202  TYR202      0.0417
     88  CZ        -5.8660  -21.2770  -18.8750 C.ar  202  TYR202      0.1957
     89  OH        -5.8560  -21.0380  -17.5200 O.3   202  TYR202     -0.2866
     90  N         -4.0660  -22.7100  -27.2010 N.3   205  THR205     -0.1203
     91  CA        -4.2360  -24.1400  -27.3230 C.3   205  THR205      0.1994
     92  C         -5.4260  -24.5280  -28.2160 C.2   205  THR205      0.2617
     93  O         -5.3090  -25.4010  -29.0690 O.2   205  THR205     -0.2717
     94  CB        -4.4070  -24.7850  -25.9360 C.3   205  THR205      0.1784
     95  OG1       -3.2550  -24.4830  -25.1310 O.3   205  THR205     -0.2211
     96  CG2       -4.5760  -26.3030  -26.0510 C.3   205  THR205      0.0376
     97  N         -6.5810  -23.8960  -28.0030 N.am  206  HIS206     -0.1975
     98  CA        -7.8120  -24.2670  -28.6970 C.3   206  HIS206      0.1656
     99  C         -8.1990  -23.2660  -29.7560 C.2   206  HIS206      0.2291
    100  O         -7.9710  -22.0750  -29.6260 O.2   206  HIS206     -0.2864
    101  CB        -8.9470  -24.4010  -27.6790 C.3   206  HIS206      0.0771
    102  CG        -8.5920  -25.2650  -26.5160 C.ar  206  HIS206      0.0820
    103  ND1       -8.3280  -24.7520  -25.2690 N.ar  206  HIS206     -0.2267
    104  CD2       -8.4390  -26.6030  -26.4090 C.ar  206  HIS206      0.1154
    105  CE1       -8.0330  -25.7350  -24.4410 C.ar  206  HIS206      0.1986
    106  NE2       -8.0860  -26.8710  -25.1150 N.ar  206  HIS206     -0.2212
    107  N        -14.6470  -19.7600  -17.8130 N.3   228  GLU228     -0.1245
    108  CA       -13.1900  -19.6640  -17.6630 C.3   228  GLU228      0.1567
    109  C        -12.4800  -19.7220  -19.0020 C.2   228  GLU228      0.2260
    110  O        -12.6980  -20.6530  -19.7760 O.2   228  GLU228     -0.2867
    111  CB       -12.6590  -20.8080  -16.7800 C.3   228  GLU228      0.0388
    112  CG       -11.2320  -20.6080  -16.2930 C.3   228  GLU228      0.1160
    113  CD       -10.7070  -21.7320  -15.4260 C.2   228  GLU228      0.3649
    114  OE1      -11.3190  -22.0100  -14.3740 O.co2 228  GLU228     -0.2457
    115  OE2       -9.6400  -22.2970  -15.7770 O.co2 228  GLU228     -0.2457
    116  N         -2.2790  -23.8550  -22.6430 N.3   234  ALA234     -0.1245
    117  CA        -2.7310  -24.7180  -21.5540 C.3   234  ALA234      0.1562
    118  C         -1.6360  -24.9150  -20.5010 C.2   234  ALA234      0.2260
    119  O         -1.9250  -24.9240  -19.3020 O.2   234  ALA234     -0.2867
    120  CB        -3.2010  -26.0640  -22.1050 C.3   234  ALA234      0.0290
    121  N         -9.5240  -15.9130  -16.8300 N.3   262  TRP262     -0.1241
    122  CA        -8.7160  -16.4240  -15.7340 C.3   262  TRP262      0.1605
    123  C         -7.3140  -15.8330  -15.8730 C.2   262  TRP262      0.2264
    124  O         -6.7140  -16.0450  -16.9130 O.2   262  TRP262     -0.2867
    125  CB        -8.6380  -17.9490  -15.8390 C.3   262  TRP262      0.0550
    126  CG        -7.8060  -18.6270  -14.7960 C.ar  262  TRP262      0.0003
    127  CD1       -6.4680  -18.8420  -14.8300 C.ar  262  TRP262      0.0946
    128  CD2       -8.2770  -19.2140  -13.5840 C.ar  262  TRP262      0.0152
    129  NE1       -6.0560  -19.4980  -13.6890 N.ar  262  TRP262     -0.2442
    130  CE2       -7.1560  -19.7410  -12.9100 C.ar  262  TRP262      0.0810
    131  CE3       -9.5340  -19.3310  -12.9910 C.ar  262  TRP262      0.0012
    132  CZ2       -7.2660  -20.4050  -11.6920 C.ar  262  TRP262      0.0191
    133  CZ3       -9.6300  -19.9780  -11.7750 C.ar  262  TRP262      0.0001
    134  CH2       -8.5090  -20.5020  -11.1450 C.ar  262  TRP262      0.0015
@<TRIPOS>BOND
     1    99   100    2
     2    99    98    1
     3    93    92    2
     4    98    97    1
     5    98   101    1
     6    92    97   am
     7    92    91    1
     8   101   102    1
     9    91    90    1
    10    91    94    1
    11   102   104   ar
    12   102   103   ar
    13   104   106   ar
    14    81    80    2
    15    96    94    1
    16    94    95    1
    17    72    71    2
    18   103   105   ar
    19    80    79    1
    20   106   105   ar
    21    77    75   am
    22    71    70    1
    23    73    74    1
    24    73    70    1
    25    75    74    1
    26    75    76    2
    27    78    79    1
    28    79    82    1
    29    70    69    1
    30    82    83    1
    31    54    52    1
    32    53    52    1
    33   116   117    1
    34    52    49    1
    35   120   117    1
    36    83    84   ar
    37    83    85   ar
    38    51    50    2
    39   117   118    1
    40    49    50    1
    41    49    48    1
    42    84    86   ar
    43    85    87   ar
    44    50    55   am
    45    67    65   ar
    46    67    68   ar
    47   118   119    2
    48    65    62   ar
    49    58    57    2
    50   110   109    2
    51    86    88   ar
    52    68    66   ar
    53    57    56    1
    54    87    88   ar
    55    55    56    1
    56    59    56    1
    57    59    60    1
    58    62    60   ar
    59    62    64   ar
    60   109   108    1
    61    88    89    1
    62    60    61   ar
    63    66    64   ar
    64    64    63   ar
    65   107   108    1
    66   108   111    1
    67    47    45   ar
    68    61    63   ar
    69   124   123    2
    70   121   122    1
    71   111   112    1
    72    45    44    1
    73    45    46   ar
    74   112   113    1
    75    44    43    1
    76   123   122    1
    77   125   122    1
    78   125   126    1
    79   115   113   ar
    80   113   114   ar
    81    43    40    1
    82    34    33    2
    83    40    41    1
    84    40    39    1
    85   127   126   ar
    86   127   129   ar
    87   126   128   ar
    88    41    42    2
    89    33    39   am
    90    33    32    1
    91    37    36    2
    92   129   130   ar
    93   128   131   ar
    94   128   130   ar
    95    29    28    1
    96   131   133   ar
    97    36    38   am
    98    36    35    1
    99   130   132   ar
   100    32    35    1
   101    32    31    1
   102    28    30    1
   103    28    27    1
   104   133   134   ar
   105   132   134   ar
   106    26    25    2
   107    21    22   ar
   108    21    19   ar
   109    24    27    1
   110    24    25    1
   111    24    23    1
   112    22    20   ar
   113    19    18   ar
   114    20    18   ar
   115    12    11    1
   116    18    17    1
   117    14    15    1
   118    14    17    1
   119    14    13    1
   120    11    10   ar
   121    11     9   ar
   122    15    16    2
   123    10     8   ar
   124     9     7   ar
   125     8     6   ar
   126     7     6   ar
   127     6     5    1
   128     2     5    1
   129     2     1    1
   130     2     3    1
   131     3     4    2
