@<TRIPOS>MOLECULE
tmp/4y00C00.pdb
 153 150 0 0 0
SMALL
GASTEIGER

@<TRIPOS>ATOM
      1  N       -105.9870   51.9290  183.2760 N.3     5  ILE5       -0.1245
      2  CA      -106.3590   50.9330  182.2840 C.3     5  ILE5        0.1561
      3  C       -106.1460   49.5480  182.8750 C.2     5  ILE5        0.2260
      4  O       -105.2790   49.3510  183.7250 O.2     5  ILE5       -0.2867
      5  CB      -105.5380   51.0720  180.9870 C.3     5  ILE5        0.0252
      6  CG1     -106.0300   50.0590  179.9520 C.3     5  ILE5        0.0019
      7  CG2     -104.0500   50.8800  181.2590 C.3     5  ILE5        0.0019
      8  CD1     -105.3300   50.1470  178.6240 C.3     5  ILE5        0.0001
      9  N       -105.5560   45.7030  181.6350 N.3     7  LEU7       -0.1231
     10  CA      -105.3100   44.7030  180.6040 C.3     7  LEU7        0.1693
     11  C       -105.4770   43.3010  181.1710 C.2     7  LEU7        0.2593
     12  O       -105.3620   43.0950  182.3780 O.2     7  LEU7       -0.2718
     13  CB      -103.8970   44.8550  180.0350 C.3     7  LEU7        0.0284
     14  CG      -103.5730   46.1410  179.2660 C.3     7  LEU7        0.0019
     15  CD1     -104.8340   46.7820  178.7000 C.3     7  LEU7        0.0001
     16  CD2     -102.8030   47.1230  180.1390 C.3     7  LEU7        0.0001
     17  N       -105.7500   42.3400  180.2950 N.am    8  GLY8       -0.1942
     18  CA      -105.7900   40.9430  180.6830 C.3     8  GLY8        0.2014
     19  C       -107.1520   40.4650  181.1490 C.2     8  GLY8        0.2639
     20  O       -107.2610   39.4050  181.7650 O.2     8  GLY8       -0.2714
     21  N       -108.1930   41.2390  180.8580 N.am    9  LEU9       -0.1963
     22  CA      -109.5470   40.8770  181.2680 C.3     9  LEU9        0.1713
     23  C       -110.0840   39.6850  180.4830 C.2     9  LEU9        0.2458
     24  O       -110.1720   39.7350  179.2550 O.2     9  LEU9       -0.2730
     25  CB      -110.5010   42.0570  181.0870 C.3     9  LEU9        0.0310
     26  CG      -110.3170   43.2500  182.0230 C.3     9  LEU9        0.0022
     27  CD1     -111.4750   44.2200  181.8440 C.3     9  LEU9        0.0001
     28  CD2     -110.2000   42.8040  183.4750 C.3     9  LEU9        0.0001
     29  N       -110.4450   38.6030  181.1890 N.am   10  PRO10      -0.2716
     30  CA      -111.1270   37.4960  180.5150 C.3    10  PRO10       0.1536
     31  C       -112.3310   38.0020  179.7270 C.2    10  PRO10       0.2598
     32  O       -112.9930   38.9440  180.1620 O.2    10  PRO10      -0.2715
     33  CB      -111.5660   36.6030  181.6750 C.3    10  PRO10       0.0310
     34  CG      -110.5560   36.8590  182.7400 C.3    10  PRO10       0.0237
     35  CD      -110.1760   38.3060  182.6070 C.3    10  PRO10       0.0939
     36  N       -112.6000   37.3880  178.5790 N.am   11  TRP11      -0.1974
     37  CA      -113.6730   37.8380  177.7000 C.3    11  TRP11       0.1640
     38  C       -115.0230   37.8140  178.4130 C.2    11  TRP11       0.2290
     39  O       -115.9580   38.5050  178.0110 O.2    11  TRP11      -0.2864
     40  CB      -113.7370   36.9620  176.4450 C.3    11  TRP11       0.0576
     41  CG      -112.3950   36.6810  175.8260 C.ar   11  TRP11       0.0006
     42  CD1     -111.7550   35.4790  175.7720 C.ar   11  TRP11       0.0946
     43  CD2     -111.5290   37.6240  175.1830 C.ar   11  TRP11       0.0152
     44  NE1     -110.5480   35.6110  175.1310 N.ar   11  TRP11      -0.2442
     45  CE2     -110.3850   36.9180  174.7600 C.ar   11  TRP11       0.0810
     46  CE3     -111.6090   38.9940  174.9210 C.ar   11  TRP11       0.0012
     47  CZ2     -109.3320   37.5360  174.0920 C.ar   11  TRP11       0.0191
     48  CZ3     -110.5620   39.6040  174.2580 C.ar   11  TRP11       0.0001
     49  CH2     -109.4390   38.8760  173.8510 C.ar   11  TRP11       0.0015
     50  N       -115.5160   50.5490  183.1840 N.3    32  GLN32      -0.1245
     51  CA      -116.0300   50.2060  181.8700 C.3    32  GLN32       0.1566
     52  C       -115.1810   49.1360  181.2060 C.2    32  GLN32       0.2260
     53  O       -113.9540   49.2240  181.1830 O.2    32  GLN32      -0.2867
     54  CB      -116.0910   51.4470  180.9770 C.3    32  GLN32       0.0367
     55  CG      -114.7530   52.1330  180.7650 C.3    32  GLN32       0.0905
     56  CD      -114.8400   53.2740  179.7710 C.2    32  GLN32       0.2608
     57  OE1     -115.6420   53.2380  178.8380 O.2    32  GLN32      -0.2717
     58  NE2     -114.0170   54.2970  179.9680 N.am   32  GLN32      -0.0878
     59  N       -114.2910   47.4920  177.6760 N.3    34  LYS34      -0.1245
     60  CA      -114.3610   47.9040  176.2820 C.3    34  LYS34       0.1561
     61  C       -114.8680   46.7850  175.3820 C.2    34  LYS34       0.2260
     62  O       -114.5080   45.6220  175.5510 O.2    34  LYS34      -0.2867
     63  CB      -113.0010   48.4150  175.8090 C.3    34  LYS34       0.0271
     64  CG      -112.6510   49.7820  176.3740 C.3    34  LYS34       0.0035
     65  CD      -113.6590   50.8340  175.9270 C.3    34  LYS34       0.0206
     66  CE      -113.3990   52.1830  176.5700 C.3    34  LYS34       0.1093
     67  NZ      -114.4360   53.1760  176.1750 N.3    34  LYS34      -0.1314
     68  N       -112.5270   43.3140  174.2730 N.3    43  LYS43      -0.1231
     69  CA      -111.2060   43.5160  173.6960 C.3    43  LYS43       0.1693
     70  C       -110.1390   42.9750  174.6410 C.2    43  LYS43       0.2593
     71  O       -108.9520   42.9670  174.3160 O.2    43  LYS43      -0.2718
     72  CB      -110.9680   45.0020  173.4350 C.3    43  LYS43       0.0285
     73  CG      -111.9720   45.6260  172.4790 C.3    43  LYS43       0.0035
     74  CD      -111.6990   47.1080  172.2820 C.3    43  LYS43       0.0206
     75  CE      -112.7150   47.7530  171.3510 C.3    43  LYS43       0.1093
     76  NZ      -112.4740   49.2140  171.1950 N.3    43  LYS43      -0.1314
     77  N       -110.5730   42.5240  175.8140 N.am   44  GLY44      -0.1942
     78  CA      -109.6770   41.9250  176.7840 C.3    44  GLY44       0.2014
     79  C       -109.1000   42.9300  177.7620 C.2    44  GLY44       0.2638
     80  O       -108.0580   42.6870  178.3690 O.2    44  GLY44      -0.2714
     81  N       -109.7800   44.0610  177.9190 N.am   45  PHE45      -0.1973
     82  CA      -109.3260   45.0990  178.8340 C.3    45  PHE45       0.1639
     83  C       -110.4470   46.0850  179.1370 C.2    45  PHE45       0.2290
     84  O       -111.5630   45.9400  178.6410 O.2    45  PHE45      -0.2864
     85  CB      -108.1310   45.8450  178.2420 C.3    45  PHE45       0.0560
     86  CG      -108.4820   46.7280  177.0800 C.ar   45  PHE45      -0.0200
     87  CD1     -108.9060   48.0270  177.2880 C.ar   45  PHE45      -0.0042
     88  CD2     -108.3910   46.2600  175.7810 C.ar   45  PHE45      -0.0042
     89  CE1     -109.2320   48.8410  176.2220 C.ar   45  PHE45      -0.0003
     90  CE2     -108.7160   47.0720  174.7140 C.ar   45  PHE45      -0.0003
     91  CZ      -109.1360   48.3620  174.9360 C.ar   45  PHE45      -0.0000
     92  N       -111.3200   49.9160  181.9080 N.3    47  PHE47      -0.1241
     93  CA      -110.8530   51.0660  182.6710 C.3    47  PHE47       0.1605
     94  C       -111.5690   51.1730  184.0070 C.2    47  PHE47       0.2264
     95  O       -112.6010   50.5410  184.2250 O.2    47  PHE47      -0.2867
     96  CB      -111.0580   52.3510  181.8710 C.3    47  PHE47       0.0534
     97  CG      -110.1880   52.4480  180.6530 C.ar   47  PHE47      -0.0203
     98  CD1     -110.5650   51.8420  179.4680 C.ar   47  PHE47      -0.0042
     99  CD2     -108.9920   53.1430  180.6920 C.ar   47  PHE47      -0.0042
    100  CE1     -109.7670   51.9270  178.3470 C.ar   47  PHE47      -0.0003
    101  CE2     -108.1900   53.2310  179.5710 C.ar   47  PHE47      -0.0003
    102  CZ      -108.5790   52.6230  178.3990 C.ar   47  PHE47      -0.0000
    103  N       -107.5880   34.9360  186.1610 N.3    69  ARG69      -0.1245
    104  CA      -106.3370   35.3600  185.5340 C.3    69  ARG69       0.1563
    105  C       -105.7230   36.5280  186.2960 C.2    69  ARG69       0.2260
    106  O       -106.4070   37.2100  187.0560 O.2    69  ARG69      -0.2867
    107  CB      -106.5690   35.7690  184.0780 C.3    69  ARG69       0.0307
    108  CG      -106.7740   34.6070  183.1150 C.3    69  ARG69       0.0489
    109  CD      -107.0470   35.1000  181.6980 C.3    69  ARG69       0.2205
    110  NE      -105.9410   35.8980  181.1730 N.pl3  69  ARG69      -0.0865
    111  CZ      -104.9800   35.4430  180.3730 C.cat  69  ARG69       0.5346
    112  NH1     -104.9590   34.1780  179.9740 N.pl3  69  ARG69       0.1354
    113  NH2     -104.0290   36.2680  179.9640 N.pl3  69  ARG69       0.1354
    114  N       -102.6640   43.4410  185.0900 N.3    72  ASP72      -0.1239
    115  CA      -101.8910   44.6100  185.4740 C.3    72  ASP72       0.1674
    116  C       -102.7420   45.8650  185.3460 C.2    72  ASP72       0.2266
    117  O       -103.3090   46.1350  184.2870 O.2    72  ASP72      -0.2867
    118  CB      -100.6570   44.7480  184.5810 C.3    72  ASP72       0.1410
    119  CG       -99.8510   43.4690  184.4950 C.2    72  ASP72       0.3668
    120  OD1     -100.1400   42.6370  183.6090 O.co2  72  ASP72      -0.2456
    121  OD2      -98.9270   43.2930  185.3170 O.co2  72  ASP72      -0.2456
    122  N       -102.5830   49.8920  185.3790 N.3    74  LYS74      -0.1231
    123  CA      -101.5840   50.9350  185.1840 C.3    74  LYS74       0.1693
    124  C       -102.2000   52.1940  184.5940 C.2    74  LYS74       0.2592
    125  O       -103.3110   52.1670  184.0670 O.2    74  LYS74      -0.2718
    126  CB      -100.4830   50.4380  184.2470 C.3    74  LYS74       0.0285
    127  CG      -100.9360   50.2730  182.8030 C.3    74  LYS74       0.0035
    128  CD       -99.7800   49.9190  181.8840 C.3    74  LYS74       0.0206
    129  CE       -99.3180   48.4870  182.0920 C.3    74  LYS74       0.1093
    130  NZ       -98.3150   48.0730  181.0760 N.3    74  LYS74      -0.1314
    131  N       -101.4710   53.2990  184.6880 N.am   75  LEU75      -0.1966
    132  CA      -101.9050   54.5450  184.0750 C.3    75  LEU75       0.1713
    133  C       -101.6540   54.5000  182.5700 C.2    75  LEU75       0.2458
    134  O       -100.5570   54.1600  182.1280 O.2    75  LEU75      -0.2730
    135  CB      -101.1880   55.7370  184.7110 C.3    75  LEU75       0.0310
    136  CG      -101.8330   56.2620  185.9960 C.3    75  LEU75       0.0022
    137  CD1     -100.9430   57.3010  186.6580 C.3    75  LEU75       0.0001
    138  CD2     -103.2120   56.8410  185.7020 C.3    75  LEU75       0.0001
    139  N       -102.6800   54.8420  181.7780 N.am   76  PRO76      -0.2716
    140  CA      -102.6170   54.7370  180.3170 C.3    76  PRO76       0.1536
    141  C       -101.7060   55.7880  179.6870 C.2    76  PRO76       0.2598
    142  O       -100.9460   56.4480  180.3940 O.2    76  PRO76      -0.2715
    143  CB      -104.0690   54.9580  179.8930 C.3    76  PRO76       0.0310
    144  CG      -104.6410   55.8150  180.9590 C.3    76  PRO76       0.0237
    145  CD      -103.9590   55.4120  182.2350 C.3    76  PRO76       0.0939
    146  N       -101.7890   55.9330  178.3680 N.am   77  ASN77      -0.1973
    147  CA      -100.9570   56.8860  177.6390 C.3    77  ASN77       0.1688
    148  C       -101.7830   58.0480  177.0900 C.2    77  ASN77       0.2292
    149  O       -102.2890   57.9940  175.9690 O.2    77  ASN77      -0.2864
    150  CB      -100.2120   56.1840  176.4980 C.3    77  ASN77       0.1181
    151  CG      -100.4710   54.6900  176.4640 C.2    77  ASN77       0.2629
    152  OD1     -101.6010   54.2430  176.6590 O.2    77  ASN77      -0.2716
    153  ND2      -99.4220   53.9080  176.2300 N.am   77  ASN77      -0.0877
@<TRIPOS>BOND
     1    76    75    1
     2    75    74    1
     3    74    73    1
     4    73    72    1
     5    72    69    1
     6    69    68    1
     7    69    70    1
     8    49    47   ar
     9    49    48   ar
    10    47    45   ar
    11    48    46   ar
    12    71    70    2
    13    70    77   am
    14    90    91   ar
    15    90    88   ar
    16    45    44   ar
    17    45    43   ar
    18    46    43   ar
    19    91    89   ar
    20    44    42   ar
    21    43    41   ar
    22    61    62    2
    23    61    60    1
    24    42    41   ar
    25    88    86   ar
    26    63    60    1
    27    63    64    1
    28    77    78    1
    29    41    40    1
    30    65    64    1
    31    65    66    1
    32   149   148    2
    33    67    66    1
    34    89    87   ar
    35   153   151   am
    36    60    59    1
    37    40    37    1
    38   151   150    1
    39   151   152    2
    40   150   147    1
    41    78    79    1
    42    86    87   ar
    43    86    85    1
    44   148   147    1
    45   147   146    1
    46    37    38    1
    47    37    36    1
    48    79    81   am
    49    79    80    2
    50    81    82    1
    51    39    38    2
    52    85    82    1
    53   100   102   ar
    54   100    98   ar
    55   146   141   am
    56   102   101   ar
    57    36    31   am
    58     8     6    1
    59    84    83    2
    60    15    14    1
    61    82    83    1
    62    57    56    2
    63    24    23    2
    64    14    13    1
    65    14    16    1
    66    98    97   ar
    67   101    99   ar
    68   141   140    1
    69   141   142    2
    70    31    32    2
    71    31    30    1
    72    56    58   am
    73    56    55    1
    74   143   140    1
    75   143   144    1
    76     6     5    1
    77   113   111    1
    78   112   111    1
    79    13    10    1
    80    17    18    1
    81    17    11   am
    82   140   139    1
    83   111   110    2
    84    23    29   am
    85    23    22    1
    86    30    29    1
    87    30    33    1
    88    10    11    1
    89    10     9    1
    90    97    99   ar
    91    97    96    1
    92    18    19    1
    93    55    54    1
    94    21    19   am
    95    21    22    1
    96   144   145    1
    97    54    51    1
    98     5     7    1
    99     5     2    1
   100   130   129    1
   101    25    22    1
   102    25    26    1
   103    19    20    2
   104    11    12    2
   105   110   109    1
   106    53    52    2
   107    29    35    1
   108    52    51    1
   109    33    34    1
   110   109   108    1
   111   139   145    1
   112   139   133   am
   113    27    26    1
   114    51    50    1
   115    96    93    1
   116   128   129    1
   117   128   127    1
   118    92    93    1
   119    26    28    1
   120   134   133    2
   121     2     3    1
   122     2     1    1
   123   133   132    1
   124    35    34    1
   125    93    94    1
   126   127   126    1
   127     3     4    2
   128   108   107    1
   129   120   119   ar
   130    94    95    2
   131   125   124    2
   132   132   131    1
   133   132   135    1
   134   107   104    1
   135   126   123    1
   136   117   116    2
   137   119   118    1
   138   119   121   ar
   139   118   115    1
   140   124   131   am
   141   124   123    1
   142   135   136    1
   143   114   115    1
   144   123   122    1
   145   116   115    1
   146   104   103    1
   147   104   105    1
   148   138   136    1
   149   136   137    1
   150   105   106    2
