@<TRIPOS>MOLECULE
tmp/4y03B00.pdb
 111 106 0 0 0
SMALL
GASTEIGER

@<TRIPOS>ATOM
      1  N        -11.9220   15.0160  -23.9000 N.3    32  ILE32      -0.1231
      2  CA       -11.0320   15.5390  -24.9630 C.3    32  ILE32       0.1692
      3  C        -11.0680   17.0620  -25.1000 C.2    32  ILE32       0.2592
      4  O        -10.2410   17.6330  -25.7860 O.2    32  ILE32      -0.2718
      5  CB       -11.2610   14.8620  -26.3490 C.3    32  ILE32       0.0266
      6  CG1      -12.3080   15.5950  -27.1980 C.3    32  ILE32       0.0019
      7  CG2      -11.6110   13.4010  -26.1870 C.3    32  ILE32       0.0020
      8  CD1      -13.6980   15.4880  -26.7000 C.3    32  ILE32       0.0001
      9  N        -11.9880   17.7370  -24.4170 N.am   33  PHE33      -0.1976
     10  CA       -12.0350   19.2170  -24.4620 C.3    33  PHE33       0.1639
     11  C        -11.1670   19.8630  -23.3540 C.2    33  PHE33       0.2290
     12  O        -10.9820   21.0660  -23.3220 O.2    33  PHE33      -0.2864
     13  CB       -13.4930   19.7190  -24.3550 C.3    33  PHE33       0.0560
     14  CG       -14.4070   19.2540  -25.4970 C.ar   33  PHE33      -0.0200
     15  CD1      -14.5190   19.9890  -26.6520 C.ar   33  PHE33      -0.0042
     16  CD2      -15.1370   18.0860  -25.3900 C.ar   33  PHE33      -0.0042
     17  CE1      -15.3250   19.5620  -27.7220 C.ar   33  PHE33      -0.0003
     18  CE2      -15.9570   17.6450  -26.4520 C.ar   33  PHE33      -0.0003
     19  CZ       -16.0360   18.3880  -27.6180 C.ar   33  PHE33      -0.0000
     20  N         -6.3960   21.2050  -25.3970 N.3    36  LEU36      -0.1231
     21  CA        -6.1410   21.1840  -26.8190 C.3    36  LEU36       0.1678
     22  C         -4.7400   20.6510  -27.0460 C.2    36  LEU36       0.2434
     23  O         -3.8230   21.0020  -26.2930 O.2    36  LEU36      -0.2733
     24  CB        -6.2200   22.6080  -27.3540 C.3    36  LEU36       0.0284
     25  CG        -6.5980   22.8660  -28.7880 C.3    36  LEU36       0.0019
     26  CD1       -7.8660   22.0780  -29.1880 C.3    36  LEU36       0.0001
     27  CD2       -6.7720   24.3570  -28.9140 C.3    36  LEU36       0.0001
     28  N         -4.5760   19.7650  -28.0440 N.am   37  PRO37      -0.2729
     29  CA        -3.2310   19.3870  -28.4710 C.3    37  PRO37       0.1401
     30  C         -2.4300   20.5290  -29.0940 C.2    37  PRO37       0.2269
     31  O         -2.9600   21.6110  -29.3470 O.2    37  PRO37      -0.2865
     32  CB        -3.4970   18.2700  -29.4630 C.3    37  PRO37       0.0296
     33  CG        -4.7430   17.6090  -28.9220 C.3    37  PRO37       0.0237
     34  CD        -5.5760   18.7650  -28.4620 C.3    37  PRO37       0.0939
     35  N         -1.0330   18.9940  -34.0410 N.3    42  LEU42      -0.1245
     36  CA        -1.9370   19.3090  -35.1570 C.3    42  LEU42       0.1561
     37  C         -1.7730   20.8050  -35.5670 C.2    42  LEU42       0.2260
     38  O         -2.6290   21.6670  -35.2930 O.2    42  LEU42      -0.2867
     39  CB        -3.3870   18.8480  -34.9030 C.3    42  LEU42       0.0270
     40  CG        -4.3110   19.4210  -33.8240 C.3    42  LEU42       0.0019
     41  CD1       -5.1600   18.3010  -33.2110 C.3    42  LEU42       0.0001
     42  CD2       -3.5820   20.1910  -32.7460 C.3    42  LEU42       0.0001
     43  N         -4.6380   22.9280  -37.2220 N.3    45  TYR45      -0.1241
     44  CA        -5.6420   23.4990  -36.3330 C.3    45  TYR45       0.1605
     45  C         -5.3840   24.9950  -36.0670 C.2    45  TYR45       0.2264
     46  O         -6.2680   25.8620  -36.1930 O.2    45  TYR45      -0.2867
     47  CB        -5.6150   22.7380  -34.9950 C.3    45  TYR45       0.0534
     48  CG        -6.8300   22.9960  -34.1110 C.ar   45  TYR45      -0.0201
     49  CD1       -7.9380   22.1560  -34.1580 C.ar   45  TYR45      -0.0009
     50  CD2       -6.8740   24.0900  -33.2590 C.ar   45  TYR45      -0.0009
     51  CE1       -9.0690   22.3870  -33.3240 C.ar   45  TYR45       0.0417
     52  CE2       -7.9970   24.3340  -32.4370 C.ar   45  TYR45       0.0417
     53  CZ        -9.0810   23.4860  -32.4730 C.ar   45  TYR45       0.1957
     54  OH       -10.1780   23.7520  -31.6610 O.3    45  TYR45      -0.2866
     55  N         -9.4640   27.4500  -27.9060 N.3    53  MET53      -0.1230
     56  CA       -10.0480   27.4500  -26.5910 C.3    53  MET53       0.1702
     57  C        -10.1180   26.0020  -26.0950 C.2    53  MET53       0.2592
     58  O        -10.4180   25.0580  -26.8590 O.2    53  MET53      -0.2718
     59  CB       -11.4410   28.0950  -26.6540 C.3    53  MET53       0.0401
     60  CG       -12.1160   28.2810  -25.2450 C.3    53  MET53       0.0596
     61  SD       -11.0970   29.2670  -24.1590 S.3    53  MET53      -0.1393
     62  CE       -11.1750   30.8440  -25.0300 C.3    53  MET53       0.0692
     63  N         -9.8040   25.8210  -24.8200 N.am   54  ASP54      -0.1974
     64  CA       -10.0220   24.5370  -24.1520 C.3    54  ASP54       0.1709
     65  C        -10.5160   24.7810  -22.6980 C.2    54  ASP54       0.2293
     66  O        -10.5820   25.8980  -22.2210 O.2    54  ASP54      -0.2864
     67  CB        -8.7920   23.5660  -24.2440 C.3    54  ASP54       0.1436
     68  CG        -7.4960   24.1300  -23.6700 C.2    54  ASP54       0.3671
     69  OD1       -7.5960   24.9670  -22.7880 O.co2  54  ASP54      -0.2456
     70  OD2       -6.3810   23.7060  -24.1210 O.co2  54  ASP54      -0.2456
     71  N        -15.3080   27.4080  -27.9950 N.3    80  MET80      -0.1245
     72  CA       -14.7300   26.0560  -28.0020 C.3    80  MET80       0.1570
     73  C        -15.5010   25.0690  -28.8510 C.2    80  MET80       0.2261
     74  O        -14.9070   24.3250  -29.6830 O.2    80  MET80      -0.2867
     75  CB       -14.6490   25.5000  -26.5730 C.3    80  MET80       0.0387
     76  CG       -13.8080   24.2410  -26.4270 C.3    80  MET80       0.0595
     77  SD       -13.5940   23.6530  -24.7120 S.3    80  MET80      -0.1393
     78  CE       -15.2660   23.1610  -24.2710 C.3    80  MET80       0.0692
     79  N        -14.5710   23.1580  -32.4110 N.3    84  ALA84      -0.1245
     80  CA       -14.6040   21.7090  -32.5670 C.3    84  ALA84       0.1562
     81  C        -15.4700   21.3560  -33.7880 C.2    84  ALA84       0.2260
     82  O        -15.1500   20.4790  -34.5940 O.2    84  ALA84      -0.2867
     83  CB       -15.1340   21.0370  -31.2840 C.3    84  ALA84       0.0290
     84  N        -13.4540   22.3930  -37.1180 N.3    87  TYR87      -0.1227
     85  CA       -12.2930   21.5910  -37.5050 C.3    87  TYR87       0.1736
     86  C        -12.6570   20.1700  -37.8230 C.2    87  TYR87       0.2595
     87  O        -12.0300   19.5590  -38.6670 O.2    87  TYR87      -0.2718
     88  CB       -11.2590   21.5710  -36.3780 C.3    87  TYR87       0.0548
     89  CG        -9.9600   20.8260  -36.6750 C.ar   87  TYR87      -0.0200
     90  CD1       -9.7020   19.5670  -36.1120 C.ar   87  TYR87      -0.0009
     91  CD2       -8.9660   21.4060  -37.4750 C.ar   87  TYR87      -0.0009
     92  CE1       -8.5150   18.9020  -36.3520 C.ar   87  TYR87       0.0417
     93  CE2       -7.7650   20.7380  -37.7230 C.ar   87  TYR87       0.0417
     94  CZ        -7.5530   19.4900  -37.1640 C.ar   87  TYR87       0.1957
     95  OH        -6.3790   18.8300  -37.3590 O.3    87  TYR87      -0.2866
     96  N        -13.6570   19.6350  -37.1250 N.am   88  ASN88      -0.1974
     97  CA       -14.0620   18.2560  -37.3000 C.3    88  ASN88       0.1688
     98  C        -15.3560   18.1990  -38.1260 C.2    88  ASN88       0.2292
     99  O        -16.0820   19.2050  -38.1950 O.2    88  ASN88      -0.2864
    100  CB       -14.2620   17.6130  -35.9260 C.3    88  ASN88       0.1181
    101  CG       -13.0680   17.8130  -35.0310 C.2    88  ASN88       0.2629
    102  OD1      -12.1980   16.9580  -34.9860 O.2    88  ASN88      -0.2716
    103  ND2      -12.9820   18.9700  -34.3710 N.am   88  ASN88      -0.0877
    104  N        -16.3760   13.9560  -31.8010 N.3    94  ILE94      -0.1245
    105  CA       -16.0480   15.2390  -31.1720 C.3    94  ILE94       0.1561
    106  C        -17.0570   16.3120  -31.5300 C.2    94  ILE94       0.2260
    107  O        -17.4590   17.1200  -30.7050 O.2    94  ILE94      -0.2867
    108  CB       -14.5950   15.7070  -31.5150 C.3    94  ILE94       0.0252
    109  CG1      -14.3010   17.0540  -30.8640 C.3    94  ILE94       0.0019
    110  CG2      -14.3720   15.7890  -32.9960 C.3    94  ILE94       0.0019
    111  CD1      -12.8170   17.3250  -30.7430 C.3    94  ILE94       0.0001
@<TRIPOS>BOND
     1    87    86    2
     2    99    98    2
     3    98    97    1
     4    86    85    1
     5    86    96   am
     6    93    91   ar
     7    93    94   ar
     8    85    84    1
     9    85    88    1
    10    91    89   ar
    11    95    94    1
    12    97    96    1
    13    97   100    1
    14    43    44    1
    15    94    92   ar
    16    89    88    1
    17    89    90   ar
    18    92    90   ar
    19    44    45    1
    20    44    47    1
    21    46    45    2
    22   100   101    1
    23    37    38    2
    24    37    36    1
    25    36    39    1
    26    36    35    1
    27   101   102    2
    28   101   103   am
    29    47    48    1
    30    39    40    1
    31    82    81    2
    32    49    48   ar
    33    49    51   ar
    34    48    50   ar
    35    40    41    1
    36    40    42    1
    37    81    80    1
    38    51    53   ar
    39    50    52   ar
    40   110   108    1
    41    80    79    1
    42    80    83    1
    43    53    52   ar
    44    53    54    1
    45   104   105    1
    46   106   105    1
    47   106   107    2
    48   108   105    1
    49   108   109    1
    50   109   111    1
    51    74    73    2
    52    32    33    1
    53    32    29    1
    54    31    30    2
    55    26    25    1
    56    30    29    1
    57    33    34    1
    58    27    25    1
    59    73    72    1
    60    25    24    1
    61    29    28    1
    62    34    28    1
    63    28    22   am
    64    72    71    1
    65    72    75    1
    66    55    56    1
    67    17    19   ar
    68    17    15   ar
    69    19    18   ar
    70    24    21    1
    71     6     8    1
    72     6     5    1
    73    22    21    1
    74    22    23    2
    75    58    57    2
    76    21    20    1
    77    59    56    1
    78    59    60    1
    79    15    14   ar
    80    56    57    1
    81    75    76    1
    82    18    16   ar
    83    76    77    1
    84     5     7    1
    85     5     2    1
    86    57    63   am
    87     4     3    2
    88    14    16   ar
    89    14    13    1
    90    60    61    1
    91     3     2    1
    92     3     9   am
    93    62    61    1
    94     2     1    1
    95    63    64    1
    96    77    78    1
    97    10     9    1
    98    10    13    1
    99    10    11    1
   100    67    64    1
   101    67    68    1
   102    64    65    1
   103    70    68   ar
   104    68    69   ar
   105    11    12    2
   106    65    66    2
