@<TRIPOS>MOLECULE
tmp/4y05A00.pdb
 121 116 0 0 0
SMALL
GASTEIGER

@<TRIPOS>ATOM
      1  N         12.6680  -15.1140   21.5500 N.3    38  ARG38      -0.1231
      2  CA        13.9710  -14.8160   20.9900 C.3    38  ARG38       0.1694
      3  C         14.1890  -13.3260   20.9320 C.2    38  ARG38       0.2592
      4  O         13.4610  -12.6060   20.2490 O.2    38  ARG38      -0.2718
      5  CB        14.1230  -15.4250   19.5820 C.3    38  ARG38       0.0321
      6  CG        15.5500  -15.3480   19.1200 C.3    38  ARG38       0.0489
      7  CD        15.7060  -15.7530   17.6970 C.3    38  ARG38       0.2205
      8  NE        17.1200  -15.7600   17.3810 N.pl3  38  ARG38      -0.0865
      9  CZ        17.6500  -16.1760   16.2400 C.cat  38  ARG38       0.5346
     10  NH1       16.8790  -16.6370   15.2720 N.pl3  38  ARG38       0.1354
     11  NH2       18.9570  -16.1800   16.0760 N.pl3  38  ARG38       0.1354
     12  N         15.1910  -12.8610   21.6380 N.am   39  LYS39      -0.1966
     13  CA        15.5670  -11.4550   21.6040 C.3    39  LYS39       0.1728
     14  C         16.6470  -11.2770   20.5550 C.2    39  LYS39       0.2616
     15  O         17.6800  -11.9500   20.6050 O.2    39  LYS39      -0.2715
     16  CB        16.1090  -11.0320   22.9730 C.3    39  LYS39       0.0311
     17  CG        16.7330   -9.6510   23.0150 C.3    39  LYS39       0.0038
     18  CD        17.6050   -9.5170   24.2440 C.3    39  LYS39       0.0206
     19  CE        18.2370   -8.1550   24.2990 C.3    39  LYS39       0.1093
     20  NZ        19.1710   -8.0260   25.4340 N.3    39  LYS39      -0.1314
     21  N         16.4250  -10.3740   19.6190 N.am   40  ARG40      -0.1964
     22  CA        17.4720  -10.0220   18.6590 C.3    40  ARG40       0.1714
     23  C         18.3560   -8.8790   19.2460 C.2    40  ARG40       0.2458
     24  O         17.8940   -8.1460   20.1160 O.2    40  ARG40      -0.2730
     25  CB        16.8720   -9.6020   17.3060 C.3    40  ARG40       0.0347
     26  CG        16.1200   -8.2870   17.2970 C.3    40  ARG40       0.0492
     27  CD        16.2010   -7.6680   15.9170 C.3    40  ARG40       0.2205
     28  NE        15.3870   -6.4550   15.8070 N.pl3  40  ARG40      -0.0865
     29  CZ        15.7620   -5.2460   16.2090 C.cat  40  ARG40       0.5346
     30  NH1       16.9490   -5.0630   16.7710 N.pl3  40  ARG40       0.1354
     31  NH2       14.9500   -4.2110   16.0570 N.pl3  40  ARG40       0.1354
     32  N         19.6160   -8.7000   18.8090 N.am   41  PRO41      -0.2727
     33  CA        20.4010   -7.5630   19.3150 C.3    41  PRO41       0.1402
     34  C         19.9640   -6.2290   18.7070 C.2    41  PRO41       0.2269
     35  O         19.3630   -6.1820   17.6400 O.2    41  PRO41      -0.2865
     36  CB        21.8300   -7.8780   18.8410 C.3    41  PRO41       0.0296
     37  CG        21.6950   -8.7960   17.7220 C.3    41  PRO41       0.0237
     38  CD        20.3910   -9.5110   17.8420 C.3    41  PRO41       0.0939
     39  N         20.3680   -3.1500   16.4600 N.3    43  ASN43      -0.1240
     40  CA        21.0940   -2.9250   15.2130 C.3    43  ASN43       0.1653
     41  C         21.9050   -1.6040   15.2960 C.2    43  ASN43       0.2266
     42  O         21.7650   -0.8510   16.2740 O.2    43  ASN43      -0.2867
     43  CB        20.1490   -2.9390   14.0050 C.3    43  ASN43       0.1155
     44  CG        19.0490   -1.9040   14.0420 C.2    43  ASN43       0.2627
     45  OD1       19.2870   -0.7160   14.2640 O.2    43  ASN43      -0.2716
     46  ND2       17.8210   -2.3180   13.7650 N.am   43  ASN43      -0.0877
     47  N         20.3640  -12.5040   22.6860 N.3    85  GLU85      -0.1245
     48  CA        20.9880  -11.9720   21.4850 C.3    85  GLU85       0.1567
     49  C         22.2350  -12.7200   21.0450 C.2    85  GLU85       0.2260
     50  O         22.6790  -12.5180   19.9310 O.2    85  GLU85      -0.2867
     51  CB        21.2220  -10.4590   21.6240 C.3    85  GLU85       0.0388
     52  CG        22.1890  -10.0790   22.7230 C.3    85  GLU85       0.1160
     53  CD        21.6370   -9.7030   24.0880 C.2    85  GLU85       0.3649
     54  OE1       20.9260  -10.5270   24.7070 O.co2  85  GLU85      -0.2457
     55  OE2       22.1410   -8.7000   24.6430 O.co2  85  GLU85      -0.2457
     56  N         22.2910  -16.0770   20.8650 N.3    87  ALA87      -0.1245
     57  CA        21.8040  -17.3170   20.2720 C.3    87  ALA87       0.1562
     58  C         21.7340  -17.2510   18.7550 C.2    87  ALA87       0.2260
     59  O         21.0740  -16.3720   18.1970 O.2    87  ALA87      -0.2867
     60  CB        20.4560  -17.7010   20.8560 C.3    87  ALA87       0.0290
     61  N          6.9590   -6.5780   13.2650 N.3   118  THR118     -0.1203
     62  CA         7.8100   -6.3890   12.0990 C.3   118  THR118      0.1994
     63  C          9.1610   -5.8600   12.5920 C.2   118  THR118      0.2618
     64  O          9.1990   -4.9590   13.4390 O.2   118  THR118     -0.2717
     65  CB         7.1730   -5.4020   11.1270 C.3   118  THR118      0.1784
     66  OG1        5.9380   -5.9630   10.6860 O.3   118  THR118     -0.2211
     67  CG2        8.0630   -5.1040    9.9270 C.3   118  THR118      0.0376
     68  N         10.2380   -6.4390   12.0750 N.am  119  GLY119     -0.1942
     69  CA        11.6000   -6.0780   12.4400 C.3   119  GLY119      0.2014
     70  C         12.1900   -6.8600   13.5950 C.2   119  GLY119      0.2640
     71  O         13.3470   -6.6470   13.9320 O.2   119  GLY119     -0.2714
     72  N         11.4200   -7.7960   14.1950 N.am  120  SER120     -0.1935
     73  CA        11.8180   -8.5770   15.3800 C.3   120  SER120      0.2055
     74  C         12.7450   -9.7810   15.1260 C.2   120  SER120      0.2644
     75  O         13.4540  -10.2250   16.0370 O.2   120  SER120     -0.2714
     76  CB        10.6220   -8.9090   16.2760 C.3   120  SER120      0.2130
     77  OG         9.6390   -9.7240   15.6690 O.3   120  SER120     -0.2179
     78  N         12.6970  -10.3230   13.9140 N.am  121  GLY121     -0.1939
     79  CA        13.5540  -11.4330   13.5310 C.3   121  GLY121      0.2014
     80  C         12.8770  -12.6950   13.0640 C.2   121  GLY121      0.2639
     81  O         13.5220  -13.7440   13.0460 O.2   121  GLY121     -0.2714
     82  N         11.6030  -12.6150   12.6400 N.am  122  LYS122     -0.1963
     83  CA        10.8800  -13.8000   12.1730 C.3   122  LYS122      0.1728
     84  C         11.4940  -14.3610   10.9140 C.2   122  LYS122      0.2617
     85  O         11.7020  -15.5680   10.8440 O.2   122  LYS122     -0.2715
     86  CB         9.3920  -13.5080   11.9200 C.3   122  LYS122      0.0311
     87  CG         8.6000  -12.9640   13.1100 C.3   122  LYS122      0.0038
     88  CD         7.1540  -12.6270   12.6890 C.3   122  LYS122      0.0206
     89  CE         7.0340  -11.4110   11.7610 C.3   122  LYS122      0.1093
     90  NZ         7.5530  -10.1400   12.3350 N.3   122  LYS122     -0.1314
     91  N         11.7320  -13.5200    9.8960 N.am  123  THR123     -0.1937
     92  CA        12.2770  -13.9900    8.6230 C.3   123  THR123      0.2028
     93  C         13.7210  -14.4530    8.7810 C.2   123  THR123      0.2642
     94  O         14.1360  -15.4520    8.1850 O.2   123  THR123     -0.2714
     95  CB        12.0920  -12.9300    7.5170 C.3   123  THR123      0.1808
     96  OG1       10.6950  -12.5890    7.4280 O.3   123  THR123     -0.2208
     97  CG2       12.6120  -13.4120    6.1350 C.3   123  THR123      0.0379
     98  N         14.4790  -13.7290    9.6010 N.am  124  HIS124     -0.1973
     99  CA        15.8490  -14.0750    9.9190 C.3   124  HIS124      0.1656
    100  C         15.8890  -15.4910   10.5390 C.2   124  HIS124      0.2291
    101  O         16.7530  -16.2970   10.1860 O.2   124  HIS124     -0.2864
    102  CB        16.4260  -13.0350   10.8680 C.3   124  HIS124      0.0771
    103  CG        17.7800  -13.3910   11.3840 C.ar  124  HIS124      0.0820
    104  ND1       17.9310  -14.2050   12.4870 N.ar  124  HIS124     -0.2267
    105  CD2       19.0080  -13.0290   10.9340 C.ar  124  HIS124      0.1154
    106  CE1       19.2360  -14.3300   12.6700 C.ar  124  HIS124      0.1986
    107  NE2       19.9260  -13.6380   11.7620 N.ar  124  HIS124     -0.2212
    108  N         19.5820  -14.9490    7.3800 N.3   129  ASP129     -0.1239
    109  CA        20.1390  -13.5910    7.3120 C.3   129  ASP129      0.1674
    110  C         20.5260  -13.2700    5.8400 C.2   129  ASP129      0.2266
    111  O         20.1790  -12.1980    5.3330 O.2   129  ASP129     -0.2867
    112  CB        21.3810  -13.4790    8.2450 C.3   129  ASP129      0.1410
    113  CG        21.9950  -12.0920    8.4750 C.2   129  ASP129      0.3668
    114  OD1       21.8870  -11.2250    7.5700 O.co2 129  ASP129     -0.2456
    115  OD2       22.6500  -11.8970    9.5310 O.co2 129  ASP129     -0.2456
    116  N          5.7250   -7.9970    5.4530 N.3   221  SER221     -0.1217
    117  CA         5.4270   -7.8610    6.8710 C.3   221  SER221      0.1889
    118  C          3.9000   -7.9930    7.1040 C.2   221  SER221      0.2288
    119  O          3.4500   -8.1120    8.2510 O.2   221  SER221     -0.2866
    120  CB         5.9610   -6.5330    7.4100 C.3   221  SER221      0.2089
    121  OG         5.2110   -5.4030    7.0010 O.3   221  SER221     -0.2183
@<TRIPOS>BOND
     1   111   110    2
     2   116   117    1
     3   110   109    1
     4    97    95    1
     5   117   118    1
     6   117   120    1
     7   121   120    1
     8   118   119    2
     9   109   108    1
    10   109   112    1
    11    96    95    1
    12    95    92    1
    13   114   113   ar
    14    94    93    2
    15   112   113    1
    16   113   115   ar
    17    92    93    1
    18    92    91    1
    19    93    98   am
    20    98    99    1
    21    91    84   am
    22    99   100    1
    23    99   102    1
    24    67    65    1
    25   101   100    2
    26    66    65    1
    27    85    84    2
    28   102   103    1
    29    84    83    1
    30   105   103   ar
    31   105   107   ar
    32    65    62    1
    33   103   104   ar
    34    89    90    1
    35    89    88    1
    36   107   106   ar
    37    86    83    1
    38    86    87    1
    39    68    69    1
    40    68    63   am
    41    62    63    1
    42    62    61    1
    43    83    82    1
    44    69    70    1
    45   104   106   ar
    46    63    64    2
    47    82    80   am
    48    88    87    1
    49    81    80    2
    50    80    79    1
    51    79    78    1
    52    70    71    2
    53    70    72   am
    54    46    44   am
    55    78    74   am
    56    43    44    1
    57    43    40    1
    58    44    45    2
    59    72    73    1
    60    74    73    1
    61    74    75    2
    62    40    41    1
    63    40    39    1
    64    10     9    1
    65    41    42    2
    66    73    76    1
    67    77    76    1
    68    28    27    1
    69    28    29    2
    70    27    26    1
    71    31    29    1
    72    11     9    1
    73    29    30    1
    74     9     8    2
    75    26    25    1
    76    25    22    1
    77     8     7    1
    78    35    34    2
    79     7     6    1
    80    37    38    1
    81    37    36    1
    82    38    32    1
    83    59    58    2
    84    22    23    1
    85    22    21    1
    86    34    33    1
    87    58    57    1
    88    32    23   am
    89    32    33    1
    90    36    33    1
    91     6     5    1
    92    23    24    2
    93     5     2    1
    94    21    14   am
    95    50    49    2
    96     4     3    2
    97    57    60    1
    98    57    56    1
    99    14    15    2
   100    14    13    1
   101     3     2    1
   102     3    12   am
   103     2     1    1
   104    49    48    1
   105    48    51    1
   106    48    47    1
   107    13    12    1
   108    13    16    1
   109    51    52    1
   110    52    53    1
   111    16    17    1
   112    17    18    1
   113    53    55   ar
   114    53    54   ar
   115    18    19    1
   116    19    20    1
