@<TRIPOS>MOLECULE
tmp/4y06B00.pdb
 105 99 0 0 0
SMALL
GASTEIGER

@<TRIPOS>ATOM
      1  N         36.8730    1.0210  -11.8230 N.3    62  HIS62      -0.1241
      2  CA        37.2930   -0.0540  -12.7490 C.3    62  HIS62       0.1621
      3  C         37.5910    0.4180  -14.1800 C.2    62  HIS62       0.2264
      4  O         38.2980   -0.2490  -14.9490 O.2    62  HIS62      -0.2867
      5  CB        36.3900   -1.2650  -12.6950 C.3    62  HIS62       0.0745
      6  CG        35.2230   -1.2180  -13.6250 C.ar   62  HIS62       0.0817
      7  ND1       33.9470   -0.8720  -13.2050 N.ar   62  HIS62      -0.2268
      8  CD2       35.1160   -1.5620  -14.9250 C.ar   62  HIS62       0.1154
      9  CE1       33.1190   -0.9810  -14.2270 C.ar   62  HIS62       0.1986
     10  NE2       33.8040   -1.3970  -15.2820 N.ar   62  HIS62      -0.2212
     11  N         36.7310   -1.1560   -5.3440 N.3   184  LYS184     -0.1245
     12  CA        36.4260   -2.5440   -5.7120 C.3   184  LYS184      0.1561
     13  C         36.1360   -3.3900   -4.4720 C.2   184  LYS184      0.2260
     14  O         36.5980   -4.5460   -4.3360 O.2   184  LYS184     -0.2867
     15  CB        37.5830   -3.1530   -6.5060 C.3   184  LYS184      0.0271
     16  CG        37.1550   -4.3510   -7.3470 C.3   184  LYS184      0.0035
     17  CD        38.3030   -4.8440   -8.2760 C.3   184  LYS184      0.0206
     18  CE        37.9040   -6.0690   -9.1470 C.3   184  LYS184      0.1093
     19  NZ        38.8400   -6.2470  -10.3000 N.3   184  LYS184     -0.1314
     20  N         31.5510   -9.1250   -7.6530 N.3   191  ASN191     -0.1225
     21  CA        31.4100   -8.8000   -9.0760 C.3   191  ASN191      0.1785
     22  C         30.2030   -9.4830   -9.6970 C.2   191  ASN191      0.2597
     23  O         29.9070  -10.6170   -9.3920 O.2   191  ASN191     -0.2718
     24  CB        32.6780   -9.1430   -9.8630 C.3   191  ASN191      0.1169
     25  CG        32.6700   -8.5360  -11.2090 C.2   191  ASN191      0.2627
     26  OD1       31.9680   -7.5330  -11.4730 O.2   191  ASN191     -0.2716
     27  ND2       33.3830   -9.1640  -12.1170 N.am  191  ASN191     -0.0877
     28  N         29.4690   -8.7350  -10.5060 N.am  192  TRP192     -0.1976
     29  CA        28.1750   -9.1720  -11.0710 C.3   192  TRP192      0.1640
     30  C         27.0490   -9.4870  -10.0330 C.2   192  TRP192      0.2290
     31  O         26.1090  -10.2040  -10.3440 O.2   192  TRP192     -0.2864
     32  CB        28.3850  -10.3410  -12.0570 C.3   192  TRP192      0.0576
     33  CG        29.3910  -10.0620  -13.2280 C.ar  192  TRP192      0.0006
     34  CD1       30.6380  -10.5710  -13.3580 C.ar  192  TRP192      0.0946
     35  CD2       29.2200   -9.1660  -14.3410 C.ar  192  TRP192      0.0152
     36  NE1       31.2690  -10.0910  -14.4930 N.ar  192  TRP192     -0.2442
     37  CE2       30.3870   -9.2560  -15.1370 C.ar  192  TRP192      0.0810
     38  CE3       28.1700   -8.3510  -14.7700 C.ar  192  TRP192      0.0012
     39  CZ2       30.5400   -8.5410  -16.3020 C.ar  192  TRP192      0.0191
     40  CZ3       28.3060   -7.6510  -15.9170 C.ar  192  TRP192      0.0001
     41  CH2       29.4950   -7.7180  -16.6780 C.ar  192  TRP192      0.0015
     42  N         25.1720   -5.0380   -3.3620 N.3   196  ARG196     -0.1245
     43  CA        26.4490   -4.4770   -3.7230 C.3   196  ARG196      0.1563
     44  C         26.7670   -3.2620   -2.8370 C.2   196  ARG196      0.2260
     45  O         25.8730   -2.4540   -2.5430 O.2   196  ARG196     -0.2867
     46  CB        26.4430   -4.1310   -5.1990 C.3   196  ARG196      0.0307
     47  CG        27.7980   -3.9990   -5.8350 C.3   196  ARG196      0.0489
     48  CD        28.6700   -5.2550   -5.6760 C.3   196  ARG196      0.2205
     49  NE        29.7830   -5.2390   -6.6580 N.pl3 196  ARG196     -0.0865
     50  CZ        29.6420   -5.4480   -7.9560 C.cat 196  ARG196      0.5346
     51  NH1       28.4680   -5.7820   -8.4500 N.pl3 196  ARG196      0.1354
     52  NH2       30.6940   -5.3620   -8.7610 N.pl3 196  ARG196      0.1354
     53  N         29.9530   -1.1070   -3.2750 N.3   198  THR198     -0.1218
     54  CA        31.1660   -0.7260   -3.9650 C.3   198  THR198      0.1862
     55  C         31.1390    0.7340   -4.4180 C.2   198  THR198      0.2287
     56  O         30.2350    1.1730   -5.1490 O.2   198  THR198     -0.2866
     57  CB        31.4520   -1.6570   -5.1930 C.3   198  THR198      0.1770
     58  OG1       31.4330   -3.0460   -4.7840 O.3   198  THR198     -0.2211
     59  CG2       32.8070   -1.3210   -5.7890 C.3   198  THR198      0.0375
     60  N         32.5430    2.4850   -6.6870 N.3   200  ASP200     -0.1239
     61  CA        33.1630    2.3970   -8.0140 C.3   200  ASP200      0.1674
     62  C         33.2160    3.6900   -8.7620 C.2   200  ASP200      0.2266
     63  O         32.4810    3.8990   -9.7250 O.2   200  ASP200     -0.2867
     64  CB        32.4670    1.3170   -8.8990 C.3   200  ASP200      0.1410
     65  CG        33.4340    0.6960   -9.9620 C.2   200  ASP200      0.3668
     66  OD1       34.4590    1.3790  -10.2850 O.co2 200  ASP200     -0.2456
     67  OD2       33.1430   -0.4290  -10.4980 O.co2 200  ASP200     -0.2456
     68  N         42.1920   -8.4700  -13.5920 N.3   302  ALA302     -0.1245
     69  CA        40.8310   -7.8600  -13.4530 C.3   302  ALA302      0.1562
     70  C         39.9750   -8.2440  -14.6510 C.2   302  ALA302      0.2260
     71  O         38.8500   -8.6860  -14.4880 O.2   302  ALA302     -0.2867
     72  CB        40.8790   -6.3180  -13.3350 C.3   302  ALA302      0.0290
     73  N         36.7550  -10.6960  -14.6350 N.3   306  ASN306     -0.1240
     74  CA        35.4770  -10.1190  -15.0060 C.3   306  ASN306      0.1653
     75  C         34.7750  -10.9190  -16.1490 C.2   306  ASN306      0.2266
     76  O         33.5890  -11.2570  -16.0940 O.2   306  ASN306     -0.2867
     77  CB        35.6150   -8.6560  -15.3690 C.3   306  ASN306      0.1155
     78  CG        34.2720   -7.9660  -15.5480 C.2   306  ASN306      0.2627
     79  OD1       33.4490   -8.0560  -14.6860 O.2   306  ASN306     -0.2716
     80  ND2       34.0770   -7.2520  -16.6440 N.am  306  ASN306     -0.0877
     81  N         29.8200    1.2850  -18.4780 N.3   633  SER633     -0.1217
     82  CA        30.3900    1.6400  -17.2090 C.3   633  SER633      0.1889
     83  C         31.0520    3.0360  -17.2280 C.2   633  SER633      0.2288
     84  O         31.5540    3.4580  -18.2380 O.2   633  SER633     -0.2866
     85  CB        31.3410    0.6040  -16.7280 C.3   633  SER633      0.2089
     86  OG        32.5490    0.7630  -17.3830 O.3   633  SER633     -0.2183
     87  N         27.7940    1.1330  -13.0350 N.3   649  PHE649     -0.1227
     88  CA        28.9970    0.2930  -13.0170 C.3   649  PHE649      0.1736
     89  C         28.9220   -1.1970  -13.2370 C.2   649  PHE649      0.2595
     90  O         29.9210   -1.7840  -13.6470 O.2   649  PHE649     -0.2718
     91  CB        29.8800    0.5920  -11.8230 C.3   649  PHE649      0.0547
     92  CG        29.4040    0.0180  -10.4940 C.ar  649  PHE649     -0.0202
     93  CD1       28.4390    0.7100   -9.6970 C.ar  649  PHE649     -0.0042
     94  CD2       29.9810   -1.1340   -9.9960 C.ar  649  PHE649     -0.0042
     95  CE1       28.0470    0.2040   -8.4630 C.ar  649  PHE649     -0.0003
     96  CE2       29.6060   -1.6210   -8.7760 C.ar  649  PHE649     -0.0003
     97  CZ        28.6560   -0.9550   -7.9990 C.ar  649  PHE649     -0.0000
     98  N         27.7580   -1.7970  -12.9970 N.am  650  ASP650     -0.1974
     99  CA        27.6060   -3.2020  -13.1200 C.3   650  ASP650      0.1709
    100  C         26.1560   -3.5450  -13.3860 C.2   650  ASP650      0.2293
    101  O         25.2950   -2.6690  -13.5440 O.2   650  ASP650     -0.2864
    102  CB        28.1320   -3.8980  -11.8640 C.3   650  ASP650      0.1436
    103  CG        28.7100   -5.2930  -12.1270 C.2   650  ASP650      0.3671
    104  OD1       28.6960   -5.7500  -13.2870 O.co2 650  ASP650     -0.2456
    105  OD2       29.1610   -5.9320  -11.1570 O.co2 650  ASP650     -0.2456
@<TRIPOS>BOND
     1    81    82    1
     2    84    83    2
     3    86    85    1
     4    83    82    1
     5    82    85    1
     6    41    39   ar
     7    41    40   ar
     8    80    78   am
     9    39    37   ar
    10    75    76    2
    11    75    74    1
    12    40    38   ar
    13    78    77    1
    14    78    79    2
    15    77    74    1
    16    10     8   ar
    17    10     9   ar
    18    37    36   ar
    19    37    35   ar
    20    74    73    1
    21     4     3    2
    22     8     6   ar
    23    38    35   ar
    24    70    71    2
    25    70    69    1
    26    36    34   ar
    27    35    33   ar
    28     9     7   ar
    29     3     2    1
    30    90    89    2
    31     6     7   ar
    32     6     5    1
    33    68    69    1
    34   101   100    2
    35    69    72    1
    36   100    99    1
    37    34    33   ar
    38   104   103   ar
    39    89    88    1
    40    89    98   am
    41    33    32    1
    42    99    98    1
    43    99   102    1
    44    87    88    1
    45    88    91    1
    46     2     5    1
    47     2     1    1
    48   103   102    1
    49   103   105   ar
    50    27    25   am
    51    32    29    1
    52    91    92    1
    53    26    25    2
    54    25    24    1
    55    29    28    1
    56    29    30    1
    57    28    22   am
    58    67    65   ar
    59    92    94   ar
    60    92    93   ar
    61    31    30    2
    62    19    18    1
    63    66    65   ar
    64    94    96   ar
    65    65    64    1
    66    24    21    1
    67    63    62    2
    68    93    95   ar
    69    22    23    2
    70    22    21    1
    71    18    17    1
    72    21    20    1
    73    64    61    1
    74    96    97   ar
    75    62    61    1
    76    52    50    1
    77    95    97   ar
    78    51    50    1
    79    17    16    1
    80    61    60    1
    81    50    49    2
    82    16    15    1
    83    49    48    1
    84    15    12    1
    85    47    48    1
    86    47    46    1
    87    59    57    1
    88    12    11    1
    89    12    13    1
    90    46    43    1
    91    57    58    1
    92    57    54    1
    93    56    55    2
    94    13    14    2
    95    55    54    1
    96    54    53    1
    97    43    42    1
    98    43    44    1
    99    44    45    2
