@<TRIPOS>MOLECULE
tmp/4y06B01.pdb
 101 98 0 0 0
SMALL
GASTEIGER

@<TRIPOS>ATOM
      1  N         35.8010    2.2330  -24.6760 N.3    45  GLY45      -0.1210
      2  CA        35.5330    1.0710  -23.7940 C.3    45  GLY45       0.1956
      3  C         34.8620    1.3520  -22.4560 C.2    45  GLY45       0.2612
      4  O         34.5490    0.4180  -21.7100 O.2    45  GLY45      -0.2717
      5  N         34.6770    2.6230  -22.1310 N.am   46  CYS46      -0.1970
      6  CA        33.9240    3.0720  -20.9320 C.3    46  CYS46       0.1712
      7  C         33.3520    4.4430  -21.2940 C.2    46  CYS46       0.2296
      8  O         33.7360    5.0970  -22.3050 O.2    46  CYS46      -0.2864
      9  CB        34.8560    3.1990  -19.6930 C.3    46  CYS46       0.0983
     10  SG        35.1140    1.7090  -18.6260 S.3    46  CYS46      -0.0798
     11  N         36.8730    1.0210  -11.8230 N.3    62  HIS62      -0.1241
     12  CA        37.2930   -0.0540  -12.7490 C.3    62  HIS62       0.1621
     13  C         37.5910    0.4180  -14.1800 C.2    62  HIS62       0.2264
     14  O         38.2980   -0.2490  -14.9490 O.2    62  HIS62      -0.2867
     15  CB        36.3900   -1.2650  -12.6950 C.3    62  HIS62       0.0745
     16  CG        35.2230   -1.2180  -13.6250 C.ar   62  HIS62       0.0817
     17  ND1       33.9470   -0.8720  -13.2050 N.ar   62  HIS62      -0.2268
     18  CD2       35.1160   -1.5620  -14.9250 C.ar   62  HIS62       0.1154
     19  CE1       33.1190   -0.9810  -14.2270 C.ar   62  HIS62       0.1986
     20  NE2       33.8040   -1.3970  -15.2820 N.ar   62  HIS62      -0.2212
     21  N         29.4690   -8.7350  -10.5060 N.3   192  TRP192     -0.1241
     22  CA        28.1750   -9.1720  -11.0710 C.3   192  TRP192      0.1605
     23  C         27.0490   -9.4870  -10.0330 C.2   192  TRP192      0.2264
     24  O         26.1090  -10.2040  -10.3440 O.2   192  TRP192     -0.2867
     25  CB        28.3850  -10.3410  -12.0570 C.3   192  TRP192      0.0550
     26  CG        29.3910  -10.0620  -13.2280 C.ar  192  TRP192      0.0003
     27  CD1       30.6380  -10.5710  -13.3580 C.ar  192  TRP192      0.0946
     28  CD2       29.2200   -9.1660  -14.3410 C.ar  192  TRP192      0.0152
     29  NE1       31.2690  -10.0910  -14.4930 N.ar  192  TRP192     -0.2442
     30  CE2       30.3870   -9.2560  -15.1370 C.ar  192  TRP192      0.0810
     31  CE3       28.1700   -8.3510  -14.7700 C.ar  192  TRP192      0.0012
     32  CZ2       30.5400   -8.5410  -16.3020 C.ar  192  TRP192      0.0191
     33  CZ3       28.3060   -7.6510  -15.9170 C.ar  192  TRP192      0.0001
     34  CH2       29.4950   -7.7180  -16.6780 C.ar  192  TRP192      0.0015
     35  N         36.7550  -10.6960  -14.6350 N.3   306  ASN306     -0.1240
     36  CA        35.4770  -10.1190  -15.0060 C.3   306  ASN306      0.1653
     37  C         34.7750  -10.9190  -16.1490 C.2   306  ASN306      0.2266
     38  O         33.5890  -11.2570  -16.0940 O.2   306  ASN306     -0.2867
     39  CB        35.6150   -8.6560  -15.3690 C.3   306  ASN306      0.1155
     40  CG        34.2720   -7.9660  -15.5480 C.2   306  ASN306      0.2627
     41  OD1       33.4490   -8.0560  -14.6860 O.2   306  ASN306     -0.2716
     42  ND2       34.0770   -7.2520  -16.6440 N.am  306  ASN306     -0.0877
     43  N         21.7360   -1.7270  -19.8590 N.3   628  ILE628     -0.1231
     44  CA        23.1090   -1.3910  -20.1580 C.3   628  ILE628      0.1692
     45  C         23.9180   -2.6670  -20.4150 C.2   628  ILE628      0.2593
     46  O         23.4930   -3.7890  -20.1320 O.2   628  ILE628     -0.2718
     47  CB        23.8100   -0.5990  -19.0330 C.3   628  ILE628      0.0266
     48  CG1       23.8920   -1.3950  -17.7360 C.3   628  ILE628      0.0019
     49  CG2       23.1890    0.7740  -18.8670 C.3   628  ILE628      0.0020
     50  CD1       25.0950   -1.0580  -16.8870 C.3   628  ILE628      0.0001
     51  N         25.0910   -2.4700  -20.9590 N.am  629  THR629     -0.1939
     52  CA        26.0430   -3.5520  -21.1830 C.3   629  THR629      0.2028
     53  C         27.4960   -2.9890  -21.1580 C.2   629  THR629      0.2643
     54  O         27.6900   -1.7680  -20.9500 O.2   629  THR629     -0.2714
     55  CB        25.6440   -4.3130  -22.4760 C.3   629  THR629      0.1808
     56  OG1       26.5170   -5.4290  -22.6510 O.3   629  THR629     -0.2208
     57  CG2       25.7180   -3.4280  -23.6940 C.3   629  THR629      0.0379
     58  N         28.4930   -3.8550  -21.3720 N.am  630  GLY630     -0.1939
     59  CA        29.8890   -3.5120  -21.4010 C.3   630  GLY630      0.2014
     60  C         30.1520   -2.2860  -22.2490 C.2   630  GLY630      0.2639
     61  O         29.6020   -2.1930  -23.2970 O.2   630  GLY630     -0.2714
     62  N         30.9140   -1.3130  -21.7520 N.am  631  GLY631     -0.1954
     63  CA        30.9730    0.0240  -22.4000 C.3   631  GLY631      0.1869
     64  C         30.2040    1.0910  -21.6540 C.2   631  GLY631      0.2309
     65  O         30.6230    2.2620  -21.6550 O.2   631  GLY631     -0.2863
     66  N         29.8200    1.2850  -18.4780 N.3   633  SER633     -0.1217
     67  CA        30.3900    1.6400  -17.2090 C.3   633  SER633      0.1889
     68  C         31.0520    3.0360  -17.2280 C.2   633  SER633      0.2288
     69  O         31.5540    3.4580  -18.2380 O.2   633  SER633     -0.2866
     70  CB        31.3410    0.6040  -16.7280 C.3   633  SER633      0.2089
     71  OG        32.5490    0.7630  -17.3830 O.3   633  SER633     -0.2183
     72  N         27.7940    1.1330  -13.0350 N.3   649  PHE649     -0.1227
     73  CA        28.9970    0.2930  -13.0170 C.3   649  PHE649      0.1736
     74  C         28.9220   -1.1970  -13.2370 C.2   649  PHE649      0.2595
     75  O         29.9210   -1.7840  -13.6470 O.2   649  PHE649     -0.2718
     76  CB        29.8800    0.5920  -11.8230 C.3   649  PHE649      0.0547
     77  CG        29.4040    0.0180  -10.4940 C.ar  649  PHE649     -0.0202
     78  CD1       28.4390    0.7100   -9.6970 C.ar  649  PHE649     -0.0042
     79  CD2       29.9810   -1.1340   -9.9960 C.ar  649  PHE649     -0.0042
     80  CE1       28.0470    0.2040   -8.4630 C.ar  649  PHE649     -0.0003
     81  CE2       29.6060   -1.6210   -8.7760 C.ar  649  PHE649     -0.0003
     82  CZ        28.6560   -0.9550   -7.9990 C.ar  649  PHE649     -0.0000
     83  N         27.7580   -1.7970  -12.9970 N.am  650  ASP650     -0.1960
     84  CA        27.6060   -3.2020  -13.1200 C.3   650  ASP650      0.1840
     85  C         26.1560   -3.5450  -13.3860 C.2   650  ASP650      0.2621
     86  O         25.2950   -2.6690  -13.5440 O.2   650  ASP650     -0.2715
     87  CB        28.1320   -3.8980  -11.8640 C.3   650  ASP650      0.1450
     88  CG        28.7100   -5.2930  -12.1270 C.2   650  ASP650      0.3671
     89  OD1       28.6960   -5.7500  -13.2870 O.co2 650  ASP650     -0.2456
     90  OD2       29.1610   -5.9320  -11.1570 O.co2 650  ASP650     -0.2456
     91  N         25.9120   -4.8140  -13.5370 N.am  651  ARG651     -0.1977
     92  CA        24.5400   -5.3400  -13.3530 C.3   651  ARG651      0.1597
     93  C         24.5210   -6.6500  -12.6510 C.2   651  ARG651      0.2287
     94  O         25.5560   -7.2980  -12.4670 O.2   651  ARG651     -0.2864
     95  CB        23.7570   -5.4300  -14.6400 C.3   651  ARG651      0.0334
     96  CG        24.3690   -6.1550  -15.7630 C.3   651  ARG651      0.0492
     97  CD        23.4610   -5.9940  -17.0220 C.3   651  ARG651      0.2205
     98  NE        24.1140   -6.6230  -18.1600 N.pl3 651  ARG651     -0.0865
     99  CZ        23.5740   -6.9220  -19.3310 C.cat 651  ARG651      0.5346
    100  NH1       22.2870   -6.6750  -19.5760 N.pl3 651  ARG651      0.1354
    101  NH2       24.3440   -7.5140  -20.2760 N.pl3 651  ARG651      0.1354
@<TRIPOS>BOND
     1     1     2    1
     2     2     3    1
     3    57    55    1
     4    61    60    2
     5    56    55    1
     6    55    52    1
     7     3     5   am
     8     3     4    2
     9    63    62    1
    10    63    64    1
    11     8     7    2
    12    60    62   am
    13    60    59    1
    14     5     6    1
    15    65    64    2
    16    59    58    1
    17    58    53   am
    18     7     6    1
    19    52    53    1
    20    52    51    1
    21    53    54    2
    22    51    45   am
    23     6     9    1
    24    45    44    1
    25    45    46    2
    26   101    99    1
    27    44    43    1
    28    44    47    1
    29     9    10    1
    30   100    99    1
    31    99    98    2
    32    47    49    1
    33    47    48    1
    34    66    67    1
    35    69    68    2
    36    98    97    1
    37    48    50    1
    38    71    70    1
    39    68    67    1
    40    67    70    1
    41    97    96    1
    42    34    32   ar
    43    34    33   ar
    44    42    40   am
    45    32    30   ar
    46    37    38    2
    47    37    36    1
    48    33    31   ar
    49    96    95    1
    50    40    39    1
    51    40    41    2
    52    39    36    1
    53    20    18   ar
    54    20    19   ar
    55    30    29   ar
    56    30    28   ar
    57    36    35    1
    58    14    13    2
    59    18    16   ar
    60    31    28   ar
    61    95    92    1
    62    29    27   ar
    63    28    26   ar
    64    19    17   ar
    65    13    12    1
    66    75    74    2
    67    16    17   ar
    68    16    15    1
    69    86    85    2
    70    91    85   am
    71    91    92    1
    72    85    84    1
    73    27    26   ar
    74    92    93    1
    75    89    88   ar
    76    74    73    1
    77    74    83   am
    78    26    25    1
    79    84    83    1
    80    84    87    1
    81    72    73    1
    82    73    76    1
    83    12    15    1
    84    12    11    1
    85    93    94    2
    86    88    87    1
    87    88    90   ar
    88    25    22    1
    89    76    77    1
    90    22    21    1
    91    22    23    1
    92    77    79   ar
    93    77    78   ar
    94    24    23    2
    95    79    81   ar
    96    78    80   ar
    97    81    82   ar
    98    80    82   ar
