@<TRIPOS>MOLECULE
tmp/4y0aA00.pdb
 132 125 0 0 0
SMALL
GASTEIGER

@<TRIPOS>ATOM
      1  N          5.9030   10.2930   12.6180 N.3    17  MET17      -0.1245
      2  CA         6.0080   11.7150   12.9360 C.3    17  MET17       0.1570
      3  C          6.2530   12.4130   11.5780 C.2    17  MET17       0.2261
      4  O          7.1010   11.9580   10.8090 O.2    17  MET17      -0.2867
      5  CB         7.1540   11.9690   13.8800 C.3    17  MET17       0.0387
      6  CG         6.9440   11.4980   15.3610 C.3    17  MET17       0.0595
      7  SD         8.4490   11.6310   16.3240 S.3    17  MET17      -0.1393
      8  CE         9.3510   10.1110   15.9010 C.3    17  MET17       0.0692
      9  N         -0.5940   13.5360    9.7300 N.3    21  LYS21      -0.1245
     10  CA        -1.7880   12.8620   10.2430 C.3    21  LYS21       0.1561
     11  C         -2.8360   13.8170   10.7930 C.2    21  LYS21       0.2260
     12  O         -4.0610   13.6150   10.5630 O.2    21  LYS21      -0.2867
     13  CB        -1.4300   11.8510   11.3460 C.3    21  LYS21       0.0271
     14  CG        -0.5840   10.6800   10.8280 C.3    21  LYS21       0.0035
     15  CD        -0.2410    9.6240   11.9540 C.3    21  LYS21       0.0206
     16  CE         0.6910   10.1770   13.0590 C.3    21  LYS21       0.1093
     17  NZ         2.0060   10.5300   12.6290 N.3    21  LYS21      -0.1314
     18  N         -2.4200   11.8590   20.3360 N.3    40  ASP40      -0.1239
     19  CA        -1.3450   12.5050   21.1040 C.3    40  ASP40       0.1674
     20  C         -1.9270   13.6310   21.9550 C.2    40  ASP40       0.2266
     21  O         -1.6410   13.7880   23.1660 O.2    40  ASP40      -0.2867
     22  CB        -0.2410   13.0650   20.1690 C.3    40  ASP40       0.1410
     23  CG         0.7170   11.9940   19.6800 C.2    40  ASP40       0.3668
     24  OD1        0.6330   10.8140   20.1530 O.co2  40  ASP40      -0.2456
     25  OD2        1.5780   12.3280   18.8130 O.co2  40  ASP40      -0.2456
     26  N          3.7850   15.4640   26.2610 N.3    51  ILE51      -0.1245
     27  CA         4.3880   14.1390   25.9680 C.3    51  ILE51       0.1561
     28  C          5.8900   14.0930   26.3530 C.2    51  ILE51       0.2260
     29  O          6.3380   13.0780   26.8840 O.2    51  ILE51      -0.2867
     30  CB         4.1380   13.7680   24.4570 C.3    51  ILE51       0.0252
     31  CG1        2.6330   13.4940   24.2800 C.3    51  ILE51       0.0019
     32  CG2        4.9240   12.5080   24.0550 C.3    51  ILE51       0.0019
     33  CD1        2.1600   13.0880   22.8560 C.3    51  ILE51       0.0001
     34  N          7.3160   11.2550   28.8900 N.3    55  PHE55      -0.1241
     35  CA         8.4950   10.4490   28.6120 C.3    55  PHE55       0.1605
     36  C          9.5570   10.6570   29.7060 C.2    55  PHE55       0.2264
     37  O         10.2110    9.7000   30.1360 O.2    55  PHE55      -0.2867
     38  CB         9.1100   10.7750   27.2470 C.3    55  PHE55       0.0534
     39  CG         8.5550    9.9490   26.0890 C.ar   55  PHE55      -0.0203
     40  CD1        7.2890   10.1560   25.5950 C.ar   55  PHE55      -0.0042
     41  CD2        9.3530    8.9810   25.4960 C.ar   55  PHE55      -0.0042
     42  CE1        6.8110    9.4200   24.5370 C.ar   55  PHE55      -0.0003
     43  CE2        8.8870    8.2280   24.4450 C.ar   55  PHE55      -0.0003
     44  CZ         7.6430    8.4670   23.9360 C.ar   55  PHE55      -0.0000
     45  N          4.3810    6.2560   28.7520 N.3    63  PHE63      -0.1227
     46  CA         3.6340    6.7720   27.6030 C.3    63  PHE63       0.1736
     47  C          2.8060    5.6880   26.8840 C.2    63  PHE63       0.2595
     48  O          1.6450    5.9120   26.5680 O.2    63  PHE63      -0.2718
     49  CB         4.5710    7.4620   26.5850 C.3    63  PHE63       0.0547
     50  CG         3.8260    8.0170   25.3850 C.ar   63  PHE63      -0.0202
     51  CD1        3.1160    9.1620   25.5210 C.ar   63  PHE63      -0.0042
     52  CD2        3.7580    7.3190   24.1710 C.ar   63  PHE63      -0.0042
     53  CE1        2.3480    9.6810   24.4420 C.ar   63  PHE63      -0.0003
     54  CE2        3.0580    7.8350   23.0940 C.ar   63  PHE63      -0.0003
     55  CZ         2.3300    9.0000   23.2300 C.ar   63  PHE63      -0.0000
     56  N          3.4070    4.5240   26.6090 N.am   64  ARG64      -0.1980
     57  CA         2.6570    3.4510   25.9040 C.3    64  ARG64       0.1597
     58  C          1.4470    2.9520   26.6800 C.2    64  ARG64       0.2287
     59  O          0.4030    2.6530   26.0970 O.2    64  ARG64      -0.2864
     60  CB         3.5600    2.2620   25.5630 C.3    64  ARG64       0.0334
     61  CG         4.7460    2.5920   24.6000 C.3    64  ARG64       0.0492
     62  CD         4.2810    3.0580   23.1490 C.3    64  ARG64       0.2205
     63  NE         5.4490    3.6380   22.4680 N.pl3  64  ARG64      -0.0865
     64  CZ         5.3980    4.5850   21.5180 C.cat  64  ARG64       0.5346
     65  NH1        4.2260    5.0290   21.0730 N.pl3  64  ARG64       0.1354
     66  NH2        6.5510    5.0750   21.0460 N.pl3  64  ARG64       0.1354
     67  N         -1.1070    5.6340   26.2790 N.3    67  GLU67      -0.1245
     68  CA        -1.5780    5.6530   24.8810 C.3    67  GLU67       0.1567
     69  C         -2.5420    4.4860   24.5980 C.2    67  GLU67       0.2260
     70  O         -3.5420    4.6730   23.9200 O.2    67  GLU67      -0.2867
     71  CB        -0.3500    5.5870   23.9400 C.3    67  GLU67       0.0388
     72  CG        -0.6690    5.4310   22.4810 C.3    67  GLU67       0.1160
     73  CD         0.5460    5.3900   21.6280 C.2    67  GLU67       0.3649
     74  OE1        1.4640    4.5540   21.8590 O.co2  67  GLU67      -0.2457
     75  OE2        0.6330    6.2480   20.7360 O.co2  67  GLU67      -0.2457
     76  N         -0.8230    8.1960   17.2310 N.3    85  GLY85      -0.1210
     77  CA         0.5460    8.6030   17.4220 C.3    85  GLY85       0.1956
     78  C          1.4980    7.7930   16.5390 C.2    85  GLY85       0.2612
     79  O          1.1570    6.6950   16.1020 O.2    85  GLY85      -0.2717
     80  N          2.6500    8.3530   16.2110 N.am   86  GLY86      -0.1942
     81  CA         3.5790    7.7130   15.3040 C.3    86  GLY86       0.2014
     82  C          4.0170    6.2890   15.7090 C.2    86  GLY86       0.2639
     83  O          4.3190    5.4770   14.8630 O.2    86  GLY86      -0.2714
     84  N          4.0700    6.0040   17.0080 N.am   87  GLY87      -0.1954
     85  CA         4.5440    4.7150   17.4760 C.3    87  GLY87       0.1869
     86  C          3.4120    3.8740   18.0010 C.2    87  GLY87       0.2309
     87  O          3.6490    2.8510   18.6490 O.2    87  GLY87      -0.2863
     88  N          8.7180   19.0030   20.8660 N.3   123  ASN123     -0.1225
     89  CA         7.6650   18.1570   21.4260 C.3   123  ASN123      0.1785
     90  C          7.7310   16.6760   21.0090 C.2   123  ASN123      0.2597
     91  O          6.8930   15.9400   21.4400 O.2   123  ASN123     -0.2718
     92  CB         6.2630   18.6820   21.0890 C.3   123  ASN123      0.1169
     93  CG         5.2440   18.3470   22.2200 C.2   123  ASN123      0.2627
     94  OD1        5.4650   18.6520   23.3810 O.2   123  ASN123     -0.2716
     95  ND2        4.1440   17.7450   21.8620 N.am  123  ASN123     -0.0877
     96  N          8.7290   16.2660   20.2180 N.am  124  ARG124     -0.1966
     97  CA         8.8760   14.8690   19.7670 C.3   124  ARG124      0.1714
     98  C         10.0320   14.2420   20.5460 C.2   124  ARG124      0.2458
     99  O         11.1670   14.3800   20.1450 O.2   124  ARG124     -0.2730
    100  CB         9.1710   14.8070   18.2460 C.3   124  ARG124      0.0347
    101  CG         8.3020   15.6440   17.3640 C.3   124  ARG124      0.0492
    102  CD         6.9060   15.2050   17.2410 C.3   124  ARG124      0.2205
    103  NE         6.3360   15.8540   16.0350 N.pl3 124  ARG124     -0.0865
    104  CZ         5.2830   15.4100   15.3600 C.cat 124  ARG124      0.5346
    105  NH1        4.6500   14.3150   15.7550 N.pl3 124  ARG124      0.1354
    106  NH2        4.8820   16.0780   14.2630 N.pl3 124  ARG124      0.1354
    107  N          9.7510   13.5920   21.6870 N.am  125  PRO125     -0.2716
    108  CA        10.8810   13.1820   22.5350 C.3   125  PRO125      0.1536
    109  C         11.8510   12.2850   21.8070 C.2   125  PRO125      0.2598
    110  O         13.0300   12.3770   22.0530 O.2   125  PRO125     -0.2715
    111  CB        10.2110   12.4170   23.6870 C.3   125  PRO125      0.0310
    112  CG         8.8370   12.9990   23.7830 C.3   125  PRO125      0.0237
    113  CD         8.4560   13.3090   22.3150 C.3   125  PRO125      0.0939
    114  N         11.3830   11.4280   20.8930 N.am  126  LEU126     -0.1978
    115  CA        12.3310   10.4710   20.3280 C.3   126  LEU126      0.1596
    116  C         13.3030   11.1710   19.3940 C.2   126  LEU126      0.2287
    117  O         14.3230   10.6130   19.0430 O.2   126  LEU126     -0.2864
    118  CB        11.6140    9.3460   19.5910 C.3   126  LEU126      0.0297
    119  CG        10.7170    8.4690   20.4270 C.3   126  LEU126      0.0022
    120  CD1       10.0900    7.4200   19.4980 C.3   126  LEU126      0.0001
    121  CD2       11.4890    7.7910   21.5390 C.3   126  LEU126      0.0001
    122  N          9.0660    0.1230   11.7420 N.3   143  ARG143     -0.1245
    123  CA         7.6380    0.3670   11.8170 C.3   143  ARG143      0.1563
    124  C          6.8910    0.3210   10.4860 C.2   143  ARG143      0.2260
    125  O          5.6850    0.0230   10.4420 O.2   143  ARG143     -0.2867
    126  CB         7.4070    1.7170   12.4970 C.3   143  ARG143      0.0307
    127  CG         8.0040    1.7180   13.9070 C.3   143  ARG143      0.0489
    128  CD         7.8490    3.0470   14.4480 C.3   143  ARG143      0.2205
    129  NE         8.2280    3.1220   15.8590 N.pl3 143  ARG143     -0.0865
    130  CZ         8.0360    4.2410   16.5510 C.cat 143  ARG143      0.5346
    131  NH1        7.5590    5.3130   15.9210 N.pl3 143  ARG143      0.1354
    132  NH2        8.3320    4.3040   17.8390 N.pl3 143  ARG143      0.1354
@<TRIPOS>BOND
     1     9    10    1
     2    10    11    1
     3    10    13    1
     4   125   124    2
     5   124   123    1
     6    12    11    2
     7     4     3    2
     8    14    13    1
     9    14    15    1
    10     3     2    1
    11   122   123    1
    12   123   126    1
    13    15    16    1
    14   126   127    1
    15     1     2    1
    16    17    16    1
    17     2     5    1
    18     5     6    1
    19   127   128    1
    20   106   104    1
    21   128   129    1
    22    83    82    2
    23    81    82    1
    24    81    80    1
    25   104   105    1
    26   104   103    2
    27     6     7    1
    28    82    84   am
    29   129   130    2
    30     8     7    1
    31   131   130    1
    32   103   102    1
    33    79    78    2
    34    80    78   am
    35    78    77    1
    36   130   132    1
    37    84    85    1
    38    76    77    1
    39   102   101    1
    40   101   100    1
    41    85    86    1
    42    86    87    2
    43   100    97    1
    44    25    23   ar
    45   117   116    2
    46   116   115    1
    47   120   119    1
    48   118   115    1
    49   118   119    1
    50    23    24   ar
    51    23    22    1
    52    97    96    1
    53    97    98    1
    54    99    98    2
    55    22    19    1
    56    96    90   am
    57   115   114    1
    58    18    19    1
    59   119   121    1
    60    98   107   am
    61    75    73   ar
    62    88    89    1
    63   114   109   am
    64    90    89    1
    65    90    91    2
    66    66    64    1
    67    65    64    1
    68    92    89    1
    69    92    93    1
    70    19    20    1
    71    64    63    2
    72    73    74   ar
    73    73    72    1
    74   107   113    1
    75   107   108    1
    76   109   110    2
    77   109   108    1
    78    95    93   am
    79    20    21    2
    80    93    94    2
    81   113   112    1
    82    63    62    1
    83    72    71    1
    84   108   111    1
    85    33    31    1
    86    54    55   ar
    87    54    52   ar
    88    62    61    1
    89    55    53   ar
    90   111   112    1
    91    70    69    2
    92    44    43   ar
    93    44    42   ar
    94    71    68    1
    95    32    30    1
    96    52    50   ar
    97    31    30    1
    98    53    51   ar
    99    43    41   ar
   100    30    27    1
   101    42    40   ar
   102    69    68    1
   103    61    60    1
   104    68    67    1
   105    50    51   ar
   106    50    49    1
   107    41    39   ar
   108    60    57    1
   109    40    39   ar
   110    57    56    1
   111    57    58    1
   112    27    26    1
   113    27    28    1
   114    39    38    1
   115    59    58    2
   116    28    29    2
   117    48    47    2
   118    49    46    1
   119    56    47   am
   120    47    46    1
   121    38    35    1
   122    46    45    1
   123    35    34    1
   124    35    36    1
   125    36    37    2
