@<TRIPOS>MOLECULE
tmp/4y0dC00.pdb
 164 156 0 0 0
SMALL
GASTEIGER

@<TRIPOS>ATOM
      1  N         40.7010   54.0150   82.5490 N.3    60  TYR60      -0.1241
      2  CA        40.7300   54.2440   83.9920 C.3    60  TYR60       0.1605
      3  C         42.1520   54.1080   84.5340 C.2    60  TYR60       0.2264
      4  O         42.5120   54.7490   85.5190 O.2    60  TYR60      -0.2867
      5  CB        39.7950   53.2690   84.7040 C.3    60  TYR60       0.0534
      6  CG        39.4090   53.6840   86.1070 C.ar   60  TYR60      -0.0201
      7  CD1       39.0620   54.9990   86.3940 C.ar   60  TYR60      -0.0009
      8  CD2       39.3670   52.7540   87.1390 C.ar   60  TYR60      -0.0009
      9  CE1       38.6940   55.3810   87.6730 C.ar   60  TYR60       0.0417
     10  CE2       39.0020   53.1250   88.4190 C.ar   60  TYR60       0.0417
     11  CZ        38.6650   54.4390   88.6810 C.ar   60  TYR60       0.1957
     12  OH        38.3000   54.8060   89.9560 O.3    60  TYR60      -0.2866
     13  N         42.9760   53.5270   88.4820 N.3    63  ILE63      -0.1245
     14  CA        42.6970   54.7720   89.1940 C.3    63  ILE63       0.1561
     15  C         43.7860   55.8000   88.8860 C.2    63  ILE63       0.2260
     16  O         44.3640   56.4060   89.7880 O.2    63  ILE63      -0.2867
     17  CB        42.5830   54.5620   90.7250 C.3    63  ILE63       0.0252
     18  CG1       41.8960   53.2310   91.0390 C.3    63  ILE63       0.0019
     19  CG2       41.8100   55.7100   91.3710 C.3    63  ILE63       0.0019
     20  CD1       41.8610   52.8970   92.5120 C.3    63  ILE63       0.0001
     21  N         53.4740   56.6980   99.1220 N.3   126  CYS126     -0.1221
     22  CA        52.1470   56.8920   98.5310 C.3   126  CYS126      0.1808
     23  C         51.6050   58.3080   98.7320 C.2   126  CYS126      0.2602
     24  O         52.2560   59.1590   99.3400 O.2   126  CYS126     -0.2717
     25  CB        51.1520   55.8700   99.0960 C.3   126  CYS126      0.0970
     26  SG        50.5600   56.1910  100.7740 S.3   126  CYS126     -0.0800
     27  N         50.4100   58.5550   98.2090 N.am  127  GLY127     -0.1942
     28  CA        49.8080   59.8730   98.2890 C.3   127  GLY127      0.2014
     29  C         49.5290   60.3060   99.7150 C.2   127  GLY127      0.2639
     30  O         49.7720   61.4610  100.0890 O.2   127  GLY127     -0.2714
     31  N         49.0320   59.3650  100.5140 N.am  128  SER128     -0.1949
     32  CA        48.6270   59.6510  101.8850 C.3   128  SER128      0.1924
     33  C         49.7820   60.0980  102.7720 C.2   128  SER128      0.2314
     34  O         49.6770   61.1300  103.4150 O.2   128  SER128     -0.2863
     35  CB        47.9380   58.4330  102.5070 C.3   128  SER128      0.2116
     36  OG        46.6030   58.3180  102.0440 O.3   128  SER128     -0.2180
     37  N         50.9780   63.5110  101.7840 N.3   131  ASN131     -0.1240
     38  CA        50.1490   64.5670  102.3620 C.3   131  ASN131      0.1653
     39  C         50.3040   64.7440  103.8760 C.2   131  ASN131      0.2266
     40  O         50.3350   65.8720  104.3600 O.2   131  ASN131     -0.2867
     41  CB        48.6770   64.3220  102.0230 C.3   131  ASN131      0.1155
     42  CG        48.3130   64.8120  100.6340 C.2   131  ASN131      0.2627
     43  OD1       48.9750   65.6950  100.0880 O.2   131  ASN131     -0.2716
     44  ND2       47.2540   64.2520  100.0600 N.am  131  ASN131     -0.0877
     45  N         39.5960   65.1400   98.1300 N.3   180  PHE180     -0.1227
     46  CA        40.1060   63.8410   98.5550 C.3   180  PHE180      0.1736
     47  C         41.6280   63.9070   98.6150 C.2   180  PHE180      0.2595
     48  O         42.2830   64.1490   97.6010 O.2   180  PHE180     -0.2718
     49  CB        39.6610   62.7170   97.6130 C.3   180  PHE180      0.0547
     50  CG        40.0500   61.3420   98.0940 C.ar  180  PHE180     -0.0202
     51  CD1       41.3200   60.8390   97.8570 C.ar  180  PHE180     -0.0042
     52  CD2       39.1490   60.5630   98.8030 C.ar  180  PHE180     -0.0042
     53  CE1       41.6830   59.5840   98.3120 C.ar  180  PHE180     -0.0003
     54  CE2       39.5030   59.3080   99.2580 C.ar  180  PHE180     -0.0003
     55  CZ        40.7730   58.8180   99.0140 C.ar  180  PHE180     -0.0000
     56  N         42.1900   63.6870   99.8000 N.am  181  HIS181     -0.1961
     57  CA        43.6330   63.8040   99.9820 C.3   181  HIS181      0.1787
     58  C         44.2500   62.5660  100.6320 C.2   181  HIS181      0.2621
     59  O         45.4200   62.5760  101.0210 O.2   181  HIS181     -0.2715
     60  CB        43.9570   65.0500  100.8090 C.3   181  HIS181      0.0785
     61  CG        43.5080   66.3280  100.1700 C.ar  181  HIS181      0.0821
     62  ND1       44.0110   66.7740   98.9650 N.ar  181  HIS181     -0.2267
     63  CD2       42.6000   67.2530  100.5630 C.ar  181  HIS181      0.1154
     64  CE1       43.4330   67.9190   98.6470 C.ar  181  HIS181      0.1986
     65  NE2       42.5720   68.2300   99.5980 N.ar  181  HIS181     -0.2212
     66  N         43.4700   61.4960  100.7420 N.am  182  GLY182     -0.1940
     67  CA        43.9860   60.2570  101.2950 C.3   182  GLY182      0.2014
     68  C         43.1800   59.7440  102.4700 C.2   182  GLY182      0.2638
     69  O         42.2710   60.4230  102.9480 O.2   182  GLY182     -0.2714
     70  N         43.5460   58.5590  102.9530 N.am  183  ARG183     -0.1977
     71  CA        42.7200   57.7990  103.8860 C.3   183  ARG183      0.1597
     72  C         43.2560   57.7170  105.3150 C.2   183  ARG183      0.2287
     73  O         42.5300   57.3100  106.2220 O.2   183  ARG183     -0.2864
     74  CB        42.5340   56.3800  103.3540 C.3   183  ARG183      0.0334
     75  CG        41.8660   56.3130  101.9990 C.3   183  ARG183      0.0492
     76  CD        40.3620   56.3640  102.1390 C.3   183  ARG183      0.2205
     77  NE        39.6950   55.9040  100.9260 N.pl3 183  ARG183     -0.0865
     78  CZ        38.5820   55.1820  100.9240 C.cat 183  ARG183      0.5346
     79  NH1       38.0180   54.8320  102.0720 N.pl3 183  ARG183      0.1354
     80  NH2       38.0380   54.8040   99.7760 N.pl3 183  ARG183      0.1354
     81  N         33.6000   57.2150  103.0620 N.3   197  HIS197     -0.1241
     82  CA        35.0260   57.3510  103.3520 C.3   197  HIS197      0.1621
     83  C         35.2610   57.8650  104.7700 C.2   197  HIS197      0.2264
     84  O         36.3090   57.6120  105.3660 O.2   197  HIS197     -0.2867
     85  CB        35.6990   58.3040  102.3590 C.3   197  HIS197      0.0745
     86  CG        35.5690   57.8910  100.9260 C.ar  197  HIS197      0.0817
     87  ND1       35.8010   58.7570   99.8800 N.ar  197  HIS197     -0.2268
     88  CD2       35.2360   56.7030  100.3640 C.ar  197  HIS197      0.1154
     89  CE1       35.6130   58.1250   98.7350 C.ar  197  HIS197      0.1986
     90  NE2       35.2700   56.8760   99.0010 N.ar  197  HIS197     -0.2212
     91  N         43.2850   70.4930   95.5030 N.3   256  GLU256     -0.1245
     92  CA        43.5710   69.8400   94.2290 C.3   256  GLU256      0.1567
     93  C         43.3210   70.8210   93.0900 C.2   256  GLU256      0.2260
     94  O         42.3530   71.5780   93.1310 O.2   256  GLU256     -0.2867
     95  CB        42.7000   68.5960   94.0370 C.3   256  GLU256      0.0388
     96  CG        42.6120   67.6740   95.2420 C.3   256  GLU256      0.1160
     97  CD        41.3890   66.7700   95.1860 C.2   256  GLU256      0.3649
     98  OE1       40.4590   66.9800   95.9930 O.co2 256  GLU256     -0.2457
     99  OE2       41.3530   65.8570   94.3310 O.co2 256  GLU256     -0.2457
    100  N         38.7790   65.3760   92.1610 N.3   260  SER260     -0.1202
    101  CA        38.5440   64.1360   91.4240 C.3   260  SER260      0.2020
    102  C         37.4110   63.2930   91.9950 C.2   260  SER260      0.2618
    103  O         36.3260   63.2420   91.4230 O.2   260  SER260     -0.2717
    104  CB        39.8220   63.3050   91.3820 C.3   260  SER260      0.2103
    105  OG        40.8050   63.9340   90.5810 O.3   260  SER260     -0.2182
    106  N         37.6620   62.6340   93.1230 N.am  261  GLU261     -0.1979
    107  CA        36.6660   61.7510   93.7280 C.3   261  GLU261      0.1602
    108  C         35.4540   62.5430   94.2160 C.2   261  GLU261      0.2287
    109  O         34.4010   61.9740   94.5050 O.2   261  GLU261     -0.2864
    110  CB        37.2840   60.9500   94.8770 C.3   261  GLU261      0.0415
    111  CG        36.4430   59.7600   95.3190 C.3   261  GLU261      0.1163
    112  CD        36.0430   58.8650   94.1580 C.2   261  GLU261      0.3649
    113  OE1       36.9320   58.4660   93.3750 O.co2 261  GLU261     -0.2457
    114  OE2       34.8380   58.5640   94.0210 O.co2 261  GLU261     -0.2457
    115  N         47.8780   69.4790   95.9950 N.3   289  ASP289     -0.1239
    116  CA        47.8610   68.0280   95.8950 C.3   289  ASP289      0.1674
    117  C         47.7340   67.6150   94.4320 C.2   289  ASP289      0.2266
    118  O         46.6400   67.6300   93.8750 O.2   289  ASP289     -0.2867
    119  CB        46.7070   67.4610   96.7290 C.3   289  ASP289      0.1410
    120  CG        46.6880   65.9430   96.7700 C.2   289  ASP289      0.3668
    121  OD1       47.3540   65.2970   95.9340 O.co2 289  ASP289     -0.2456
    122  OD2       45.9860   65.3920   97.6430 O.co2 289  ASP289     -0.2456
    123  N         48.6010   64.5600   93.3240 N.3   291  VAL291     -0.1231
    124  CA        48.7060   63.1060   93.3360 C.3   291  VAL291      0.1692
    125  C         47.9940   62.4920   92.1290 C.2   291  VAL291      0.2591
    126  O         48.4710   61.5090   91.5530 O.2   291  VAL291     -0.2718
    127  CB        48.1360   62.5160   94.6550 C.3   291  VAL291      0.0266
    128  CG1       47.7830   61.0400   94.4970 C.3   291  VAL291      0.0020
    129  CG2       49.1190   62.7190   95.7900 C.3   291  VAL291      0.0020
    130  N         46.8360   63.0450   91.8060 N.am  292  GLN292     -0.1979
    131  CA        46.0320   62.6090   90.6930 C.3   292  GLN292      0.1601
    132  C         46.2010   63.4110   89.4100 C.2   292  GLN292      0.2287
    133  O         46.1960   62.8710   88.3790 O.2   292  GLN292     -0.2864
    134  CB        44.5470   62.5020   91.0460 C.3   292  GLN292      0.0394
    135  CG        43.7490   61.9280   89.8820 C.3   292  GLN292      0.0908
    136  CD        42.5560   61.0730   90.2580 C.2   292  GLN292      0.2608
    137  OE1       41.8700   60.5480   89.4120 O.2   292  GLN292     -0.2717
    138  NE2       42.2920   60.9720   91.5150 N.am  292  GLN292     -0.0878
    139  N         52.0390   61.3370   93.6240 N.3   319  SER319     -0.1202
    140  CA        52.1150   59.8770   93.6700 C.3   319  SER319      0.2020
    141  C         51.5500   59.2830   92.3740 C.2   319  SER319      0.2618
    142  O         51.6390   59.9010   91.3100 O.2   319  SER319     -0.2717
    143  CB        51.3550   59.3260   94.8820 C.3   319  SER319      0.2103
    144  OG        51.6510   57.9560   95.0870 O.3   319  SER319     -0.2182
    145  N         50.9730   58.0870   92.4760 N.am  320  LYS320     -0.1979
    146  CA        50.2790   57.4300   91.3620 C.3   320  LYS320      0.1596
    147  C         51.1250   57.2860   90.0990 C.2   320  LYS320      0.2287
    148  O         51.9560   56.3860   90.0060 O.2   320  LYS320     -0.2864
    149  CB        48.9900   58.1800   91.0220 C.3   320  LYS320      0.0298
    150  CG        47.8420   57.9300   91.9920 C.3   320  LYS320      0.0038
    151  CD        46.5580   58.5490   91.4630 C.3   320  LYS320      0.0206
    152  CE        45.4230   58.4460   92.4610 C.3   320  LYS320      0.1093
    153  NZ        44.9660   57.0500   92.6700 N.3   320  LYS320     -0.1314
    154  N         33.9660   59.6100   84.5640 N.3   436  ARG436     -0.1245
    155  CA        35.2750   60.2280   84.3970 C.3   436  ARG436      0.1563
    156  C         36.2160   59.4770   83.5000 C.2   436  ARG436      0.2260
    157  O         36.0950   58.3000   83.3340 O.2   436  ARG436     -0.2867
    158  CB        35.9310   60.4530   85.7550 C.3   436  ARG436      0.0307
    159  CG        36.4120   59.1940   86.4050 C.3   436  ARG436      0.0489
    160  CD        36.4210   59.2650   87.9010 C.3   436  ARG436      0.2205
    161  NE        37.7670   59.3990   88.4010 N.pl3 436  ARG436     -0.0865
    162  CZ        38.1990   58.8550   89.5270 C.cat 436  ARG436      0.5346
    163  NH1       39.4400   59.0410   89.9170 N.pl3 436  ARG436      0.1354
    164  NH2       37.3840   58.1320   90.2600 N.pl3 436  ARG436      0.1354
@<TRIPOS>BOND
     1     1     2    1
     2   157   156    2
     3   156   155    1
     4     2     3    1
     5     2     5    1
     6   155   154    1
     7   155   158    1
     8     3     4    2
     9     5     6    1
    10   158   159    1
    11     6     7   ar
    12     6     8   ar
    13     7     9   ar
    14   159   160    1
    15     8    10   ar
    16     9    11   ar
    17   160   161    1
    18   133   132    2
    19   161   162    2
    20    10    11   ar
    21    13    14    1
    22    11    12    1
    23    15    14    1
    24    15    16    2
    25    14    17    1
    26   132   131    1
    27   137   136    2
    28   162   163    1
    29   162   164    1
    30   135   136    1
    31   135   134    1
    32   148   147    2
    33   147   146    1
    34   136   138   am
    35   105   104    1
    36   131   134    1
    37   131   130    1
    38    17    18    1
    39    17    19    1
    40   149   146    1
    41   149   150    1
    42    18    20    1
    43   142   141    2
    44   146   145    1
    45   104   101    1
    46   103   102    2
    47   101   102    1
    48   101   100    1
    49   151   150    1
    50   151   152    1
    51   126   125    2
    52   130   125   am
    53   102   106   am
    54   125   124    1
    55   141   145   am
    56   141   140    1
    57   152   153    1
    58    93    94    2
    59    93    92    1
    60   106   107    1
    61   123   124    1
    62   124   127    1
    63   113   112   ar
    64   139   140    1
    65   140   143    1
    66   107   108    1
    67   107   110    1
    68   118   117    2
    69   114   112   ar
    70    95    92    1
    71    95    96    1
    72   112   111    1
    73   108   109    2
    74    92    91    1
    75    99    97   ar
    76   117   116    1
    77   128   127    1
    78   127   129    1
    79   110   111    1
    80   143   144    1
    81    97    96    1
    82    97    98   ar
    83   116   115    1
    84   116   119    1
    85   121   120   ar
    86   119   120    1
    87   120   122   ar
    88    48    47    2
    89    49    50    1
    90    49    46    1
    91    51    50   ar
    92    51    53   ar
    93    50    52   ar
    94    45    46    1
    95    27    28    1
    96    27    23   am
    97    28    29    1
    98    53    55   ar
    99    22    23    1
   100    22    25    1
   101    22    21    1
   102    46    47    1
   103    47    56   am
   104    64    62   ar
   105    64    65   ar
   106    23    24    2
   107    89    90   ar
   108    89    87   ar
   109    52    54   ar
   110    62    61   ar
   111    90    88   ar
   112    55    54   ar
   113    25    26    1
   114    65    63   ar
   115    29    30    2
   116    29    31   am
   117    80    78    1
   118    56    57    1
   119    87    86   ar
   120    57    58    1
   121    57    60    1
   122    44    42   am
   123    43    42    2
   124    61    63   ar
   125    61    60    1
   126    88    86   ar
   127    31    32    1
   128    58    66   am
   129    58    59    2
   130    42    41    1
   131    66    67    1
   132    78    77    2
   133    78    79    1
   134    86    85    1
   135    77    76    1
   136    67    68    1
   137    37    38    1
   138    32    35    1
   139    32    33    1
   140    75    76    1
   141    75    74    1
   142    41    38    1
   143    36    35    1
   144    85    82    1
   145    38    39    1
   146    68    69    2
   147    68    70   am
   148    33    34    2
   149    70    71    1
   150    81    82    1
   151    82    83    1
   152    74    71    1
   153    39    40    2
   154    71    72    1
   155    83    84    2
   156    72    73    2
