@<TRIPOS>MOLECULE
tmp/4y0eH01.pdb
 169 163 0 0 0
SMALL
GASTEIGER

@<TRIPOS>ATOM
      1  N        -71.6040  -32.2340  115.5740 N.3    81  HIS81      -0.1241
      2  CA       -72.7720  -31.6380  114.9390 C.3    81  HIS81       0.1621
      3  C        -73.5610  -30.8310  115.9690 C.2    81  HIS81       0.2264
      4  O        -73.4860  -31.1170  117.1740 O.2    81  HIS81      -0.2867
      5  CB       -73.6520  -32.7230  114.3030 C.3    81  HIS81       0.0745
      6  CG       -74.6390  -32.1930  113.3110 C.ar   81  HIS81       0.0817
      7  ND1      -75.9240  -31.8350  113.6590 N.ar   81  HIS81      -0.2268
      8  CD2      -74.5230  -31.9370  111.9860 C.ar   81  HIS81       0.1154
      9  CE1      -76.5610  -31.3910  112.5900 C.ar   81  HIS81       0.1986
     10  NE2      -75.7340  -31.4430  111.5610 N.ar   81  HIS81      -0.2212
     11  N        -67.5710  -36.8510  113.5480 N.3    92  LEU92      -0.1245
     12  CA       -68.9020  -37.1650  113.0580 C.3    92  LEU92       0.1561
     13  C        -68.8330  -38.3830  112.1400 C.2    92  LEU92       0.2260
     14  O        -68.1260  -38.3730  111.1290 O.2    92  LEU92      -0.2867
     15  CB       -69.5200  -35.9590  112.3430 C.3    92  LEU92       0.0270
     16  CG       -70.9620  -36.1660  111.8810 C.3    92  LEU92       0.0019
     17  CD1      -71.8480  -36.5610  113.0680 C.3    92  LEU92       0.0001
     18  CD2      -71.4770  -34.9000  111.2040 C.3    92  LEU92       0.0001
     19  N        -70.3600  -40.2070  109.4760 N.3    94  LEU94      -0.1245
     20  CA       -71.3450  -40.1170  108.3980 C.3    94  LEU94       0.1561
     21  C        -71.5980  -41.4730  107.7400 C.2    94  LEU94       0.2260
     22  O        -70.6800  -42.0790  107.1890 O.2    94  LEU94      -0.2867
     23  CB       -70.8750  -39.1290  107.3400 C.3    94  LEU94       0.0270
     24  CG       -70.5560  -37.7260  107.8580 C.3    94  LEU94       0.0019
     25  CD1      -69.7210  -36.9790  106.8300 C.3    94  LEU94       0.0001
     26  CD2      -71.8340  -36.9710  108.2030 C.3    94  LEU94       0.0001
     27  N        -75.1230  -41.8030  102.1970 N.3    97  ALA97      -0.1231
     28  CA       -74.6540  -40.7460  101.3060 C.3    97  ALA97       0.1694
     29  C        -75.4400  -39.4670  101.5370 C.2    97  ALA97       0.2592
     30  O        -76.6680  -39.4800  101.5860 O.2    97  ALA97      -0.2718
     31  CB       -74.7700  -41.1800   99.8420 C.3    97  ALA97       0.0304
     32  N        -74.7190  -38.3600  101.6640 N.am   98  ALA98      -0.1966
     33  CA       -75.3380  -37.0590  101.8540 C.3    98  ALA98       0.1728
     34  C        -75.6940  -36.4330  100.5060 C.2    98  ALA98       0.2616
     35  O        -75.0710  -35.4440  100.1020 O.2    98  ALA98      -0.2715
     36  CB       -74.4090  -36.1510  102.6390 C.3    98  ALA98       0.0334
     37  N        -76.6750  -37.0260   99.8160 N.am   99  ASN99      -0.1958
     38  CA       -77.0340  -36.6240   98.4510 C.3    99  ASN99       0.1819
     39  C        -78.0120  -35.4540   98.2920 C.2    99  ASN99       0.2621
     40  O        -79.1280  -35.6120   97.8040 O.2    99  ASN99      -0.2715
     41  CB       -77.5650  -37.8440   97.6770 C.3    99  ASN99       0.1195
     42  CG       -78.8010  -38.4640   98.2970 C.2    99  ASN99       0.2630
     43  OD1      -78.9950  -38.4260   99.5180 O.2    99  ASN99      -0.2716
     44  ND2      -79.6380  -39.0690   97.4530 N.am   99  ASN99      -0.0877
     45  N        -77.5520  -34.2730   98.6700 N.am  100  GLY100     -0.1954
     46  CA       -78.2580  -33.0210   98.4350 C.3   100  GLY100      0.1869
     47  C        -77.1380  -32.0030   98.4600 C.2   100  GLY100      0.2309
     48  O        -76.2570  -32.1120   99.3130 O.2   100  GLY100     -0.2863
     49  N        -75.0920  -29.0420   99.4310 N.3   102  HIS102     -0.1241
     50  CA       -75.1150  -28.2090  100.6120 C.3   102  HIS102      0.1621
     51  C        -73.7440  -27.7160  101.0030 C.2   102  HIS102      0.2264
     52  O        -72.7250  -28.3130  100.6640 O.2   102  HIS102     -0.2867
     53  CB       -75.7330  -28.9820  101.7940 C.3   102  HIS102      0.0745
     54  CG       -74.9290  -30.1750  102.2210 C.ar  102  HIS102      0.0817
     55  ND1      -74.9130  -31.3560  101.5060 N.ar  102  HIS102     -0.2268
     56  CD2      -74.0960  -30.3610  103.2740 C.ar  102  HIS102      0.1154
     57  CE1      -74.1140  -32.2220  102.1060 C.ar  102  HIS102      0.1986
     58  NE2      -73.6080  -31.6440  103.1830 N.ar  102  HIS102     -0.2212
     59  N        -71.8400  -27.1450  104.6400 N.3   104  ASP104     -0.1225
     60  CA       -72.0400  -27.7410  105.9660 C.3   104  ASP104      0.1805
     61  C        -72.5260  -26.7370  106.9980 C.2   104  ASP104      0.2597
     62  O        -71.9570  -25.6590  107.1290 O.2   104  ASP104     -0.2718
     63  CB       -70.7470  -28.3890  106.4770 C.3   104  ASP104      0.1424
     64  CG       -70.4670  -29.7080  105.8010 C.2   104  ASP104      0.3668
     65  OD1      -71.4580  -30.3790  105.4470 O.co2 104  ASP104     -0.2456
     66  OD2      -69.2810  -30.0600  105.6140 O.co2 104  ASP104     -0.2456
     67  N        -73.5670  -27.1380  107.7280 N.am  105  VAL105     -0.1980
     68  CA       -74.0940  -26.4190  108.8840 C.3   105  VAL105      0.1595
     69  C        -74.2670  -24.9190  108.6330 C.2   105  VAL105      0.2287
     70  O        -73.8050  -24.0980  109.4230 O.2   105  VAL105     -0.2864
     71  CB       -73.1980  -26.6150  110.1360 C.3   105  VAL105      0.0276
     72  CG1      -74.0200  -26.3570  111.4010 C.3   105  VAL105      0.0022
     73  CG2      -72.6410  -28.0370  110.1970 C.3   105  VAL105      0.0022
     74  N        -77.0200  -23.3930  108.8260 N.3   107  PHE107     -0.1241
     75  CA       -78.1880  -22.8970  109.5390 C.3   107  PHE107      0.1605
     76  C        -77.8250  -22.2190  110.8660 C.2   107  PHE107      0.2264
     77  O        -78.7090  -21.7060  111.5510 O.2   107  PHE107     -0.2867
     78  CB       -79.2070  -24.0270  109.7780 C.3   107  PHE107      0.0534
     79  CG       -78.6190  -25.2860  110.3680 C.ar  107  PHE107     -0.0203
     80  CD1      -78.3830  -25.3850  111.7330 C.ar  107  PHE107     -0.0042
     81  CD2      -78.3580  -26.3880  109.5680 C.ar  107  PHE107     -0.0042
     82  CE1      -77.8620  -26.5470  112.2890 C.ar  107  PHE107     -0.0003
     83  CE2      -77.8390  -27.5600  110.1220 C.ar  107  PHE107     -0.0003
     84  CZ       -77.5920  -27.6320  111.4840 C.ar  107  PHE107     -0.0000
     85  N        -84.7770  -28.9840  107.0580 N.3   160  TYR160     -0.1227
     86  CA       -84.7130  -29.0420  105.5980 C.3   160  TYR160      0.1736
     87  C        -85.7260  -30.0200  105.0080 C.2   160  TYR160      0.2595
     88  O        -86.4480  -30.7050  105.7350 O.2   160  TYR160     -0.2718
     89  CB       -83.2930  -29.4110  105.1430 C.3   160  TYR160      0.0548
     90  CG       -82.8610  -30.8010  105.5500 C.ar  160  TYR160     -0.0200
     91  CD1      -82.3010  -31.0330  106.7990 C.ar  160  TYR160     -0.0009
     92  CD2      -83.0170  -31.8810  104.6910 C.ar  160  TYR160     -0.0009
     93  CE1      -81.9070  -32.3020  107.1840 C.ar  160  TYR160      0.0417
     94  CE2      -82.6270  -33.1570  105.0670 C.ar  160  TYR160      0.0417
     95  CZ       -82.0730  -33.3610  106.3150 C.ar  160  TYR160      0.1957
     96  OH       -81.6830  -34.6260  106.6990 O.3   160  TYR160     -0.2866
     97  N        -85.7660  -30.0820  103.6790 N.am  161  ASP161     -0.1974
     98  CA       -86.7060  -30.9470  102.9760 C.3   161  ASP161      0.1709
     99  C        -85.9770  -32.0140  102.1690 C.2   161  ASP161      0.2293
    100  O        -86.0900  -33.2070  102.4580 O.2   161  ASP161     -0.2864
    101  CB       -87.6150  -30.1170  102.0670 C.3   161  ASP161      0.1436
    102  CG       -88.8090  -29.5230  102.7280 C.2   161  ASP161      0.3671
    103  OD1      -89.0730  -29.7800  103.8830 O.co2 161  ASP161     -0.2456
    104  OD2      -89.5460  -28.7780  101.9630 O.co2 161  ASP161     -0.2456
    105  N        -83.1650  -43.5720  108.5160 N.3   171  ARG171     -0.1245
    106  CA       -83.1530  -42.2500  107.8930 C.3   171  ARG171      0.1563
    107  C        -84.1790  -41.3160  108.5530 C.2   171  ARG171      0.2260
    108  O        -83.9320  -40.1160  108.7160 O.2   171  ARG171     -0.2867
    109  CB       -83.4080  -42.3680  106.3890 C.3   171  ARG171      0.0307
    110  CG       -82.2720  -43.0410  105.6370 C.3   171  ARG171      0.0489
    111  CD       -82.6120  -43.2900  104.1750 C.3   171  ARG171      0.2205
    112  NE       -82.3310  -42.1260  103.3360 N.pl3 171  ARG171     -0.0865
    113  CZ       -83.2640  -41.3160  102.8440 C.cat 171  ARG171      0.5346
    114  NH1      -84.5480  -41.5590  103.0830 N.pl3 171  ARG171      0.1354
    115  NH2      -82.9180  -40.2790  102.0920 N.pl3 171  ARG171      0.1354
    116  N        -82.8330  -40.4710  112.0640 N.3   174  TYR174     -0.1241
    117  CA       -81.7480  -39.5070  111.9220 C.3   174  TYR174      0.1605
    118  C        -82.2930  -38.0860  111.7900 C.2   174  TYR174      0.2264
    119  O        -81.8050  -37.1640  112.4440 O.2   174  TYR174     -0.2867
    120  CB       -80.8790  -39.8460  110.7120 C.3   174  TYR174      0.0534
    121  CG       -79.8770  -38.7700  110.3700 C.ar  174  TYR174     -0.0201
    122  CD1      -78.7020  -38.6270  111.1000 C.ar  174  TYR174     -0.0009
    123  CD2      -80.1200  -37.8730  109.3320 C.ar  174  TYR174     -0.0009
    124  CE1      -77.7850  -37.6280  110.7890 C.ar  174  TYR174      0.0417
    125  CE2      -79.2150  -36.8720  109.0170 C.ar  174  TYR174      0.0417
    126  CZ       -78.0520  -36.7550  109.7470 C.ar  174  TYR174      0.1957
    127  OH       -77.1550  -35.7670  109.4270 O.3   174  TYR174     -0.2866
    128  N        -81.8000  -34.8280  114.0530 N.3   178  PHE178     -0.1241
    129  CA       -81.2240  -33.6880  113.3380 C.3   178  PHE178      0.1605
    130  C        -82.0170  -32.4110  113.6220 C.2   178  PHE178      0.2264
    131  O        -81.4540  -31.3220  113.7280 O.2   178  PHE178     -0.2867
    132  CB       -81.2040  -33.9700  111.8280 C.3   178  PHE178      0.0534
    133  CG       -80.3690  -32.9980  111.0250 C.ar  178  PHE178     -0.0203
    134  CD1      -80.8690  -31.7540  110.6600 C.ar  178  PHE178     -0.0042
    135  CD2      -79.0920  -33.3470  110.6000 C.ar  178  PHE178     -0.0042
    136  CE1      -80.1000  -30.8600  109.9120 C.ar  178  PHE178     -0.0003
    137  CE2      -78.3210  -32.4620  109.8490 C.ar  178  PHE178     -0.0003
    138  CZ       -78.8260  -31.2170  109.5070 C.ar  178  PHE178     -0.0000
    139  N        -78.8710  -26.5380  100.3270 N.3   205  GLN205     -0.1231
    140  CA       -80.1350  -27.1890  100.6750 C.3   205  GLN205      0.1698
    141  C        -80.8040  -26.6630  101.9470 C.2   205  GLN205      0.2592
    142  O        -81.9910  -26.8830  102.1530 O.2   205  GLN205     -0.2718
    143  CB       -79.9180  -28.7070  100.8200 C.3   205  GLN205      0.0381
    144  CG       -79.3520  -29.1560  102.1750 C.3   205  GLN205      0.0905
    145  CD       -79.2280  -30.6750  102.2900 C.2   205  GLN205      0.2608
    146  OE1      -78.7780  -31.3440  101.3640 O.2   205  GLN205     -0.2717
    147  NE2      -79.6580  -31.2230  103.4230 N.am  205  GLN205     -0.0878
    148  N        -80.0480  -25.9960  102.8240 N.am  206  PHE206     -0.1976
    149  CA       -80.6630  -25.5100  104.0790 C.3   206  PHE206      0.1639
    150  C        -81.4430  -24.2040  103.9040 C.2   206  PHE206      0.2290
    151  O        -82.1110  -23.7320  104.8380 O.2   206  PHE206     -0.2864
    152  CB       -79.6100  -25.3120  105.1760 C.3   206  PHE206      0.0560
    153  CG       -78.9610  -26.5930  105.6220 C.ar  206  PHE206     -0.0200
    154  CD1      -79.7270  -27.6320  106.1180 C.ar  206  PHE206     -0.0042
    155  CD2      -77.5830  -26.7580  105.5410 C.ar  206  PHE206     -0.0042
    156  CE1      -79.1300  -28.8270  106.5230 C.ar  206  PHE206     -0.0003
    157  CE2      -76.9820  -27.9480  105.9480 C.ar  206  PHE206     -0.0003
    158  CZ       -77.7620  -28.9800  106.4450 C.ar  206  PHE206     -0.0000
    159  N        -65.7420  -37.4440  109.8910 N.3   270  ARG270     -0.1245
    160  CA       -65.4990  -36.0360  109.6250 C.3   270  ARG270      0.1563
    161  C        -65.0500  -35.2780  110.8680 C.2   270  ARG270      0.2260
    162  O        -65.5520  -35.5270  111.9690 O.2   270  ARG270     -0.2867
    163  CB       -66.7740  -35.3990  109.0590 C.3   270  ARG270      0.0307
    164  CG       -66.6210  -33.9740  108.5650 C.3   270  ARG270      0.0489
    165  CD       -67.9570  -33.4790  107.9880 C.3   270  ARG270      0.2205
    166  NE       -68.8380  -32.9280  109.0140 N.pl3 270  ARG270     -0.0865
    167  CZ       -70.0380  -32.4050  108.7730 C.cat 270  ARG270      0.5346
    168  NH1      -70.5310  -32.3900  107.5370 N.pl3 270  ARG270      0.1354
    169  NH2      -70.7540  -31.9100  109.7740 N.pl3 270  ARG270      0.1354
@<TRIPOS>BOND
     1    44    42   am
     2    41    42    1
     3    41    38    1
     4    40    39    2
     5    39    38    1
     6    39    45   am
     7    42    43    2
     8    46    47    1
     9    46    45    1
    10    38    37    1
    11    47    48    2
    12    49    50    1
    13    37    34   am
    14    31    28    1
    15    35    34    2
    16   139   140    1
    17    34    33    1
    18    50    51    1
    19    50    53    1
    20    52    51    2
    21   140   143    1
    22   140   141    1
    23   143   144    1
    24    28    29    1
    25    28    27    1
    26   146   145    2
    27    55    57   ar
    28    55    54   ar
    29    29    30    2
    30    29    32   am
    31    32    33    1
    32    53    54    1
    33    33    36    1
    34   141   142    2
    35   141   148   am
    36   104   102   ar
    37   101   102    1
    38   101    98    1
    39   115   113    1
    40    57    58   ar
    41    99   100    2
    42    99    98    1
    43   144   145    1
    44    54    56   ar
    45   145   147   am
    46   102   103   ar
    47   148   149    1
    48   113   114    1
    49   113   112    2
    50    98    97    1
    51    58    56   ar
    52   112   111    1
    53    97    87   am
    54   150   149    1
    55   150   151    2
    56   149   152    1
    57   111   110    1
    58    59    60    1
    59    92    94   ar
    60    92    90   ar
    61    87    86    1
    62    87    88    2
    63    94    95   ar
    64    89    90    1
    65    89    86    1
    66   152   153    1
    67    65    64   ar
    68   155   153   ar
    69   155   157   ar
    70    90    91   ar
    71    86    85    1
    72    66    64   ar
    73   153   154   ar
    74   110   109    1
    75    64    63    1
    76   157   158   ar
    77    60    63    1
    78    60    61    1
    79   154   156   ar
    80    95    96    1
    81    95    93   ar
    82   109   106    1
    83   158   156   ar
    84    91    93   ar
    85    25    24    1
    86    61    62    2
    87    61    67   am
    88    22    21    2
    89    23    24    1
    90    23    20    1
    91   168   167    1
    92    67    68    1
    93    21    20    1
    94    24    26    1
    95   106   105    1
    96   106   107    1
    97   165   164    1
    98   165   166    1
    99    20    19    1
   100   107   108    2
   101   164   163    1
   102    69    68    1
   103    69    70    2
   104   167   166    2
   105   167   169    1
   106    74    75    1
   107    68    71    1
   108   125   123   ar
   109   125   126   ar
   110   163   160    1
   111   123   121   ar
   112   127   126    1
   113   138   137   ar
   114   138   136   ar
   115    75    78    1
   116    75    76    1
   117    81    83   ar
   118    81    79   ar
   119   160   159    1
   120   160   161    1
   121   126   124   ar
   122    78    79    1
   123   137   135   ar
   124   136   134   ar
   125    83    84   ar
   126    71    73    1
   127    71    72    1
   128    79    80   ar
   129   121   120    1
   130   121   122   ar
   131   135   133   ar
   132   134   133   ar
   133   120   117    1
   134   124   122   ar
   135    76    77    2
   136   161   162    2
   137   133   132    1
   138    14    13    2
   139    18    16    1
   140    84    82   ar
   141    10     8   ar
   142    10     9   ar
   143    80    82   ar
   144   118   117    1
   145   118   119    2
   146   132   129    1
   147    16    15    1
   148    16    17    1
   149   117   116    1
   150     8     6   ar
   151    13    12    1
   152    15    12    1
   153     9     7   ar
   154    12    11    1
   155     6     7   ar
   156     6     5    1
   157   129   130    1
   158   129   128    1
   159   130   131    2
   160     5     2    1
   161     2     1    1
   162     2     3    1
   163     3     4    2
