@<TRIPOS>MOLECULE
tmp/4y0eH00.pdb
 100 91 0 0 0
SMALL
GASTEIGER

@<TRIPOS>ATOM
      1  N        -52.5560  -24.9500  104.4630 N.3    45  ARG45      -0.1245
      2  CA       -53.5400  -23.8770  104.5880 C.3    45  ARG45       0.1563
      3  C        -53.6310  -23.0520  103.3030 C.2    45  ARG45       0.2260
      4  O        -54.7230  -22.7320  102.8210 O.2    45  ARG45      -0.2867
      5  CB       -53.1910  -22.9590  105.7710 C.3    45  ARG45       0.0307
      6  CG       -54.3660  -22.1140  106.2630 C.3    45  ARG45       0.0489
      7  CD       -53.9770  -21.0930  107.3430 C.3    45  ARG45       0.2205
      8  NE       -53.4170  -21.7020  108.5470 N.pl3  45  ARG45      -0.0865
      9  CZ       -54.1410  -22.1970  109.5490 C.cat  45  ARG45       0.5346
     10  NH1      -55.4670  -22.1760  109.4920 N.pl3  45  ARG45       0.1354
     11  NH2      -53.5370  -22.7260  110.6120 N.pl3  45  ARG45       0.1354
     12  N        -55.1040  -25.1070  100.3860 N.3    48  LEU48      -0.1231
     13  CA       -56.5520  -25.2270  100.5190 C.3    48  LEU48       0.1693
     14  C        -57.2350  -23.9340  100.0750 C.2    48  LEU48       0.2591
     15  O        -58.2300  -23.9670   99.3390 O.2    48  LEU48      -0.2718
     16  CB       -56.9350  -25.5650  101.9650 C.3    48  LEU48       0.0284
     17  CG       -58.4150  -25.7990  102.2910 C.3    48  LEU48       0.0019
     18  CD1      -58.9570  -27.0190  101.5400 C.3    48  LEU48       0.0001
     19  CD2      -58.6170  -25.9500  103.8140 C.3    48  LEU48       0.0001
     20  N        -56.6860  -22.7980  100.4930 N.am   49  ALA49      -0.1980
     21  CA       -57.2630  -21.5090  100.1310 C.3    49  ALA49       0.1597
     22  C        -57.3400  -21.3480   98.6210 C.2    49  ALA49       0.2287
     23  O        -58.3510  -20.8770   98.0910 O.2    49  ALA49      -0.2864
     24  CB       -56.4460  -20.3680  100.7320 C.3    49  ALA49       0.0319
     25  N        -55.1960  -27.0330  112.0850 N.3    74  LEU74      -0.1245
     26  CA       -55.7780  -26.0900  111.1300 C.3    74  LEU74       0.1561
     27  C        -56.8490  -25.1910  111.7670 C.2    74  LEU74       0.2260
     28  O        -57.2060  -24.1620  111.2060 O.2    74  LEU74      -0.2867
     29  CB       -56.3670  -26.8420  109.9310 C.3    74  LEU74       0.0270
     30  CG       -55.3810  -27.4630  108.9340 C.3    74  LEU74       0.0019
     31  CD1      -56.1220  -28.2800  107.8900 C.3    74  LEU74       0.0001
     32  CD2      -54.5550  -26.3720  108.2530 C.3    74  LEU74       0.0001
     33  N        -65.6370  -23.4250  109.1580 N.3   113  LYS113     -0.1231
     34  CA       -64.8110  -22.9210  108.0680 C.3   113  LYS113      0.1693
     35  C        -64.2790  -24.0280  107.1540 C.2   113  LYS113      0.2591
     36  O        -64.0200  -23.7860  105.9720 O.2   113  LYS113     -0.2718
     37  CB       -63.6400  -22.0990  108.6240 C.3   113  LYS113      0.0285
     38  CG       -62.5620  -22.9290  109.3520 C.3   113  LYS113      0.0035
     39  CD       -61.4230  -22.0580  109.8490 C.3   113  LYS113      0.0206
     40  CE       -60.3100  -22.9120  110.4420 C.3   113  LYS113      0.1093
     41  NZ       -59.1200  -22.0960  110.8210 N.3   113  LYS113     -0.1314
     42  N        -64.1470  -25.2420  107.6850 N.am  114  ALA114     -0.1980
     43  CA       -63.5220  -26.3270  106.9430 C.3   114  ALA114      0.1597
     44  C        -63.8370  -27.6950  107.5280 C.2   114  ALA114      0.2287
     45  O        -64.2520  -27.8100  108.6790 O.2   114  ALA114     -0.2864
     46  CB       -61.9980  -26.1200  106.8990 C.3   114  ALA114      0.0319
     47  N        -64.9750  -13.9160  101.8200 N.3   193  HIS193     -0.1241
     48  CA       -64.1060  -14.8390  102.5600 C.3   193  HIS193      0.1621
     49  C        -63.1410  -14.0550  103.4440 C.2   193  HIS193      0.2264
     50  O        -62.3960  -13.2040  102.9510 O.2   193  HIS193     -0.2867
     51  CB       -63.3630  -15.7590  101.5810 C.3   193  HIS193      0.0745
     52  CG       -62.7060  -16.9500  102.2160 C.ar  193  HIS193      0.0817
     53  ND1      -61.7300  -16.8380  103.1840 N.ar  193  HIS193     -0.2268
     54  CD2      -62.8590  -18.2780  101.9900 C.ar  193  HIS193      0.1154
     55  CE1      -61.3120  -18.0470  103.5290 C.ar  193  HIS193      0.1986
     56  NE2      -61.9790  -18.9370  102.8170 N.ar  193  HIS193     -0.2212
     57  N        -60.4170  -14.8100  104.9370 N.3   195  GLU195     -0.1245
     58  CA       -58.9900  -15.0940  104.8680 C.3   195  GLU195      0.1567
     59  C        -58.4160  -14.8680  103.4670 C.2   195  GLU195      0.2260
     60  O        -57.2420  -14.5140  103.3270 O.2   195  GLU195     -0.2867
     61  CB       -58.7330  -16.5160  105.3800 C.3   195  GLU195      0.0388
     62  CG       -59.1630  -16.6430  106.8500 C.3   195  GLU195      0.1160
     63  CD       -58.8570  -17.9880  107.4820 C.2   195  GLU195      0.3649
     64  OE1      -58.2730  -18.8510  106.8030 O.co2 195  GLU195     -0.2457
     65  OE2      -59.2000  -18.1750  108.6730 O.co2 195  GLU195     -0.2457
     66  N        -62.6420  -26.2510  102.0000 N.3   249  ASP249     -0.1239
     67  CA       -62.9280  -24.9250  102.5060 C.3   249  ASP249      0.1674
     68  C        -64.4410  -24.7550  102.4640 C.2   249  ASP249      0.2266
     69  O        -65.0300  -24.5860  101.3980 O.2   249  ASP249     -0.2867
     70  CB       -62.1990  -23.8710  101.6550 C.3   249  ASP249      0.1410
     71  CG       -62.3460  -22.4510  102.1990 C.2   249  ASP249      0.3668
     72  OD1      -63.2220  -22.2050  103.0580 O.co2 249  ASP249     -0.2456
     73  OD2      -61.5750  -21.5780  101.7550 O.co2 249  ASP249     -0.2456
     74  N        -66.1510  -22.3800  103.3260 N.3   251  ARG251     -0.1245
     75  CA       -66.5470  -21.0010  103.0290 C.3   251  ARG251      0.1563
     76  C        -66.5790  -20.7430  101.5190 C.2   251  ARG251      0.2260
     77  O        -66.9700  -19.6650  101.0670 O.2   251  ARG251     -0.2867
     78  CB       -65.5810  -20.0210  103.6880 C.3   251  ARG251      0.0307
     79  CG       -65.5790  -20.0150  105.2090 C.3   251  ARG251      0.0489
     80  CD       -64.6410  -18.9050  105.6730 C.3   251  ARG251      0.2205
     81  NE       -64.6730  -18.6750  107.1150 N.pl3 251  ARG251     -0.0865
     82  CZ       -63.6030  -18.6780  107.9070 C.cat 251  ARG251      0.5346
     83  NH1      -62.3970  -18.9430  107.4200 N.pl3 251  ARG251      0.1354
     84  NH2      -63.7480  -18.4250  109.1960 N.pl3 251  ARG251      0.1354
     85  N        -64.0000  -27.7040  111.5720 N.3   273  LEU273     -0.1245
     86  CA       -63.2750  -26.6790  112.2960 C.3   273  LEU273      0.1561
     87  C        -64.1360  -25.4300  112.4100 C.2   273  LEU273      0.2260
     88  O        -64.8370  -25.0610  111.4590 O.2   273  LEU273     -0.2867
     89  CB       -61.9520  -26.3600  111.5930 C.3   273  LEU273      0.0270
     90  CG       -61.0400  -27.5760  111.3860 C.3   273  LEU273      0.0019
     91  CD1      -59.9090  -27.2330  110.4300 C.3   273  LEU273      0.0001
     92  CD2      -60.5110  -28.0840  112.7290 C.3   273  LEU273      0.0001
     93  N        -54.7960  -13.9830  104.8160 N.3   305  LEU305     -0.1245
     94  CA       -53.6240  -14.5010  104.1130 C.3   305  LEU305      0.1561
     95  C        -52.8980  -13.3690  103.3940 C.2   305  LEU305      0.2260
     96  O        -53.5240  -12.5690  102.6970 O.2   305  LEU305     -0.2867
     97  CB       -54.0060  -15.5870  103.1130 C.3   305  LEU305      0.0270
     98  CG       -54.5230  -16.9170  103.6570 C.3   305  LEU305      0.0019
     99  CD1      -55.3200  -17.5860  102.5680 C.3   305  LEU305      0.0001
    100  CD2      -53.3790  -17.8150  104.1110 C.3   305  LEU305      0.0001
@<TRIPOS>BOND
     1    23    22    2
     2    22    21    1
     3    15    14    2
     4    14    20   am
     5    14    13    1
     6    21    20    1
     7    21    24    1
     8    12    13    1
     9    13    16    1
    10    77    76    2
    11    69    68    2
    12    76    75    1
    13    18    17    1
    14    51    52    1
    15    51    48    1
    16    70    71    1
    17    70    67    1
    18    73    71   ar
    19    47    48    1
    20    16    17    1
    21    54    52   ar
    22    54    56   ar
    23    66    67    1
    24    71    72   ar
    25    52    53   ar
    26    17    19    1
    27    68    67    1
    28    48    49    1
    29    99    98    1
    30    96    95    2
    31    56    55   ar
    32     4     3    2
    33    50    49    2
    34    75    74    1
    35    75    78    1
    36    97    98    1
    37    97    94    1
    38    53    55   ar
    39     3     2    1
    40    60    59    2
    41    95    94    1
    42    59    58    1
    43    98   100    1
    44    78    79    1
    45    94    93    1
    46     1     2    1
    47     2     5    1
    48    58    57    1
    49    58    61    1
    50    79    80    1
    51    61    62    1
    52    80    81    1
    53     5     6    1
    54    36    35    2
    55     6     7    1
    56    64    63   ar
    57    62    63    1
    58    46    43    1
    59    43    44    1
    60    43    42    1
    61    81    82    2
    62    35    42   am
    63    35    34    1
    64     7     8    1
    65    83    82    1
    66    63    65   ar
    67    44    45    2
    68    31    30    1
    69    82    84    1
    70    34    37    1
    71    34    33    1
    72    32    30    1
    73     8     9    2
    74    37    38    1
    75    30    29    1
    76    38    39    1
    77    10     9    1
    78     9    11    1
    79    39    40    1
    80    29    26    1
    81    91    90    1
    82    40    41    1
    83    26    27    1
    84    26    25    1
    85    28    27    2
    86    90    89    1
    87    90    92    1
    88    88    87    2
    89    85    86    1
    90    89    86    1
    91    86    87    1
