@<TRIPOS>MOLECULE
tmp/4y0hD00.pdb
 121 114 0 0 0
SMALL
GASTEIGER

@<TRIPOS>ATOM
      1  N         66.8960   48.9200  110.3090 N.3    63  ILE63      -0.1245
      2  CA        65.8980   49.0880  111.3500 C.3    63  ILE63       0.1561
      3  C         65.0300   47.8540  111.4080 C.2    63  ILE63       0.2260
      4  O         63.8060   47.9250  111.4160 O.2    63  ILE63      -0.2867
      5  CB        65.0400   50.3570  111.1950 C.3    63  ILE63       0.0252
      6  CG1       65.7910   51.5840  110.5380 C.3    63  ILE63       0.0019
      7  CG2       64.4740   50.7350  112.5270 C.3    63  ILE63       0.0019
      8  CD1       64.9510   52.8600  110.4330 C.3    63  ILE63       0.0001
      9  N         53.0130   49.7670  104.5280 N.3   126  CYS126     -0.1221
     10  CA        53.9580   50.0770  105.6020 C.3   126  CYS126      0.1808
     11  C         53.3160   49.9020  106.9640 C.2   126  CYS126      0.2602
     12  O         52.0940   49.5810  107.0920 O.2   126  CYS126     -0.2717
     13  CB        54.5560   51.4460  105.3730 C.3   126  CYS126      0.0970
     14  SG        53.5390   52.8130  105.9830 S.3   126  CYS126     -0.0800
     15  N         54.1160   50.0850  107.9930 N.am  127  GLY127     -0.1942
     16  CA        53.6700   49.8520  109.3360 C.3   127  GLY127      0.2014
     17  C         52.6540   50.9120  109.7210 C.2   127  GLY127      0.2639
     18  O         51.7740   50.6280  110.5270 O.2   127  GLY127     -0.2714
     19  N         52.9170   52.1450  109.2900 N.am  128  SER128     -0.1949
     20  CA        52.0330   53.2380  109.7080 C.3   128  SER128      0.1924
     21  C         50.6480   53.1170  109.1570 C.2   128  SER128      0.2314
     22  O         49.6670   53.3070  109.8850 O.2   128  SER128     -0.2863
     23  CB        52.6060   54.6130  109.3410 C.3   128  SER128      0.2116
     24  OG        53.8470   54.8670  110.0560 O.3   128  SER128     -0.2180
     25  N         48.8630   50.3450  111.0620 N.3   131  ASN131     -0.1240
     26  CA        48.2750   50.8060  112.3340 C.3   131  ASN131      0.1653
     27  C         47.0930   51.7540  112.1480 C.2   131  ASN131      0.2266
     28  O         46.0900   51.6630  112.8980 O.2   131  ASN131     -0.2867
     29  CB        49.3320   51.3870  113.2540 C.3   131  ASN131      0.1155
     30  CG        50.1960   50.2910  113.9150 C.2   131  ASN131      0.2627
     31  OD1       49.7490   49.1110  114.1320 O.2   131  ASN131     -0.2716
     32  ND2       51.4480   50.6770  114.2690 N.am  131  ASN131     -0.0877
     33  N         56.1930   53.0300  120.2880 N.3   180  PHE180     -0.1227
     34  CA        56.3710   53.5850  118.9600 C.3   180  PHE180      0.1736
     35  C         55.4890   52.8290  118.0080 C.2   180  PHE180      0.2595
     36  O         55.5780   51.6060  117.8630 O.2   180  PHE180     -0.2718
     37  CB        57.8340   53.4870  118.5180 C.3   180  PHE180      0.0547
     38  CG        58.0320   54.1490  117.1840 C.ar  180  PHE180     -0.0202
     39  CD1       58.3390   55.4950  117.1490 C.ar  180  PHE180     -0.0042
     40  CD2       57.8980   53.3910  116.0300 C.ar  180  PHE180     -0.0042
     41  CE1       58.4780   56.0930  115.9080 C.ar  180  PHE180     -0.0003
     42  CE2       58.0650   53.9760  114.8000 C.ar  180  PHE180     -0.0003
     43  CZ        58.3170   55.3310  114.7760 C.ar  180  PHE180     -0.0000
     44  N         54.6270   53.5640  117.3280 N.am  181  HIS181     -0.1961
     45  CA        53.6390   52.9580  116.4050 C.3   181  HIS181      0.1787
     46  C         53.5910   53.5740  115.0080 C.2   181  HIS181      0.2620
     47  O         52.7520   53.2250  114.1850 O.2   181  HIS181     -0.2715
     48  CB        52.2100   52.9030  117.0420 C.3   181  HIS181      0.0785
     49  CG        52.1710   52.1310  118.3320 C.ar  181  HIS181      0.0821
     50  ND1       52.4510   50.8010  118.3940 N.ar  181  HIS181     -0.2267
     51  CD2       51.9360   52.5190  119.6200 C.ar  181  HIS181      0.1154
     52  CE1       52.3490   50.3800  119.6630 C.ar  181  HIS181      0.1986
     53  NE2       52.0430   51.3970  120.4100 N.ar  181  HIS181     -0.2212
     54  N         54.5230   54.4460  114.7300 N.am  182  GLY182     -0.1954
     55  CA        54.5010   55.1810  113.4820 C.3   182  GLY182      0.1869
     56  C         54.3440   56.6640  113.6780 C.2   182  GLY182      0.2309
     57  O         54.1270   57.1500  114.8120 O.2   182  GLY182     -0.2863
     58  N         53.1470   47.0560  121.8260 N.3   256  GLU256     -0.1245
     59  CA        54.2040   46.2110  121.2260 C.3   256  GLU256      0.1567
     60  C         54.5060   45.0700  122.2040 C.2   256  GLU256      0.2260
     61  O         54.5340   45.3250  123.4280 O.2   256  GLU256     -0.2867
     62  CB        55.4740   47.0570  121.0790 C.3   256  GLU256      0.0388
     63  CG        55.3440   48.2590  120.1080 C.3   256  GLU256      0.1160
     64  CD        56.4100   49.3530  120.3800 C.2   256  GLU256      0.3649
     65  OE1       56.1110   50.2700  121.1870 O.co2 256  GLU256     -0.2457
     66  OE2       57.5650   49.2300  119.8720 O.co2 256  GLU256     -0.2457
     67  N         61.6310   51.3250  119.6260 N.3   261  GLU261     -0.1245
     68  CA        62.3090   52.6350  119.4960 C.3   261  GLU261      0.1567
     69  C         62.4110   53.3480  120.8230 C.2   261  GLU261      0.2260
     70  O         63.3330   54.1150  121.0690 O.2   261  GLU261     -0.2867
     71  CB        61.5150   53.5170  118.5540 C.3   261  GLU261      0.0388
     72  CG        61.3820   52.9210  117.2040 C.3   261  GLU261      0.1160
     73  CD        62.6960   52.5490  116.5350 C.2   261  GLU261      0.3649
     74  OE1       63.5420   53.4630  116.4200 O.co2 261  GLU261     -0.2457
     75  OE2       62.8660   51.3770  116.1110 O.co2 261  GLU261     -0.2457
     76  N         51.0140   45.3080  117.9990 N.3   289  ASP289     -0.1239
     77  CA        51.8650   45.8490  116.9390 C.3   289  ASP289      0.1674
     78  C         53.1620   45.0240  116.8310 C.2   289  ASP289      0.2266
     79  O         54.0060   45.1680  117.7000 O.2   289  ASP289     -0.2867
     80  CB        52.1200   47.3430  117.2100 C.3   289  ASP289      0.1410
     81  CG        53.0510   47.9950  116.1790 C.2   289  ASP289      0.3668
     82  OD1       53.6260   47.2270  115.3500 O.co2 289  ASP289     -0.2456
     83  OD2       53.1290   49.2580  116.1660 O.co2 289  ASP289     -0.2456
     84  N         55.0800   45.0810  114.0760 N.3   291  VAL291     -0.1231
     85  CA        55.8060   45.6120  112.9240 C.3   291  VAL291      0.1692
     86  C         57.3200   45.3360  113.1750 C.2   291  VAL291      0.2592
     87  O         58.0360   44.9450  112.2220 O.2   291  VAL291     -0.2718
     88  CB        55.5230   47.0770  112.7090 C.3   291  VAL291      0.0266
     89  CG1       56.6160   47.7150  111.8660 C.3   291  VAL291      0.0020
     90  CG2       54.0870   47.2560  112.1770 C.3   291  VAL291      0.0020
     91  N         57.7900   45.5240  114.4200 N.am  292  GLN292     -0.1966
     92  CA        59.2160   45.2680  114.6930 C.3   292  GLN292      0.1733
     93  C         59.5270   43.9170  115.3150 C.2   292  GLN292      0.2617
     94  O         60.5970   43.3310  115.0420 O.2   292  GLN292     -0.2715
     95  CB        59.8800   46.4070  115.4680 C.3   292  GLN292      0.0408
     96  CG        61.4220   46.3800  115.4210 C.3   292  GLN292      0.0908
     97  CD        62.0990   47.6630  115.8020 C.2   292  GLN292      0.2608
     98  OE1       63.2800   47.6250  116.2150 O.2   292  GLN292     -0.2717
     99  NE2       61.4320   48.7910  115.6470 N.am  292  GLN292     -0.0878
    100  N         58.6510   43.3930  116.1310 N.am  293  THR293     -0.1951
    101  CA        58.8950   42.0980  116.7460 C.3   293  THR293      0.1897
    102  C         58.6090   40.9090  115.8110 C.2   293  THR293      0.2313
    103  O         59.1420   39.8000  116.0450 O.2   293  THR293     -0.2863
    104  CB        58.1240   41.9310  118.0660 C.3   293  THR293      0.1794
    105  OG1       56.7270   42.1060  117.7800 O.3   293  THR293     -0.2208
    106  CG2       58.5350   42.8520  119.1160 C.3   293  THR293      0.0378
    107  N         54.9290   44.6080  109.3780 N.3   319  SER319     -0.1202
    108  CA        55.5760   45.2770  108.2680 C.3   319  SER319      0.2020
    109  C         57.0850   44.8850  108.3270 C.2   319  SER319      0.2618
    110  O         57.4070   43.7910  108.7540 O.2   319  SER319     -0.2717
    111  CB        55.3120   46.7780  108.1920 C.3   319  SER319      0.2103
    112  OG        55.7770   47.2980  106.9300 O.3   319  SER319     -0.2182
    113  N         57.9540   45.8080  107.9860 N.am  320  LYS320     -0.1975
    114  CA        59.4330   45.6000  108.1170 C.3   320  LYS320      0.1639
    115  C         59.8950   44.2310  107.5100 C.2   320  LYS320      0.2290
    116  O         59.8520   44.1500  106.2810 O.2   320  LYS320     -0.2864
    117  CB        59.8410   45.8500  109.5230 C.3   320  LYS320      0.0554
    118  CG        59.9150   47.3080  109.8770 C.2   320  LYS320     -0.0270
    119  CD        60.5600   47.7140  111.2060 C.2   320  LYS320     -0.0102
    120  CE        60.7970   49.2570  111.4540 C.3   320  LYS320      0.1350
    121  NZ        59.5940   49.8450  112.1900 N.3   320  LYS320     -0.1262
@<TRIPOS>BOND
     1     9    10    1
     2    13    10    1
     3    13    14    1
     4    10    11    1
     5   116   115    2
     6   112   111    1
     7    11    12    2
     8    11    15   am
     9   115   114    1
    10   113   114    1
    11   113   109   am
    12    15    16    1
    13   114   117    1
    14   111   108    1
    15   108   109    1
    16   108   107    1
    17   109   110    2
    18    21    20    1
    19    21    22    2
    20    19    20    1
    21    19    17   am
    22    16    17    1
    23    23    20    1
    24    23    24    1
    25   117   118    1
    26    17    18    2
    27   118   119    2
    28     1     2    1
    29     8     6    1
    30     6     5    1
    31    25    26    1
    32     5     2    1
    33     5     7    1
    34   119   120    1
    35     2     3    1
    36     3     4    2
    37   120   121    1
    38    89    88    1
    39    27    26    1
    40    27    28    2
    41    90    88    1
    42    87    86    2
    43    26    29    1
    44    88    85    1
    45    85    86    1
    46    85    84    1
    47    86    91   am
    48    29    30    1
    49    55    56    1
    50    55    54    1
    51    56    57    2
    52    30    31    2
    53    30    32   am
    54    47    46    2
    55    91    92    1
    56    92    93    1
    57    92    95    1
    58    54    46   am
    59    43    42   ar
    60    43    41   ar
    61    42    40   ar
    62    46    45    1
    63    94    93    2
    64    93   100   am
    65    82    81   ar
    66    96    95    1
    67    96    97    1
    68    99    97   am
    69    97    98    2
    70   102   103    2
    71   102   101    1
    72    41    39   ar
    73    40    38   ar
    74    75    73   ar
    75   100   101    1
    76    83    81   ar
    77    81    80    1
    78    45    48    1
    79    45    44    1
    80    74    73   ar
    81    73    72    1
    82   101   104    1
    83    78    77    1
    84    78    79    2
    85    77    80    1
    86    77    76    1
    87    48    49    1
    88    39    38   ar
    89    38    37    1
    90    72    71    1
    91    44    35   am
    92   105   104    1
    93    36    35    2
    94    35    34    1
    95   104   106    1
    96    49    50   ar
    97    49    51   ar
    98    50    52   ar
    99    37    34    1
   100    71    68    1
   101    34    33    1
   102    68    67    1
   103    68    69    1
   104    51    53   ar
   105    52    53   ar
   106    66    64   ar
   107    63    64    1
   108    63    62    1
   109    64    65   ar
   110    69    70    2
   111    62    59    1
   112    59    58    1
   113    59    60    1
   114    60    61    2
