@<TRIPOS>MOLECULE
tmp/4y0iC00.pdb
 164 156 0 0 0
SMALL
GASTEIGER

@<TRIPOS>ATOM
      1  N         40.2910   53.8750   83.1870 N.3    59  TYR59      -0.1241
      2  CA        40.2820   54.1600   84.6290 C.3    59  TYR59       0.1605
      3  C         41.6800   53.9830   85.2350 C.2    59  TYR59       0.2264
      4  O         42.0060   54.5700   86.2750 O.2    59  TYR59      -0.2867
      5  CB        39.2800   53.2480   85.3440 C.3    59  TYR59       0.0534
      6  CG        38.9740   53.6190   86.7830 C.ar   59  TYR59      -0.0201
      7  CD1       38.6970   54.9380   87.1410 C.ar   59  TYR59      -0.0009
      8  CD2       38.9170   52.6430   87.7720 C.ar   59  TYR59      -0.0009
      9  CE1       38.3910   55.2760   88.4670 C.ar   59  TYR59       0.0417
     10  CE2       38.6150   52.9680   89.0900 C.ar   59  TYR59       0.0417
     11  CZ        38.3480   54.2830   89.4260 C.ar   59  TYR59       0.1957
     12  OH        38.0460   54.5920   90.7380 O.3    59  TYR59      -0.2866
     13  N         42.5510   53.4010   89.2350 N.3    62  ILE62      -0.1245
     14  CA        42.3090   54.6630   89.9350 C.3    62  ILE62       0.1561
     15  C         43.4160   55.6870   89.6050 C.2    62  ILE62       0.2260
     16  O         44.0240   56.2990   90.5020 O.2    62  ILE62      -0.2867
     17  CB        42.1890   54.4650   91.4710 C.3    62  ILE62       0.0252
     18  CG1       41.4860   53.1490   91.8130 C.3    62  ILE62       0.0019
     19  CG2       41.4290   55.6410   92.1180 C.3    62  ILE62       0.0019
     20  CD1       41.2750   52.9360   93.3150 C.3    62  ILE62       0.0001
     21  N         53.0330   56.4960   99.7070 N.3   125  CYS125     -0.1221
     22  CA        51.6880   56.6380   99.1360 C.3   125  CYS125      0.1808
     23  C         51.1670   58.0600   99.2780 C.2   125  CYS125      0.2602
     24  O         51.8540   58.9210   99.8200 O.2   125  CYS125     -0.2717
     25  CB        50.6950   55.6490   99.7810 C.3   125  CYS125      0.0970
     26  SG        50.0880   56.0870  101.4580 S.3   125  CYS125     -0.0800
     27  N         49.9600   58.3040   98.7880 N.am  126  GLY126     -0.1942
     28  CA        49.4100   59.6490   98.8250 C.3   126  GLY126      0.2014
     29  C         49.0050   60.0940  100.2220 C.2   126  GLY126      0.2639
     30  O         49.1240   61.2710  100.5670 O.2   126  GLY126     -0.2714
     31  N         48.5030   59.1620  101.0280 N.am  127  SER127     -0.1949
     32  CA        48.1290   59.4770  102.4050 C.3   127  SER127      0.1924
     33  C         49.3180   59.8940  103.2660 C.2   127  SER127      0.2314
     34  O         49.2380   60.9260  103.9280 O.2   127  SER127     -0.2863
     35  CB        47.4060   58.2840  103.0430 C.3   127  SER127      0.2116
     36  OG        46.1620   58.0960  102.3740 O.3   127  SER127     -0.2180
     37  N         50.4550   63.3640  102.2320 N.3   130  ASN130     -0.1240
     38  CA        49.7030   64.4680  102.8000 C.3   130  ASN130      0.1653
     39  C         49.9210   64.6030  104.3040 C.2   130  ASN130      0.2266
     40  O         50.0580   65.7230  104.8010 O.2   130  ASN130     -0.2867
     41  CB        48.2100   64.3260  102.4800 C.3   130  ASN130      0.1155
     42  CG        47.8840   64.7850  101.0730 C.2   130  ASN130      0.2627
     43  OD1       48.5590   65.6620  100.5430 O.2   130  ASN130     -0.2716
     44  ND2       46.8530   64.1860  100.4470 N.am  130  ASN130     -0.0877
     45  N         39.1680   65.0610   98.5340 N.3   179  PHE179     -0.1227
     46  CA        39.6810   63.7690   98.9590 C.3   179  PHE179      0.1736
     47  C         41.1950   63.8400   99.0320 C.2   179  PHE179      0.2595
     48  O         41.8610   64.1350   98.0390 O.2   179  PHE179     -0.2718
     49  CB        39.2520   62.6360   98.0300 C.3   179  PHE179      0.0547
     50  CG        39.6340   61.2720   98.5530 C.ar  179  PHE179     -0.0202
     51  CD1       40.9040   60.7580   98.3150 C.ar  179  PHE179     -0.0042
     52  CD2       38.7410   60.5420   99.3350 C.ar  179  PHE179     -0.0042
     53  CE1       41.2770   59.5240   98.8300 C.ar  179  PHE179     -0.0003
     54  CE2       39.0980   59.3030   99.8490 C.ar  179  PHE179     -0.0003
     55  CZ        40.3680   58.7880   99.5900 C.ar  179  PHE179     -0.0000
     56  N         41.7230   63.5490  100.2160 N.am  180  HIS180     -0.1961
     57  CA        43.1480   63.6830  100.4600 C.3   180  HIS180      0.1787
     58  C         43.7360   62.4420  101.1140 C.2   180  HIS180      0.2621
     59  O         44.9040   62.4360  101.5110 O.2   180  HIS180     -0.2715
     60  CB        43.4050   64.9240  101.3270 C.3   180  HIS180      0.0785
     61  CG        43.0040   66.2030  100.6550 C.ar  180  HIS180      0.0821
     62  ND1       43.5440   66.6020   99.4500 N.ar  180  HIS180     -0.2267
     63  CD2       42.0970   67.1520  100.9950 C.ar  180  HIS180      0.1154
     64  CE1       43.0010   67.7520   99.0870 C.ar  180  HIS180      0.1986
     65  NE2       42.1190   68.1080  100.0060 N.ar  180  HIS180     -0.2212
     66  N         42.9260   61.3970  101.2290 N.am  181  GLY181     -0.1940
     67  CA        43.3950   60.1510  101.8040 C.3   181  GLY181      0.2014
     68  C         42.6510   59.7180  103.0500 C.2   181  GLY181      0.2638
     69  O         41.7200   60.3890  103.5110 O.2   181  GLY181     -0.2714
     70  N         43.1170   58.6160  103.6310 N.am  182  ARG182     -0.1977
     71  CA        42.3070   57.8200  104.5570 C.3   182  ARG182      0.1597
     72  C         42.8330   57.6940  105.9880 C.2   182  ARG182      0.2287
     73  O         42.0830   57.3020  106.8970 O.2   182  ARG182     -0.2864
     74  CB        42.1630   56.3980  103.9950 C.3   182  ARG182      0.0334
     75  CG        41.4270   56.2830  102.6660 C.3   182  ARG182      0.0492
     76  CD        39.9700   55.9910  102.8940 C.3   182  ARG182      0.2205
     77  NE        39.2960   55.5440  101.6790 N.pl3 182  ARG182     -0.0865
     78  CZ        38.0940   54.9740  101.6820 C.cat 182  ARG182      0.5346
     79  NH1       37.4640   54.7870  102.8380 N.pl3 182  ARG182      0.1354
     80  NH2       37.5390   54.5720  100.5470 N.pl3 182  ARG182      0.1354
     81  N         33.2000   57.1460  103.5200 N.3   196  HIS196     -0.1241
     82  CA        34.6250   57.3680  103.8070 C.3   196  HIS196      0.1621
     83  C         34.8620   57.9070  105.2090 C.2   196  HIS196      0.2264
     84  O         35.9610   57.7730  105.7600 O.2   196  HIS196     -0.2867
     85  CB        35.2320   58.3640  102.8070 C.3   196  HIS196      0.0745
     86  CG        35.2130   57.8950  101.3890 C.ar  196  HIS196      0.0817
     87  ND1       35.4440   58.7410  100.3240 N.ar  196  HIS196     -0.2268
     88  CD2       35.0020   56.6670  100.8580 C.ar  196  HIS196      0.1154
     89  CE1       35.3770   58.0540   99.1980 C.ar  196  HIS196      0.1986
     90  NE2       35.1010   56.7960   99.4930 N.ar  196  HIS196     -0.2212
     91  N         42.8970   70.2690   95.9750 N.3   255  GLU255     -0.1245
     92  CA        43.2090   69.6250   94.7050 C.3   255  GLU255      0.1567
     93  C         42.9640   70.6050   93.5650 C.2   255  GLU255      0.2260
     94  O         41.9910   71.3590   93.6150 O.2   255  GLU255     -0.2867
     95  CB        42.3320   68.3940   94.4740 C.3   255  GLU255      0.0388
     96  CG        42.3550   67.3250   95.5710 C.3   255  GLU255      0.1160
     97  CD        41.0410   66.5410   95.6280 C.2   255  GLU255      0.3649
     98  OE1       40.1860   66.9010   96.4640 O.co2 255  GLU255     -0.2457
     99  OE2       40.8700   65.5740   94.8410 O.co2 255  GLU255     -0.2457
    100  N         38.6770   65.1440   92.6190 N.3   259  SER259     -0.1202
    101  CA        38.3730   63.8810   91.9420 C.3   259  SER259      0.2020
    102  C         37.2270   63.1060   92.5840 C.2   259  SER259      0.2618
    103  O         36.1190   63.0360   92.0440 O.2   259  SER259     -0.2717
    104  CB        39.6150   62.9890   91.9050 C.3   259  SER259      0.2103
    105  OG        40.5960   63.5130   91.0310 O.3   259  SER259     -0.2182
    106  N         37.5050   62.4950   93.7310 N.am  260  GLU260     -0.1979
    107  CA        36.5420   61.5820   94.3470 C.3   260  GLU260      0.1602
    108  C         35.2420   62.2760   94.6940 C.2   260  GLU260      0.2287
    109  O         34.1840   61.6360   94.7690 O.2   260  GLU260     -0.2864
    110  CB        37.1320   60.9430   95.5970 C.3   260  GLU260      0.0415
    111  CG        38.4070   60.1810   95.3180 C.3   260  GLU260      0.1163
    112  CD        38.3040   59.3480   94.0470 C.2   260  GLU260      0.3649
    113  OE1       39.1260   59.5660   93.1240 O.co2 260  GLU260     -0.2457
    114  OE2       37.4080   58.4670   93.9770 O.co2 260  GLU260     -0.2457
    115  N         47.4710   69.3350   96.4740 N.3   288  ASP288     -0.1239
    116  CA        47.4660   67.8740   96.3870 C.3   288  ASP288      0.1674
    117  C         47.3570   67.4670   94.9210 C.2   288  ASP288      0.2266
    118  O         46.2860   67.5640   94.3270 O.2   288  ASP288     -0.2867
    119  CB        46.3070   67.3100   97.2270 C.3   288  ASP288      0.1410
    120  CG        46.1970   65.7910   97.1880 C.2   288  ASP288      0.3668
    121  OD1       46.8030   65.1380   96.3190 O.co2 288  ASP288     -0.2456
    122  OD2       45.4490   65.2460   98.0320 O.co2 288  ASP288     -0.2456
    123  N         48.1540   64.3690   93.9470 N.3   290  VAL290     -0.1231
    124  CA        48.1960   62.9020   93.9200 C.3   290  VAL290      0.1692
    125  C         47.4390   62.3560   92.7070 C.2   290  VAL290      0.2591
    126  O         47.9190   61.4500   92.0320 O.2   290  VAL290     -0.2718
    127  CB        47.6370   62.3060   95.2210 C.3   290  VAL290      0.0266
    128  CG1       47.3890   60.7890   95.0920 C.3   290  VAL290      0.0020
    129  CG2       48.6050   62.6030   96.3710 C.3   290  VAL290      0.0020
    130  N         46.2710   62.9150   92.4030 N.am  291  GLN291     -0.1979
    131  CA        45.5160   62.3900   91.2530 C.3   291  GLN291      0.1601
    132  C         45.6680   63.2270   89.9670 C.2   291  GLN291      0.2287
    133  O         45.6310   62.6910   88.8540 O.2   291  GLN291     -0.2864
    134  CB        44.0280   62.2390   91.6090 C.3   291  GLN291      0.0394
    135  CG        43.2590   61.4320   90.5530 C.3   291  GLN291      0.0908
    136  CD        41.9470   60.7970   91.0300 C.2   291  GLN291      0.2608
    137  OE1       41.1050   60.4440   90.2070 O.2   291  GLN291     -0.2717
    138  NE2       41.7800   60.6260   92.3510 N.am  291  GLN291     -0.0878
    139  N         51.6470   61.1200   94.0810 N.3   318  SER318     -0.1202
    140  CA        51.7260   59.6650   94.2020 C.3   318  SER318      0.2020
    141  C         51.1380   59.0920   92.9110 C.2   318  SER318      0.2618
    142  O         51.2860   59.7040   91.8610 O.2   318  SER318     -0.2717
    143  CB        50.9880   59.1400   95.4330 C.3   318  SER318      0.2103
    144  OG        51.2780   57.7670   95.6130 O.3   318  SER318     -0.2182
    145  N         50.5110   57.9200   92.9930 N.am  319  LYS319     -0.1979
    146  CA        49.8410   57.2850   91.8410 C.3   319  LYS319      0.1596
    147  C         50.7340   57.1450   90.6060 C.2   319  LYS319      0.2287
    148  O         51.6130   56.2920   90.5910 O.2   319  LYS319     -0.2864
    149  CB        48.5580   58.0430   91.4800 C.3   319  LYS319      0.0298
    150  CG        47.4020   57.7930   92.4810 C.3   319  LYS319      0.0038
    151  CD        46.1290   58.4560   91.9910 C.3   319  LYS319      0.0206
    152  CE        44.9950   58.3800   93.0120 C.3   319  LYS319      0.1093
    153  NZ        44.4500   57.0040   93.2610 N.3   319  LYS319     -0.1314
    154  N         33.7140   59.3190   85.0500 N.3   435  ARG435     -0.1245
    155  CA        34.9860   60.0080   84.8680 C.3   435  ARG435      0.1563
    156  C         35.9340   59.2120   83.9980 C.2   435  ARG435      0.2260
    157  O         35.7950   57.9950   83.8600 O.2   435  ARG435     -0.2867
    158  CB        35.6600   60.2780   86.2130 C.3   435  ARG435      0.0307
    159  CG        35.9650   59.0150   87.0010 C.3   435  ARG435      0.0489
    160  CD        36.9050   59.3070   88.1460 C.3   435  ARG435      0.2205
    161  NE        36.6180   58.4810   89.3090 N.pl3 435  ARG435     -0.0865
    162  CZ        37.3050   58.5430   90.4420 C.cat 435  ARG435      0.5346
    163  NH1       38.3330   59.3790   90.5480 N.pl3 435  ARG435      0.1354
    164  NH2       36.9720   57.7710   91.4630 N.pl3 435  ARG435      0.1354
@<TRIPOS>BOND
     1     1     2    1
     2   157   156    2
     3   156   155    1
     4     2     3    1
     5     2     5    1
     6   155   154    1
     7   155   158    1
     8     3     4    2
     9     5     6    1
    10   158   159    1
    11     6     7   ar
    12     6     8   ar
    13   159   160    1
    14     7     9   ar
    15     8    10   ar
    16   160   161    1
    17     9    11   ar
    18   133   132    2
    19    10    11   ar
    20    13    14    1
    21   161   162    2
    22    11    12    1
    23    15    14    1
    24    15    16    2
    25    14    17    1
    26   132   131    1
    27   137   136    2
    28   162   163    1
    29   162   164    1
    30   135   136    1
    31   135   134    1
    32   148   147    2
    33   147   146    1
    34   136   138   am
    35   105   104    1
    36   131   134    1
    37   131   130    1
    38    17    18    1
    39    17    19    1
    40   149   146    1
    41   149   150    1
    42    18    20    1
    43   146   145    1
    44   142   141    2
    45   104   101    1
    46   101   102    1
    47   101   100    1
    48   151   150    1
    49   151   152    1
    50   126   125    2
    51   103   102    2
    52   130   125   am
    53   102   106   am
    54   125   124    1
    55   141   145   am
    56   141   140    1
    57   152   153    1
    58   113   112   ar
    59    93    94    2
    60    93    92    1
    61   106   107    1
    62   124   123    1
    63   124   127    1
    64   114   112   ar
    65   112   111    1
    66   139   140    1
    67   140   143    1
    68   118   117    2
    69   107   108    1
    70   107   110    1
    71    95    92    1
    72    95    96    1
    73   108   109    2
    74    92    91    1
    75    99    97   ar
    76   117   116    1
    77   128   127    1
    78   127   129    1
    79   111   110    1
    80   143   144    1
    81    96    97    1
    82    97    98   ar
    83   121   120   ar
    84   116   115    1
    85   116   119    1
    86   120   119    1
    87   120   122   ar
    88    49    50    1
    89    49    46    1
    90    48    47    2
    91    51    50   ar
    92    51    53   ar
    93    45    46    1
    94    50    52   ar
    95    27    28    1
    96    27    23   am
    97    28    29    1
    98    53    55   ar
    99    46    47    1
   100    47    56   am
   101    64    62   ar
   102    64    65   ar
   103    22    23    1
   104    22    21    1
   105    22    25    1
   106    89    90   ar
   107    89    87   ar
   108    23    24    2
   109    52    54   ar
   110    62    61   ar
   111    90    88   ar
   112    55    54   ar
   113    25    26    1
   114    65    63   ar
   115    56    57    1
   116    29    30    2
   117    29    31   am
   118    87    86   ar
   119    44    42   am
   120    57    58    1
   121    57    60    1
   122    43    42    2
   123    80    78    1
   124    61    63   ar
   125    61    60    1
   126    88    86   ar
   127    31    32    1
   128    42    41    1
   129    58    66   am
   130    58    59    2
   131    66    67    1
   132    86    85    1
   133    77    78    2
   134    77    76    1
   135    78    79    1
   136    67    68    1
   137    37    38    1
   138    36    35    1
   139    32    35    1
   140    32    33    1
   141    41    38    1
   142    75    76    1
   143    75    74    1
   144    38    39    1
   145    85    82    1
   146    68    69    2
   147    68    70   am
   148    33    34    2
   149    81    82    1
   150    70    71    1
   151    82    83    1
   152    74    71    1
   153    39    40    2
   154    71    72    1
   155    83    84    2
   156    72    73    2
