@<TRIPOS>MOLECULE
tmp/4y0pA00.pdb
 176 157 0 0 0
SMALL
GASTEIGER

@<TRIPOS>ATOM
      1  N         -4.8010   23.8420    9.3920 N.3    12  ILE12      -0.1245
      2  CA        -3.9720   22.7230    9.8230 C.3    12  ILE12       0.1561
      3  C         -2.4610   22.9370    9.6880 C.2    12  ILE12       0.2260
      4  O         -1.6790   22.3570   10.4640 O.2    12  ILE12      -0.2867
      5  CB        -4.4100   21.3840    9.1590 C.3    12  ILE12       0.0252
      6  CG1       -3.8260   20.1770    9.8900 C.3    12  ILE12       0.0019
      7  CG2       -4.0530   21.3240    7.6780 C.3    12  ILE12       0.0019
      8  CD1       -4.1970   20.0770   11.3670 C.3    12  ILE12       0.0001
      9  N         -0.6090   24.4220   12.8590 N.3    15  VAL15      -0.1245
     10  CA        -0.3470   23.5910   14.0560 C.3    15  VAL15       0.1561
     11  C          0.9810   22.8290   13.9370 C.2    15  VAL15       0.2260
     12  O          1.3820   22.1030   14.8490 O.2    15  VAL15      -0.2867
     13  CB        -1.5150   22.6340   14.4370 C.3    15  VAL15       0.0252
     14  CG1       -2.8530   23.3220   14.3100 C.3    15  VAL15       0.0019
     15  CG2       -1.4810   21.3520   13.6430 C.3    15  VAL15       0.0019
     16  N         -3.4760    2.4750   27.4920 N.3    38  PRO38      -0.2102
     17  CA        -3.5870    2.6230   26.0360 C.3    38  PRO38       0.1504
     18  C         -3.5250    4.0540   25.5120 C.2    38  PRO38       0.2575
     19  O         -2.9850    4.2670   24.4390 O.2    38  PRO38      -0.2718
     20  CB        -4.9700    2.0470   25.7090 C.3    38  PRO38       0.0282
     21  CG        -5.3250    1.1810   26.8610 C.3    38  PRO38       0.0208
     22  CD        -4.5890    1.6870   28.0620 C.3    38  PRO38       0.0893
     23  N         -4.0760    5.0250   26.2410 N.am   39  LEU39      -0.1980
     24  CA        -4.1140    6.4040   25.7300 C.3    39  LEU39       0.1596
     25  C         -3.1940    7.3900   26.4270 C.2    39  LEU39       0.2287
     26  O         -3.2360    8.5850   26.1650 O.2    39  LEU39      -0.2864
     27  CB        -5.5560    6.9120   25.6540 C.3    39  LEU39       0.0297
     28  CG        -6.1880    7.0060   24.2530 C.3    39  LEU39       0.0022
     29  CD1       -5.8520    5.8510   23.3230 C.3    39  LEU39       0.0001
     30  CD2       -7.6830    7.1180   24.4080 C.3    39  LEU39       0.0001
     31  N         -0.4160    8.9800   25.9870 N.3    41  VAL41      -0.1245
     32  CA         0.4900    9.2740   24.8950 C.3    41  VAL41       0.1561
     33  C          0.8820   10.7360   25.0180 C.2    41  VAL41       0.2260
     34  O          0.0780   11.5710   25.4010 O.2    41  VAL41      -0.2867
     35  CB        -0.0940    8.9130   23.5090 C.3    41  VAL41       0.0252
     36  CG1       -0.4760    7.4410   23.4790 C.3    41  VAL41       0.0019
     37  CG2       -1.2800    9.8080   23.1530 C.3    41  VAL41       0.0019
     38  N          2.5940   13.9310   23.2430 N.3    43  VAL43      -0.1245
     39  CA         2.7900   14.4230   21.8960 C.3    43  VAL43       0.1561
     40  C          4.1510   15.1180   21.8340 C.2    43  VAL43       0.2260
     41  O          4.5280   15.8390   22.7580 O.2    43  VAL43      -0.2867
     42  CB         1.6660   15.3920   21.4560 C.3    43  VAL43       0.0252
     43  CG1        1.9760   15.9980   20.0920 C.3    43  VAL43       0.0019
     44  CG2        0.3260   14.6900   21.3870 C.3    43  VAL43       0.0019
     45  N          3.7630   17.9260   15.6780 N.3    46  LEU46      -0.1245
     46  CA         2.7830   17.7180   14.6170 C.3    46  LEU46       0.1561
     47  C          3.3230   18.1500   13.2410 C.2    46  LEU46       0.2260
     48  O          3.8340   19.2720   13.0820 O.2    46  LEU46      -0.2867
     49  CB         1.4540   18.4140   14.9250 C.3    46  LEU46       0.0270
     50  CG         0.8020   18.0020   16.2540 C.3    46  LEU46       0.0019
     51  CD1       -0.2630   19.0210   16.6280 C.3    46  LEU46       0.0001
     52  CD2        0.2570   16.5790   16.1020 C.3    46  LEU46       0.0001
     53  N         -2.3830   14.4930    8.6980 N.3    54  LEU54      -0.1245
     54  CA        -1.6180   14.9360    9.8460 C.3    54  LEU54       0.1561
     55  C         -0.7630   13.8100   10.3610 C.2    54  LEU54       0.2260
     56  O         -1.2800   12.7770   10.8030 O.2    54  LEU54      -0.2867
     57  CB        -2.5350   15.4960   10.9340 C.3    54  LEU54       0.0270
     58  CG        -1.9220   16.2280   12.1310 C.3    54  LEU54       0.0019
     59  CD1       -1.2800   17.5640   11.7500 C.3    54  LEU54       0.0001
     60  CD2       -3.0130   16.4280   13.1710 C.3    54  LEU54       0.0001
     61  N          1.6730   12.5080   13.1950 N.3    56  ILE56      -0.1245
     62  CA         1.8650   12.7910   14.6120 C.3    56  ILE56       0.1561
     63  C          3.0360   11.9720   15.1350 C.2    56  ILE56       0.2260
     64  O          3.0350   10.7230   15.0390 O.2    56  ILE56      -0.2867
     65  CB         0.6080   12.4630   15.4430 C.3    56  ILE56       0.0252
     66  CG1       -0.6250   13.1300   14.8360 C.3    56  ILE56       0.0019
     67  CG2        0.7910   12.9560   16.8760 C.3    56  ILE56       0.0019
     68  CD1       -1.8950   12.3410   15.0080 C.3    56  ILE56       0.0001
     69  N          4.9280   10.9940   18.6260 N.3    58  LEU58      -0.1245
     70  CA         4.7540   11.0030   20.0740 C.3    58  LEU58       0.1561
     71  C          5.5760    9.9310   20.7600 C.2    58  LEU58       0.2260
     72  O          6.3340    9.2240   20.1220 O.2    58  LEU58      -0.2867
     73  CB         3.2730   10.8450   20.4640 C.3    58  LEU58       0.0270
     74  CG         2.3270    9.7050   20.0210 C.3    58  LEU58       0.0019
     75  CD1        2.0720    9.7150   18.5280 C.3    58  LEU58       0.0001
     76  CD2        2.7220    8.3030   20.4730 C.3    58  LEU58       0.0001
     77  N          5.1870    6.7460   23.8780 N.3    60  LYS60      -0.1245
     78  CA         4.3540    5.9100   24.7320 C.3    60  LYS60       0.1561
     79  C          5.2320    4.9820   25.5850 C.2    60  LYS60       0.2260
     80  O          6.3420    4.6280   25.1850 O.2    60  LYS60      -0.2867
     81  CB         3.3530    5.1140   23.8770 C.3    60  LYS60       0.0271
     82  CG         2.5460    4.1200   24.6730 C.3    60  LYS60       0.0035
     83  CD         1.1030    4.0150   24.2290 C.3    60  LYS60       0.0206
     84  CE         0.3420    3.2350   25.2840 C.3    60  LYS60       0.1093
     85  NZ         0.8150    3.5910   26.6640 N.3    60  LYS60      -0.1314
     86  N          5.5290    1.3440   26.6940 N.3    62  GLU62      -0.1245
     87  CA         4.9610    0.1260   26.1140 C.3    62  GLU62       0.1567
     88  C          5.5060   -1.1770   26.6690 C.2    62  GLU62       0.2260
     89  O          4.7680   -2.0040   27.2070 O.2    62  GLU62      -0.2867
     90  CB         5.1330    0.1300   24.5980 C.3    62  GLU62       0.0388
     91  CG         3.9800    0.7830   23.8720 C.3    62  GLU62       0.1160
     92  CD         3.9590    0.4540   22.3970 C.2    62  GLU62       0.3649
     93  OE1        5.0400    0.2120   21.8010 O.co2  62  GLU62      -0.2457
     94  OE2        2.8430    0.4490   21.8360 O.co2  62  GLU62      -0.2457
     95  N          6.7620    6.7870   18.6870 N.3    69  LYS69      -0.1245
     96  CA         5.7450    6.3600   17.7190 C.3    69  LYS69       0.1561
     97  C          5.4060    7.3930   16.6470 C.2    69  LYS69       0.2260
     98  O          5.4860    8.5920   16.8760 O.2    69  LYS69      -0.2867
     99  CB         4.4820    5.8400   18.4140 C.3    69  LYS69       0.0271
    100  CG         4.4460    4.3260   18.4800 C.3    69  LYS69       0.0035
    101  CD         3.5310    3.7920   19.5650 C.3    69  LYS69       0.0206
    102  CE         3.6100    2.2660   19.5900 C.3    69  LYS69       0.1093
    103  NZ         3.0420    1.6260   18.3650 N.3    69  LYS69      -0.1314
    104  N          2.2080    8.3160   14.0300 N.3    71  ILE71      -0.1245
    105  CA         0.8380    8.0940   13.5650 C.3    71  ILE71       0.1561
    106  C          0.5730    9.0790   12.4410 C.2    71  ILE71       0.2260
    107  O          1.1130   10.1900   12.4440 O.2    71  ILE71      -0.2867
    108  CB        -0.2290    8.4150   14.6370 C.3    71  ILE71       0.0252
    109  CG1        0.0450    7.7160   15.9500 C.3    71  ILE71       0.0019
    110  CG2       -1.6200    8.0040   14.1580 C.3    71  ILE71       0.0019
    111  CD1       -0.9560    8.1260   16.9990 C.3    71  ILE71       0.0001
    112  N         -7.9110    8.1740   12.0600 N.3    84  ILE84      -0.1245
    113  CA        -6.7500    7.3030   12.2320 C.3    84  ILE84       0.1561
    114  C         -7.1330    5.8790   11.8190 C.2    84  ILE84       0.2260
    115  O         -8.1600    5.3360   12.2810 O.2    84  ILE84      -0.2867
    116  CB        -6.2470    7.3480   13.6970 C.3    84  ILE84       0.0252
    117  CG1       -5.5940    8.7000   14.0040 C.3    84  ILE84       0.0019
    118  CG2       -5.2890    6.2070   14.0010 C.3    84  ILE84       0.0019
    119  CD1       -5.6410    9.0370   15.4760 C.3    84  ILE84       0.0001
    120  N        -11.2550    5.6030   14.3350 N.3    90  ASN90      -0.1240
    121  CA       -11.0050    6.4960   15.4470 C.3    90  ASN90       0.1653
    122  C        -10.8720    7.9560   15.0080 C.2    90  ASN90       0.2266
    123  O         -9.8760    8.3350   14.3890 O.2    90  ASN90      -0.2867
    124  CB        -9.7320    6.0420   16.1610 C.3    90  ASN90       0.1155
    125  CG        -9.3900    6.9030   17.3590 C.2    90  ASN90       0.2627
    126  OD1       -9.9860    6.7630   18.4250 O.2    90  ASN90      -0.2716
    127  ND2       -8.4150    7.7980   17.1940 N.am   90  ASN90      -0.0877
    128  N        -10.2920   11.9720   15.3650 N.3    92  VAL92      -0.1245
    129  CA        -9.5460   12.9970   16.0860 C.3    92  VAL92       0.1561
    130  C        -10.1760   14.3540   15.8020 C.2    92  VAL92       0.2260
    131  O        -10.3900   14.7110   14.6470 O.2    92  VAL92      -0.2867
    132  CB        -8.0620   13.0670   15.6390 C.3    92  VAL92       0.0252
    133  CG1       -7.3990   14.3210   16.1500 C.3    92  VAL92       0.0019
    134  CG2       -7.2880   11.8470   16.0770 C.3    92  VAL92       0.0019
    135  N        -10.0700   18.6280   16.4810 N.3    94  VAL94      -0.1245
    136  CA        -9.4440   19.8250   17.0430 C.3    94  VAL94       0.1561
    137  C        -10.5140   20.7530   17.5750 C.2    94  VAL94       0.2260
    138  O        -11.3090   21.3000   16.7910 O.2    94  VAL94      -0.2867
    139  CB        -8.5750   20.5450   15.9910 C.3    94  VAL94       0.0252
    140  CG1       -7.7210   21.6250   16.6420 C.3    94  VAL94       0.0019
    141  CG2       -7.7100   19.5410   15.2560 C.3    94  VAL94       0.0019
    142  N         -3.3500   24.0920   22.0900 N.3   103  LEU103     -0.1245
    143  CA        -4.2530   23.3730   21.2020 C.3   103  LEU103      0.1561
    144  C         -4.9980   22.3090   22.0170 C.2   103  LEU103      0.2260
    145  O         -4.3790   21.5320   22.7290 O.2   103  LEU103     -0.2867
    146  CB        -3.4960   22.7300   20.0200 C.3   103  LEU103      0.0270
    147  CG        -4.3260   21.9990   18.9590 C.3   103  LEU103      0.0019
    148  CD1       -3.7500   22.1890   17.5490 C.3   103  LEU103      0.0001
    149  CD2       -4.4850   20.5160   19.2940 C.3   103  LEU103      0.0001
    150  N         -7.4310   18.9780   21.6920 N.3   105  PHE105     -0.1241
    151  CA        -7.9930   17.9730   20.8070 C.3   105  PHE105      0.1605
    152  C         -8.5230   16.8040   21.6380 C.2   105  PHE105      0.2264
    153  O         -8.1000   16.6160   22.7920 O.2   105  PHE105     -0.2867
    154  CB        -6.9350   17.4530   19.7920 C.3   105  PHE105      0.0534
    155  CG        -5.9950   16.4190   20.3670 C.ar  105  PHE105     -0.0203
    156  CD1       -6.3280   15.0650   20.3670 C.ar  105  PHE105     -0.0042
    157  CD2       -4.7760   16.7980   20.8990 C.ar  105  PHE105     -0.0042
    158  CE1       -5.4490   14.1130   20.8900 C.ar  105  PHE105     -0.0003
    159  CE2       -3.8950   15.8640   21.4260 C.ar  105  PHE105     -0.0003
    160  CZ        -4.2220   14.5210   21.4180 C.ar  105  PHE105     -0.0000
    161  N         -9.7120   12.4700   21.0730 N.3   107  MET107     -0.1245
    162  CA        -9.8320   11.3450   20.1820 C.3   107  MET107      0.1570
    163  C        -10.9480   10.5090   20.7190 C.2   107  MET107      0.2261
    164  O        -11.0680   10.3490   21.9500 O.2   107  MET107     -0.2867
    165  CB        -8.5270   10.5340   20.0530 C.3   107  MET107      0.0387
    166  CG        -7.8310   10.2010   21.3460 C.3   107  MET107      0.0595
    167  SD        -6.0280   10.3270   21.2180 S.3   107  MET107     -0.1393
    168  CE        -5.6300   10.7940   22.9070 C.3   107  MET107      0.0692
    169  N         -2.6080   20.5380   24.6370 N.3   119  LEU119     -0.1245
    170  CA        -1.2810   20.6830   24.0750 C.3   119  LEU119      0.1561
    171  C         -0.8610   22.1130   24.2480 C.2   119  LEU119      0.2260
    172  O         -1.6420   23.0280   23.9610 O.2   119  LEU119     -0.2867
    173  CB        -1.2750   20.2970   22.5610 C.3   119  LEU119      0.0270
    174  CG        -1.5330   18.8150   22.2470 C.3   119  LEU119      0.0019
    175  CD1       -1.2910   18.4020   20.7760 C.3   119  LEU119      0.0001
    176  CD2       -0.7790   17.8780   23.2010 C.3   119  LEU119      0.0001
@<TRIPOS>BOND
     1     7     5    1
     2    53    54    1
     3     5     2    1
     4     5     6    1
     5     1     2    1
     6     3     2    1
     7     3     4    2
     8    54    55    1
     9    54    57    1
    10     6     8    1
    11    55    56    2
    12    57    58    1
    13    59    58    1
    14   114   113    1
    15   114   115    2
    16   112   113    1
    17    58    60    1
    18   113   116    1
    19   106   107    2
    20   106   105    1
    21     9    10    1
    22    48    47    2
    23    61    62    1
    24    47    46    1
    25   105   104    1
    26   105   108    1
    27    15    13    1
    28   116   118    1
    29   116   117    1
    30    11    10    1
    31    11    12    2
    32   117   119    1
    33    10    13    1
    34   110   108    1
    35    14    13    1
    36   120   121    1
    37   123   122    2
    38    62    63    1
    39    62    65    1
    40    46    49    1
    41    46    45    1
    42   108   109    1
    43   131   130    2
    44    66    68    1
    45    66    65    1
    46    49    50    1
    47   122   121    1
    48    64    63    2
    49   141   139    1
    50   128   129    1
    51    65    67    1
    52   121   124    1
    53   132   134    1
    54   132   129    1
    55   132   133    1
    56   130   129    1
    57   109   111    1
    58   139   140    1
    59   139   136    1
    60    52    50    1
    61   124   125    1
    62    50    51    1
    63   135   136    1
    64    97    98    2
    65    97    96    1
    66   138   137    2
    67   136   137    1
    68   127   125   am
    69   125   126    2
    70   148   147    1
    71    96    99    1
    72    96    95    1
    73   103   102    1
    74    99   100    1
    75   100   101    1
    76    75    74    1
    77    69    70    1
    78   147   149    1
    79   147   146    1
    80   101   102    1
    81   154   155    1
    82   154   151    1
    83   146   143    1
    84    74    73    1
    85    74    76    1
    86   165   162    1
    87   165   166    1
    88    70    73    1
    89    70    71    1
    90    43    42    1
    91    72    71    2
    92   162   163    1
    93   162   161    1
    94   155   156   ar
    95   155   157   ar
    96   156   158   ar
    97   163   164    2
    98   175   174    1
    99   151   152    1
   100   151   150    1
   101   158   160   ar
   102   157   159   ar
   103   143   144    1
   104   143   142    1
   105   167   166    1
   106   167   168    1
   107    44    42    1
   108   160   159   ar
   109    42    39    1
   110   152   153    2
   111    93    92   ar
   112    40    39    1
   113    40    41    2
   114    94    92   ar
   115    39    38    1
   116   144   145    2
   117   174   173    1
   118   174   176    1
   119    92    91    1
   120   173   170    1
   121    37    35    1
   122    29    28    1
   123    36    35    1
   124    35    32    1
   125    91    90    1
   126    81    82    1
   127    81    78    1
   128    77    78    1
   129   172   171    2
   130   170   171    1
   131   170   169    1
   132    83    82    1
   133    83    84    1
   134    28    30    1
   135    28    27    1
   136    19    18    2
   137    90    87    1
   138    78    79    1
   139    32    33    1
   140    32    31    1
   141    33    34    2
   142    80    79    2
   143    84    85    1
   144    18    17    1
   145    18    23   am
   146    27    24    1
   147    20    17    1
   148    20    21    1
   149    24    23    1
   150    24    25    1
   151    17    16    1
   152    87    88    1
   153    87    86    1
   154    26    25    2
   155    88    89    2
   156    21    22    1
   157    16    22    1
