@<TRIPOS>MOLECULE
tmp/4y0qA00.pdb
 161 144 0 0 0
SMALL
GASTEIGER

@<TRIPOS>ATOM
      1  N         -4.8440   24.0890    9.3450 N.3    12  ILE12      -0.1245
      2  CA        -4.0420   22.9860    9.8690 C.3    12  ILE12       0.1561
      3  C         -2.5370   23.1230    9.6170 C.2    12  ILE12       0.2260
      4  O         -1.7420   22.4620   10.2920 O.2    12  ILE12      -0.2867
      5  CB        -4.5190   21.6290    9.3090 C.3    12  ILE12       0.0252
      6  CG1       -4.0340   20.4560   10.1780 C.3    12  ILE12       0.0019
      7  CG2       -4.0720   21.4610    7.8640 C.3    12  ILE12       0.0019
      8  CD1       -4.4710   20.5250   11.6310 C.3    12  ILE12       0.0001
      9  N         -3.4170    2.3970   27.1610 N.3    38  PRO38      -0.2102
     10  CA        -3.5270    2.5510   25.7060 C.3    38  PRO38       0.1504
     11  C         -3.4250    3.9880   25.1770 C.2    38  PRO38       0.2575
     12  O         -2.7520    4.2220   24.1680 O.2    38  PRO38      -0.2718
     13  CB        -4.9300    2.0050   25.3940 C.3    38  PRO38       0.0282
     14  CG        -5.2510    1.0820   26.5110 C.3    38  PRO38       0.0208
     15  CD        -4.4960    1.5540   27.7180 C.3    38  PRO38       0.0893
     16  N         -4.1090    4.9330   25.8200 N.am   39  LEU39      -0.1980
     17  CA        -4.1400    6.3170   25.3190 C.3    39  LEU39       0.1596
     18  C         -3.3180    7.3310   26.1040 C.2    39  LEU39       0.2287
     19  O         -3.4590    8.5400   25.8800 O.2    39  LEU39      -0.2864
     20  CB        -5.5790    6.8160   25.2010 C.3    39  LEU39       0.0297
     21  CG        -6.4680    6.1790   24.1300 C.3    39  LEU39       0.0022
     22  CD1       -7.6620    7.0850   23.9260 C.3    39  LEU39       0.0001
     23  CD2       -5.7890    5.9460   22.7940 C.3    39  LEU39       0.0001
     24  N         -0.5270    9.0360   25.8380 N.3    41  VAL41      -0.1245
     25  CA         0.4170    9.3400   24.7810 C.3    41  VAL41       0.1561
     26  C          0.8470   10.7790   24.9610 C.2    41  VAL41       0.2260
     27  O          0.0900   11.6210   25.4510 O.2    41  VAL41      -0.2867
     28  CB        -0.1720    9.0980   23.3690 C.3    41  VAL41       0.0252
     29  CG1       -0.5650    7.6390   23.2130 C.3    41  VAL41       0.0019
     30  CG2       -1.3750   10.0070   23.1190 C.3    41  VAL41       0.0019
     31  N          2.6100   14.0180   23.1360 N.3    43  VAL43      -0.1245
     32  CA         2.7720   14.5450   21.8040 C.3    43  VAL43       0.1561
     33  C          4.0890   15.2780   21.7430 C.2    43  VAL43       0.2260
     34  O          4.4130   15.9910   22.6780 O.2    43  VAL43      -0.2867
     35  CB         1.6380   15.5120   21.4220 C.3    43  VAL43       0.0252
     36  CG1        1.9420   16.1750   20.0740 C.3    43  VAL43       0.0019
     37  CG2        0.3150   14.7700   21.3710 C.3    43  VAL43       0.0019
     38  N          3.6690   18.0850   15.5830 N.3    46  LEU46      -0.1245
     39  CA         2.6720   17.8800   14.5550 C.3    46  LEU46       0.1561
     40  C          3.2110   18.3210   13.1990 C.2    46  LEU46       0.2260
     41  O          3.7020   19.4310   13.0710 O.2    46  LEU46      -0.2867
     42  CB         1.4440   18.7140   14.8800 C.3    46  LEU46       0.0270
     43  CG         0.7110   18.3240   16.1620 C.3    46  LEU46       0.0019
     44  CD1       -0.5410   19.1820   16.2360 C.3    46  LEU46       0.0001
     45  CD2        0.4030   16.8410   16.1990 C.3    46  LEU46       0.0001
     46  N         -2.3490   14.9780    8.5690 N.3    54  LEU54      -0.1245
     47  CA        -1.6300   15.3550    9.7750 C.3    54  LEU54       0.1561
     48  C         -0.8560   14.1720   10.3000 C.2    54  LEU54       0.2260
     49  O         -1.4330   13.2090   10.8100 O.2    54  LEU54      -0.2867
     50  CB        -2.6030   15.8860   10.8220 C.3    54  LEU54       0.0270
     51  CG        -2.0030   16.5620   12.0450 C.3    54  LEU54       0.0019
     52  CD1       -1.1960   17.8020   11.6650 C.3    54  LEU54       0.0001
     53  CD2       -3.1320   16.9140   12.9990 C.3    54  LEU54       0.0001
     54  N          1.6930   12.6980   13.0520 N.3    56  ILE56      -0.1245
     55  CA         1.8530   12.9580   14.4800 C.3    56  ILE56       0.1561
     56  C          3.0250   12.1390   15.0410 C.2    56  ILE56       0.2260
     57  O          3.0490   10.9190   14.9030 O.2    56  ILE56      -0.2867
     58  CB         0.5430   12.6620   15.2760 C.3    56  ILE56       0.0252
     59  CG1       -0.6460   13.4690   14.7040 C.3    56  ILE56       0.0019
     60  CG2        0.7250   13.0470   16.7490 C.3    56  ILE56       0.0019
     61  CD1       -2.0000   12.8350   14.9480 C.3    56  ILE56       0.0001
     62  N          4.8830   11.1290   18.5790 N.3    58  LEU58      -0.1245
     63  CA         4.5680   11.0530   19.9940 C.3    58  LEU58       0.1561
     64  C          5.4580   10.0230   20.6600 C.2    58  LEU58       0.2260
     65  O          6.1740    9.3030   19.9880 O.2    58  LEU58      -0.2867
     66  CB         3.0940   10.6530   20.1570 C.3    58  LEU58       0.0270
     67  CG         2.6890    9.3760   19.4120 C.3    58  LEU58       0.0019
     68  CD1        2.4480    8.2360   20.3810 C.3    58  LEU58       0.0001
     69  CD2        1.4470    9.5780   18.5660 C.3    58  LEU58       0.0001
     70  N          5.1370    6.8390   23.7080 N.3    60  LYS60      -0.1245
     71  CA         4.2810    6.0400   24.5340 C.3    60  LYS60       0.1561
     72  C          5.1130    5.0300   25.3160 C.2    60  LYS60       0.2260
     73  O          6.0640    4.4620   24.7810 O.2    60  LYS60      -0.2867
     74  CB         3.2760    5.3060   23.6620 C.3    60  LYS60       0.0271
     75  CG         2.5740    4.2120   24.4190 C.3    60  LYS60       0.0035
     76  CD         1.2050    3.8840   23.8700 C.3    60  LYS60       0.0206
     77  CE         0.2020    3.7240   24.9960 C.3    60  LYS60       0.1093
     78  NZ         0.7790    3.1060   26.2170 N.3    60  LYS60      -0.1314
     79  N          5.6980    1.5320   26.5130 N.3    62  GLU62      -0.1245
     80  CA         5.4190    0.1260   26.2010 C.3    62  GLU62       0.1567
     81  C          6.5630   -0.7170   26.7420 C.2    62  GLU62       0.2260
     82  O          7.6990   -0.2710   26.7340 O.2    62  GLU62      -0.2867
     83  CB         5.3610   -0.0920   24.6890 C.3    62  GLU62       0.0388
     84  CG         4.0500    0.2930   24.0340 C.3    62  GLU62       0.1160
     85  CD         4.1580    0.4020   22.5250 C.2    62  GLU62       0.3649
     86  OE1        5.2930    0.3870   21.9890 O.co2  62  GLU62      -0.2457
     87  OE2        3.0980    0.5160   21.8690 O.co2  62  GLU62      -0.2457
     88  N          6.6100    6.8800   18.5450 N.3    69  LYS69      -0.1245
     89  CA         5.6470    6.4310   17.5540 C.3    69  LYS69       0.1561
     90  C          5.4360    7.5110   16.5270 C.2    69  LYS69       0.2260
     91  O          5.5450    8.7060   16.8270 O.2    69  LYS69      -0.2867
     92  CB         4.2980    6.0640   18.1870 C.3    69  LYS69       0.0271
     93  CG         4.3600    5.2330   19.4600 C.3    69  LYS69       0.0035
     94  CD         4.7820    3.7920   19.2180 C.3    69  LYS69       0.0206
     95  CE         3.5790    2.8850   19.0400 C.3    69  LYS69       0.1093
     96  NZ         3.9250    1.4400   19.1830 N.3    69  LYS69      -0.1314
     97  N          2.3760    8.3900   13.6980 N.3    71  ILE71      -0.1245
     98  CA         1.0700    8.0510   13.1590 C.3    71  ILE71       0.1561
     99  C          0.5580    9.1160   12.1960 C.2    71  ILE71       0.2260
    100  O          0.9940   10.2680   12.2180 O.2    71  ILE71      -0.2867
    101  CB         0.0340    7.8010   14.2780 C.3    71  ILE71       0.0252
    102  CG1       -0.2320    9.0560   15.1090 C.3    71  ILE71       0.0019
    103  CG2        0.4960    6.6700   15.1920 C.3    71  ILE71       0.0019
    104  CD1       -1.1470    8.7880   16.2890 C.3    71  ILE71       0.0001
    105  N         -7.8060    8.4090   12.1100 N.3    84  ILE84      -0.1245
    106  CA        -6.6290    7.5420   12.2250 C.3    84  ILE84       0.1561
    107  C         -7.0220    6.1070   11.8690 C.2    84  ILE84       0.2260
    108  O         -8.1160    5.6560   12.2320 O.2    84  ILE84      -0.2867
    109  CB        -6.0460    7.6080   13.6590 C.3    84  ILE84       0.0252
    110  CG1       -5.2940    8.9240   13.8380 C.3    84  ILE84       0.0019
    111  CG2       -5.1170    6.4280   13.9550 C.3    84  ILE84       0.0019
    112  CD1       -5.1940    9.3630   15.2730 C.3    84  ILE84       0.0001
    113  N        -10.1340   12.1690   15.2560 N.3    92  VAL92      -0.1245
    114  CA        -9.4960   13.2220   16.0200 C.3    92  VAL92       0.1561
    115  C        -10.1930   14.5040   15.7180 C.2    92  VAL92       0.2260
    116  O        -10.3990   14.8380   14.5370 O.2    92  VAL92      -0.2867
    117  CB        -8.0190   13.3630   15.6100 C.3    92  VAL92       0.0252
    118  CG1       -7.3700   14.5950   16.2040 C.3    92  VAL92       0.0019
    119  CG2       -7.2820   12.1180   16.0220 C.3    92  VAL92       0.0019
    120  N        -10.1150   18.6800   16.4520 N.3    94  VAL94      -0.1245
    121  CA        -9.5500   19.9040   17.0120 C.3    94  VAL94       0.1561
    122  C        -10.6520   20.8060   17.5230 C.2    94  VAL94       0.2260
    123  O        -11.4630   21.3180   16.7370 O.2    94  VAL94      -0.2867
    124  CB        -8.7340   20.6920   15.9770 C.3    94  VAL94       0.0252
    125  CG1       -8.1130   21.9270   16.6160 C.3    94  VAL94       0.0019
    126  CG2       -7.6730   19.7860   15.3700 C.3    94  VAL94       0.0019
    127  N         -3.4860   24.2520   22.0100 N.3   103  LEU103     -0.1245
    128  CA        -4.3940   23.5030   21.1650 C.3   103  LEU103      0.1561
    129  C         -5.1150   22.4350   22.0100 C.2   103  LEU103      0.2260
    130  O         -4.4650   21.6360   22.7170 O.2   103  LEU103     -0.2867
    131  CB        -3.6580   22.8490   19.9940 C.3   103  LEU103      0.0270
    132  CG        -4.5240   22.1370   18.9550 C.3   103  LEU103      0.0019
    133  CD1       -3.9570   22.2620   17.5450 C.3   103  LEU103      0.0001
    134  CD2       -4.7490   20.6650   19.2660 C.3   103  LEU103      0.0001
    135  N         -7.5800   19.0880   21.7520 N.3   105  PHE105     -0.1241
    136  CA        -8.1380   18.0680   20.8660 C.3   105  PHE105      0.1605
    137  C         -8.7070   16.9000   21.6480 C.2   105  PHE105      0.2264
    138  O         -8.3080   16.6480   22.7840 O.2   105  PHE105     -0.2867
    139  CB        -7.1060   17.5590   19.8510 C.3   105  PHE105      0.0534
    140  CG        -6.1260   16.5580   20.4070 C.ar  105  PHE105     -0.0203
    141  CD1       -4.9320   16.9760   20.9930 C.ar  105  PHE105     -0.0042
    142  CD2       -6.3780   15.2020   20.3210 C.ar  105  PHE105     -0.0042
    143  CE1       -4.0030   16.0540   21.4740 C.ar  105  PHE105     -0.0003
    144  CE2       -5.4810   14.2780   20.8310 C.ar  105  PHE105     -0.0003
    145  CZ        -4.2830   14.7050   21.4020 C.ar  105  PHE105     -0.0000
    146  N         -9.8140   12.6260   20.9270 N.3   107  MET107     -0.1245
    147  CA        -9.9100   11.4900   20.0460 C.3   107  MET107      0.1570
    148  C        -11.0370   10.6370   20.5790 C.2   107  MET107      0.2261
    149  O        -11.1750   10.4850   21.8030 O.2   107  MET107     -0.2867
    150  CB        -8.6060   10.6910   19.9680 C.3   107  MET107      0.0387
    151  CG        -7.8060   10.5960   21.2530 C.3   107  MET107      0.0595
    152  SD        -6.1250    9.9570   21.0610 S.3   107  MET107     -0.1393
    153  CE        -5.3210   10.6990   22.4840 C.3   107  MET107      0.0692
    154  N         -2.7100   20.6850   24.6320 N.3   117  LEU117     -0.1245
    155  CA        -1.3650   20.9000   24.1100 C.3   117  LEU117      0.1561
    156  C         -0.9500   22.3100   24.3120 C.2   117  LEU117      0.2260
    157  O         -1.7680   23.2220   24.1540 O.2   117  LEU117     -0.2867
    158  CB        -1.3190   20.6000   22.6260 C.3   117  LEU117      0.0270
    159  CG        -1.7060   19.1740   22.2770 C.3   117  LEU117      0.0019
    160  CD1       -1.5360   18.9390   20.7770 C.3   117  LEU117      0.0001
    161  CD2       -0.8990   18.1700   23.0810 C.3   117  LEU117      0.0001
@<TRIPOS>BOND
     1     7     5    1
     2    46    47    1
     3     5     2    1
     4     5     6    1
     5     1     2    1
     6     3     2    1
     7     3     4    2
     8    47    48    1
     9    47    50    1
    10     6     8    1
    11    48    49    2
    12    50    51    1
    13    52    51    1
    14   107   106    1
    15   107   108    2
    16    51    53    1
    17   105   106    1
    18    99   100    2
    19    99    98    1
    20   106   109    1
    21    54    55    1
    22    41    40    2
    23    98    97    1
    24    98   101    1
    25    40    39    1
    26   109   110    1
    27   109   111    1
    28   110   112    1
    29   101   102    1
    30   101   103    1
    31    55    56    1
    32    55    58    1
    33   116   115    2
    34    39    42    1
    35    39    38    1
    36    59    61    1
    37    59    58    1
    38    42    43    1
    39    57    56    2
    40   102   104    1
    41   113   114    1
    42    58    60    1
    43   126   124    1
    44   117   114    1
    45   117   119    1
    46   117   118    1
    47   115   114    1
    48   124   125    1
    49   124   121    1
    50    43    45    1
    51    43    44    1
    52   120   121    1
    53    90    91    2
    54    90    89    1
    55   123   122    2
    56   121   122    1
    57   133   132    1
    58    89    92    1
    59    89    88    1
    60    92    93    1
    61    69    67    1
    62    62    63    1
    63   132   134    1
    64   132   131    1
    65    95    96    1
    66    95    94    1
    67    94    93    1
    68    67    66    1
    69    67    68    1
    70   139   140    1
    71   139   136    1
    72   150   147    1
    73   150   151    1
    74    65    64    2
    75   131   128    1
    76    63    66    1
    77    63    64    1
    78   147   148    1
    79   147   146    1
    80    36    35    1
    81   142   140   ar
    82   142   144   ar
    83   140   141   ar
    84   148   149    2
    85   160   159    1
    86   144   145   ar
    87   136   137    1
    88   136   135    1
    89   141   143   ar
    90   152   151    1
    91   152   153    1
    92   128   129    1
    93   128   127    1
    94    37    35    1
    95   145   143   ar
    96    35    32    1
    97   137   138    2
    98    33    32    1
    99    33    34    2
   100    32    31    1
   101    87    85   ar
   102    86    85   ar
   103   129   130    2
   104   159   158    1
   105   159   161    1
   106    85    84    1
   107   158   155    1
   108    23    21    1
   109    30    28    1
   110    29    28    1
   111    28    25    1
   112    74    75    1
   113    74    71    1
   114    70    71    1
   115    76    75    1
   116    76    77    1
   117    22    21    1
   118    84    83    1
   119   155   156    1
   120   155   154    1
   121    21    20    1
   122   157   156    2
   123    12    11    2
   124    71    72    1
   125    83    80    1
   126    73    72    2
   127    25    26    1
   128    25    24    1
   129    26    27    2
   130    77    78    1
   131    11    10    1
   132    11    16   am
   133    20    17    1
   134    17    16    1
   135    17    18    1
   136    13    10    1
   137    13    14    1
   138    10     9    1
   139    19    18    2
   140    80    79    1
   141    80    81    1
   142    14    15    1
   143    82    81    2
   144     9    15    1
