@<TRIPOS>MOLECULE
tmp/4y0uD00.pdb
 113 108 0 0 0
SMALL
GASTEIGER

@<TRIPOS>ATOM
      1  N        -55.2600   60.1890   10.7270 N.3    46  ALA46      -0.1231
      2  CA       -54.7770   61.5740   10.7350 C.3    46  ALA46       0.1694
      3  C        -53.2490   61.6790   10.6860 C.2    46  ALA46       0.2592
      4  O        -52.6080   60.9950    9.8880 O.2    46  ALA46      -0.2718
      5  CB       -55.3210   62.3180   11.9450 C.3    46  ALA46       0.0304
      6  N        -52.6650   62.5270   11.5320 N.am   47  SER47      -0.1952
      7  CA       -51.1800   62.6830   11.5410 C.3    47  SER47       0.1924
      8  C        -50.4410   61.4500   12.1340 C.2    47  SER47       0.2314
      9  O        -49.2300   61.3260   11.9190 O.2    47  SER47      -0.2863
     10  CB       -50.7590   64.0040   12.2230 C.3    47  SER47       0.2116
     11  OG       -51.4610   65.1130   11.6370 O.3    47  SER47      -0.2180
     12  N        -50.2300   76.2720    8.2300 N.3    77  PHE77      -0.1241
     13  CA       -49.5380   76.9320    9.3530 C.3    77  PHE77       0.1605
     14  C        -48.2630   77.5820    8.8460 C.2    77  PHE77       0.2264
     15  O        -47.5220   76.9340    8.0660 O.2    77  PHE77      -0.2867
     16  CB       -49.1540   75.9750   10.4590 C.3    77  PHE77       0.0534
     17  CG       -50.3100   75.4150   11.1960 C.ar   77  PHE77      -0.0203
     18  CD1      -50.9950   76.2000   12.1480 C.ar   77  PHE77      -0.0042
     19  CD2      -50.7330   74.1060   10.9650 C.ar   77  PHE77      -0.0042
     20  CE1      -52.0940   75.6740   12.8540 C.ar   77  PHE77      -0.0003
     21  CE2      -51.8260   73.5630   11.6610 C.ar   77  PHE77      -0.0003
     22  CZ       -52.5130   74.3480   12.6090 C.ar   77  PHE77      -0.0000
     23  N        -45.0310   75.6220    8.9640 N.3    80  TRP80      -0.1241
     24  CA       -44.6980   74.7180    7.8400 C.3    80  TRP80       0.1605
     25  C        -44.0010   75.3810    6.6280 C.2    80  TRP80       0.2264
     26  O        -43.4930   74.6580    5.7740 O.2    80  TRP80      -0.2867
     27  CB       -45.9510   73.9260    7.3660 C.3    80  TRP80       0.0550
     28  CG       -46.5960   73.0860    8.4450 C.ar   80  TRP80       0.0003
     29  CD1      -46.0280   72.6770    9.6320 C.ar   80  TRP80       0.0946
     30  CD2      -47.9030   72.5300    8.4280 C.ar   80  TRP80       0.0152
     31  NE1      -46.8990   71.9270   10.3480 N.ar   80  TRP80      -0.2442
     32  CE2      -48.0630   71.8070    9.6490 C.ar   80  TRP80       0.0810
     33  CE3      -48.9720   72.5690    7.5080 C.ar   80  TRP80       0.0012
     34  CZ2      -49.2520   71.1220    9.9830 C.ar   80  TRP80       0.0191
     35  CZ3      -50.1750   71.8820    7.8330 C.ar   80  TRP80       0.0001
     36  CH2      -50.3000   71.1670    9.0670 C.ar   80  TRP80       0.0015
     37  N        -43.0490   68.4130   13.6890 N.3    92  ALA92      -0.1231
     38  CA       -43.9040   69.5740   13.3280 C.3    92  ALA92       0.1694
     39  C        -45.3030   69.2040   12.7350 C.2    92  ALA92       0.2592
     40  O        -46.1190   70.1070   12.5530 O.2    92  ALA92      -0.2718
     41  CB       -43.1500   70.4800   12.3640 C.3    92  ALA92       0.0304
     42  N        -45.5620   67.9040   12.4520 N.am   93  SER93      -0.1952
     43  CA       -46.8090   67.3910   11.7740 C.3    93  SER93       0.1924
     44  C        -46.9960   68.0540   10.3880 C.2    93  SER93       0.2314
     45  O        -48.1170   68.3430    9.9690 O.2    93  SER93      -0.2863
     46  CB       -48.0770   67.5140   12.6540 C.3    93  SER93       0.2116
     47  OG       -48.0430   66.6000   13.7080 O.3    93  SER93      -0.2180
     48  N        -47.8020   68.2680    7.1810 N.3    95  VAL95      -0.1245
     49  CA       -48.6650   67.4790    6.2740 C.3    95  VAL95       0.1561
     50  C        -48.1010   67.4730    4.8360 C.2    95  VAL95       0.2260
     51  O        -47.9180   66.3800    4.2750 O.2    95  VAL95      -0.2867
     52  CB       -50.1770   67.9370    6.2580 C.3    95  VAL95       0.0252
     53  CG1      -51.0330   66.9790    5.4350 C.3    95  VAL95       0.0019
     54  CG2      -50.8010   68.0390    7.6450 C.3    95  VAL95       0.0019
     55  N        -56.2100   61.7880    5.9380 N.3   133  LEU133     -0.1245
     56  CA       -56.8100   63.0710    6.3770 C.3   133  LEU133      0.1561
     57  C        -58.3340   63.1740    6.2080 C.2   133  LEU133      0.2260
     58  O        -58.9590   63.9570    6.9190 O.2   133  LEU133     -0.2867
     59  CB       -56.1810   64.2280    5.6060 C.3   133  LEU133      0.0270
     60  CG       -54.6570   64.3370    5.6860 C.3   133  LEU133      0.0019
     61  CD1      -54.1430   65.3270    4.6560 C.3   133  LEU133      0.0001
     62  CD2      -54.2010   64.7230    7.0960 C.3   133  LEU133      0.0001
     63  N        -49.0340   62.9850   17.9320 N.3   184  SER184     -0.1217
     64  CA       -50.3660   63.5740   18.0280 C.3   184  SER184      0.1889
     65  C        -51.0430   63.5160   16.6570 C.2   184  SER184      0.2288
     66  O        -50.3650   63.3980   15.6250 O.2   184  SER184     -0.2866
     67  CB       -50.2860   65.0140   18.5190 C.3   184  SER184      0.2089
     68  OG       -49.5200   65.8050   17.6130 O.3   184  SER184     -0.2183
     69  N        -54.9590   65.0320   14.5950 N.3   186  TRP186     -0.1227
     70  CA       -56.2300   65.7440   14.6280 C.3   186  TRP186      0.1737
     71  C        -56.8690   65.6330   13.2390 C.2   186  TRP186      0.2596
     72  O        -56.4310   66.3030   12.2860 O.2   186  TRP186     -0.2718
     73  CB       -56.0580   67.2110   15.0350 C.3   186  TRP186      0.0564
     74  CG       -57.3380   67.9460   15.4220 C.ar  186  TRP186      0.0003
     75  CD1      -58.6220   67.7200   14.9630 C.ar  186  TRP186      0.0946
     76  CD2      -57.4380   69.0440   16.3340 C.ar  186  TRP186      0.0152
     77  NE1      -59.4890   68.5910   15.5390 N.ar  186  TRP186     -0.2442
     78  CE2      -58.8090   69.4200   16.3830 C.ar  186  TRP186      0.0810
     79  CE3      -56.5020   69.7530   17.1250 C.ar  186  TRP186      0.0012
     80  CZ2      -59.2870   70.4820   17.1960 C.ar  186  TRP186      0.0191
     81  CZ3      -56.9690   70.8270   17.9510 C.ar  186  TRP186      0.0001
     82  CH2      -58.3660   71.1760   17.9730 C.ar  186  TRP186      0.0015
     83  N        -57.9070   64.7860   13.1340 N.am  187  GLY187     -0.1942
     84  CA       -58.6800   64.6080   11.9030 C.3   187  GLY187      0.2014
     85  C        -59.6460   65.7820   11.8810 C.2   187  GLY187      0.2638
     86  O        -60.7800   65.6550   12.3390 O.2   187  GLY187     -0.2714
     87  N        -59.1740   66.9060   11.3510 N.am  188  MET188     -0.1976
     88  CA       -59.9460   68.1520   11.2700 C.3   188  MET188      0.1605
     89  C        -60.9690   68.2000   10.1390 C.2   188  MET188      0.2287
     90  O        -61.9850   68.9060   10.2680 O.2   188  MET188     -0.2864
     91  CB       -59.0130   69.3310   11.0430 C.3   188  MET188      0.0413
     92  CG       -57.9280   69.5300   12.0790 C.3   188  MET188      0.0598
     93  SD       -56.9690   71.0050   11.6690 S.3   188  MET188     -0.1393
     94  CE       -56.3620   70.6920   10.0130 C.3   188  MET188      0.0692
     95  N        -55.3340   72.6640   22.1850 N.3   223  ILE223     -0.1245
     96  CA       -54.4020   71.7960   21.4340 C.3   223  ILE223      0.1561
     97  C        -53.4770   70.9600   22.3500 C.2   223  ILE223      0.2260
     98  O        -53.1490   69.8380   21.9950 O.2   223  ILE223     -0.2867
     99  CB       -53.5810   72.6100   20.3710 C.3   223  ILE223      0.0252
    100  CG1      -52.9680   71.6380   19.3230 C.3   223  ILE223      0.0019
    101  CG2      -52.5520   73.5290   21.0430 C.3   223  ILE223      0.0019
    102  CD1      -52.2980   72.2860   18.1240 C.3   223  ILE223      0.0001
    103  N        -54.6180   66.8480   24.7580 N.3   226  ARG226     -0.1245
    104  CA       -54.3350   65.4160   24.3860 C.3   226  ARG226      0.1563
    105  C        -53.0650   64.8520   25.0240 C.2   226  ARG226      0.2260
    106  O        -53.1150   63.8120   25.6910 O.2   226  ARG226     -0.2867
    107  CB       -54.2700   65.2490   22.8730 C.3   226  ARG226      0.0307
    108  CG       -55.6180   65.3850   22.1630 C.3   226  ARG226      0.0489
    109  CD       -55.3990   65.5060   20.6680 C.3   226  ARG226      0.2205
    110  NE       -54.7560   66.7850   20.3360 N.pl3 226  ARG226     -0.0865
    111  CZ       -54.1350   67.1010   19.1880 C.cat 226  ARG226      0.5346
    112  NH1      -54.0260   66.2360   18.1670 N.pl3 226  ARG226      0.1354
    113  NH2      -53.6070   68.3240   19.0680 N.pl3 226  ARG226      0.1354
@<TRIPOS>BOND
     1    51    50    2
     2    61    60    1
     3    50    49    1
     4    53    52    1
     5    59    60    1
     6    59    56    1
     7    60    62    1
     8    26    25    2
     9    55    56    1
    10    57    56    1
    11    57    58    2
    12    52    49    1
    13    52    54    1
    14    49    48    1
    15    25    24    1
    16    27    24    1
    17    27    28    1
    18    33    35   ar
    19    33    30   ar
    20    35    36   ar
    21    24    23    1
    22    15    14    2
    23    12    13    1
    24    30    28   ar
    25    30    32   ar
    26    28    29   ar
    27    14    13    1
    28    36    34   ar
    29    13    16    1
    30    29    31   ar
    31    32    34   ar
    32    32    31   ar
    33     4     3    2
    34    45    44    2
    35    94    93    1
    36    89    90    2
    37    89    88    1
    38    44    43    1
    39    16    17    1
    40     3     2    1
    41     3     6   am
    42     1     2    1
    43     2     5    1
    44    19    17   ar
    45    19    21   ar
    46    91    88    1
    47    91    92    1
    48    17    18   ar
    49    88    87    1
    50    87    85   am
    51     6     7    1
    52     7     8    1
    53     7    10    1
    54    11    10    1
    55    21    22   ar
    56    93    92    1
    57    43    42    1
    58    43    46    1
    59    85    84    1
    60    85    86    2
    61    84    83    1
    62     9     8    2
    63    18    20   ar
    64    72    71    2
    65    41    38    1
    66    42    39   am
    67    40    39    2
    68    22    20   ar
    69    46    47    1
    70    39    38    1
    71    83    71   am
    72    71    70    1
    73    38    37    1
    74    69    70    1
    75    70    73    1
    76    75    74   ar
    77    75    77   ar
    78    73    74    1
    79    74    76   ar
    80    77    78   ar
    81    66    65    2
    82    76    78   ar
    83    76    79   ar
    84    78    80   ar
    85    65    64    1
    86    79    81   ar
    87    80    82   ar
    88    68    67    1
    89    63    64    1
    90    81    82   ar
    91    64    67    1
    92   102   100    1
    93   112   111    1
    94   113   111    1
    95   111   110    2
    96   100    99    1
    97   110   109    1
    98    99   101    1
    99    99    96    1
   100   109   108    1
   101    96    95    1
   102    96    97    1
   103    98    97    2
   104   108   107    1
   105   107   104    1
   106   104   103    1
   107   104   105    1
   108   105   106    2
