@<TRIPOS>MOLECULE
tmp/4y0xA00.pdb
 162 153 0 0 0
SMALL
GASTEIGER

@<TRIPOS>ATOM
      1  N         -6.3740   12.6050  -34.9080 N.3    75  ILE75      -0.1231
      2  CA        -6.2050   12.9060  -33.4800 C.3    75  ILE75       0.1692
      3  C         -4.7890   13.4690  -33.2590 C.2    75  ILE75       0.2592
      4  O         -4.6280   14.4360  -32.5260 O.2    75  ILE75      -0.2718
      5  CB        -6.4360   11.6110  -32.6300 C.3    75  ILE75       0.0266
      6  CG1       -7.8920   11.2030  -32.6170 C.3    75  ILE75       0.0019
      7  CG2       -5.9050   11.7340  -31.1910 C.3    75  ILE75       0.0020
      8  CD1       -8.0430    9.7160  -32.5080 C.3    75  ILE75       0.0001
      9  N         -3.7630   12.8150  -33.8490 N.am   76  ALA76      -0.1966
     10  CA        -2.3480   13.1380  -33.6790 C.3    76  ALA76       0.1728
     11  C         -1.5280   12.4430  -34.7560 C.2    76  ALA76       0.2616
     12  O         -2.0390   11.5500  -35.4350 O.2    76  ALA76      -0.2715
     13  CB        -1.8730   12.6450  -32.3090 C.3    76  ALA76       0.0334
     14  N         -0.2370   12.8060  -34.8590 N.am   77  HIS77      -0.1959
     15  CA         0.7080   12.2020  -35.7840 C.3    77  HIS77       0.1787
     16  C          1.8600   11.6620  -34.9490 C.2    77  HIS77       0.2621
     17  O          2.3910   12.3750  -34.0840 O.2    77  HIS77      -0.2715
     18  CB         1.2140   13.2340  -36.8110 C.3    77  HIS77       0.0785
     19  CG         2.2380   12.6960  -37.7750 C.ar   77  HIS77       0.0821
     20  ND1        3.5890   12.7890  -37.5190 N.ar   77  HIS77      -0.2267
     21  CD2        2.0590   12.1070  -38.9840 C.ar   77  HIS77       0.1154
     22  CE1        4.1900   12.2530  -38.5740 C.ar   77  HIS77       0.1986
     23  NE2        3.2970   11.8110  -39.4690 N.ar   77  HIS77      -0.2212
     24  N          2.2520   10.4260  -35.2260 N.am   78  GLY78      -0.1940
     25  CA         3.3410    9.7860  -34.4980 C.3    78  GLY78       0.2014
     26  C          4.3570    9.0830  -35.3630 C.2    78  GLY78       0.2639
     27  O          4.4620    9.3600  -36.5660 O.2    78  GLY78      -0.2714
     28  N          5.1040    8.1690  -34.7390 N.am   79  GLY79      -0.1939
     29  CA         6.1600    7.4030  -35.4100 C.3    79  GLY79       0.2014
     30  C          5.6780    6.5460  -36.5650 C.2    79  GLY79       0.2638
     31  O          6.4180    6.3430  -37.5260 O.2    79  GLY79      -0.2714
     32  N          4.4210    6.0590  -36.4870 N.am   80  LEU80      -0.1977
     33  CA         3.7820    5.2440  -37.5150 C.3    80  LEU80       0.1596
     34  C          2.7610    6.0620  -38.3530 C.2    80  LEU80       0.2287
     35  O          1.8860    5.4860  -39.0140 O.2    80  LEU80      -0.2864
     36  CB         3.0930    4.0200  -36.8650 C.3    80  LEU80       0.0297
     37  CG         3.8750    2.7110  -36.8160 C.3    80  LEU80       0.0022
     38  CD1        3.2260    1.7230  -35.8450 C.3    80  LEU80       0.0001
     39  CD2        4.0200    2.0960  -38.2010 C.3    80  LEU80       0.0001
     40  N         -2.9030    9.1530  -36.5780 N.3    83  ILE83      -0.1245
     41  CA        -3.8110    8.4570  -35.6540 C.3    83  ILE83       0.1561
     42  C         -5.1580    9.0470  -35.9270 C.2    83  ILE83       0.2260
     43  O         -5.3600   10.2450  -35.7540 O.2    83  ILE83      -0.2867
     44  CB        -3.3990    8.6010  -34.1490 C.3    83  ILE83       0.0252
     45  CG1       -1.9300    8.2220  -33.8610 C.3    83  ILE83       0.0019
     46  CG2       -4.3460    7.8090  -33.2690 C.3    83  ILE83       0.0019
     47  CD1       -1.4320    6.9940  -34.4190 C.3    83  ILE83       0.0001
     48  N        -10.3800    4.5910  -32.3510 N.3    97  VAL97      -0.1245
     49  CA        -9.1100    5.1050  -32.8940 C.3    97  VAL97       0.1561
     50  C         -8.4460    4.0990  -33.8240 C.2    97  VAL97       0.2260
     51  O         -8.2460    2.9400  -33.4570 O.2    97  VAL97      -0.2867
     52  CB        -8.1430    5.5470  -31.7540 C.3    97  VAL97       0.0252
     53  CG1       -6.7780    5.9710  -32.3150 C.3    97  VAL97       0.0019
     54  CG2       -8.7520    6.6520  -30.9090 C.3    97  VAL97       0.0019
     55  N         -4.8740    3.2570  -36.1050 N.3    99  LYS99      -0.1245
     56  CA        -3.4350    3.5210  -36.2270 C.3    99  LYS99       0.1561
     57  C         -2.8050    2.4780  -37.1640 C.2    99  LYS99       0.2260
     58  O         -3.1700    1.3080  -37.0870 O.2    99  LYS99      -0.2867
     59  CB        -2.7920    3.4660  -34.8230 C.3    99  LYS99       0.0271
     60  CG        -1.2630    3.5880  -34.7760 C.3    99  LYS99       0.0035
     61  CD        -0.7830    3.4560  -33.3030 C.3    99  LYS99       0.0206
     62  CE         0.7090    3.6760  -33.1780 C.3    99  LYS99       0.1093
     63  NZ         1.1870    3.4380  -31.7780 N.3    99  LYS99      -0.1314
     64  N         -5.3940   -0.0380  -22.6860 N.3   129  VAL129     -0.1245
     65  CA        -6.2770    0.2900  -23.8080 C.3   129  VAL129      0.1561
     66  C         -6.7900   -0.9960  -24.4730 C.2   129  VAL129      0.2260
     67  O         -5.9980   -1.9150  -24.7070 O.2   129  VAL129     -0.2867
     68  CB        -5.6230    1.2500  -24.8370 C.3   129  VAL129      0.0252
     69  CG1       -4.4760    0.5750  -25.5830 C.3   129  VAL129      0.0019
     70  CG2       -6.6700    1.7660  -25.8390 C.3   129  VAL129      0.0019
     71  N         -8.6560    0.6500  -31.8740 N.3   150  MET150     -0.1230
     72  CA        -8.6410    0.6520  -30.4110 C.3   150  MET150      0.1702
     73  C         -9.6430    1.6370  -29.7980 C.2   150  MET150      0.2592
     74  O        -10.1590    2.5320  -30.4730 O.2   150  MET150     -0.2718
     75  CB        -7.1970    0.8560  -29.8400 C.3   150  MET150      0.0401
     76  CG        -6.5340    2.1460  -30.1970 C.3   150  MET150      0.0596
     77  SD        -4.7510    2.2220  -29.7110 S.3   150  MET150     -0.1393
     78  CE        -4.1130    2.9170  -31.2040 C.3   150  MET150      0.0692
     79  N         -9.9060    1.4540  -28.4950 N.am  151  GLU151     -0.1966
     80  CA       -10.7590    2.2910  -27.6800 C.3   151  GLU151      0.1733
     81  C        -10.2420    3.7340  -27.6980 C.2   151  GLU151      0.2616
     82  O         -9.0230    3.9380  -27.7100 O.2   151  GLU151     -0.2715
     83  CB       -10.7260    1.7200  -26.2420 C.3   151  GLU151      0.0429
     84  CG       -11.2250    2.6480  -25.1480 C.3   151  GLU151      0.1163
     85  CD       -10.8730    2.2000  -23.7470 C.2   151  GLU151      0.3649
     86  OE1      -10.1150    1.2110  -23.6110 O.co2 151  GLU151     -0.2457
     87  OE2      -11.3400    2.8560  -22.7860 O.co2 151  GLU151     -0.2457
     88  N        -11.1520    4.7310  -27.7370 N.am  152  TYR152     -0.1960
     89  CA       -10.7420    6.1290  -27.6720 C.3   152  TYR152      0.1771
     90  C        -10.5360    6.4050  -26.1710 C.2   152  TYR152      0.2619
     91  O        -11.4780    6.2800  -25.3770 O.2   152  TYR152     -0.2715
     92  CB       -11.7900    7.1100  -28.2490 C.3   152  TYR152      0.0574
     93  CG       -11.4170    8.5550  -27.9780 C.ar  152  TYR152     -0.0198
     94  CD1      -10.4060    9.1780  -28.6980 C.ar  152  TYR152     -0.0009
     95  CD2      -11.9980    9.2630  -26.9240 C.ar  152  TYR152     -0.0009
     96  CE1      -10.0140   10.4830  -28.4180 C.ar  152  TYR152      0.0417
     97  CE2      -11.6010   10.5680  -26.6230 C.ar  152  TYR152      0.0417
     98  CZ       -10.6180   11.1780  -27.3870 C.ar  152  TYR152      0.1957
     99  OH       -10.1890   12.4570  -27.1210 O.3   152  TYR152     -0.2866
    100  N         -9.3050    6.7810  -25.8110 N.am  153  VAL153     -0.1977
    101  CA        -8.9300    7.0700  -24.4110 C.3   153  VAL153      0.1596
    102  C         -8.9100    8.5810  -24.2350 C.2   153  VAL153      0.2287
    103  O         -8.2110    9.2690  -24.9750 O.2   153  VAL153     -0.2864
    104  CB        -7.5610    6.4150  -24.0550 C.3   153  VAL153      0.0276
    105  CG1       -7.1390    6.7400  -22.6230 C.3   153  VAL153      0.0022
    106  CG2       -7.6100    4.9090  -24.2590 C.3   153  VAL153      0.0022
    107  N         -1.4260   12.4120  -21.9270 N.3   157  SER157     -0.1217
    108  CA        -0.3320   11.5930  -21.3990 C.3   157  SER157      0.1889
    109  C          0.3070   12.2110  -20.1330 C.2   157  SER157      0.2288
    110  O          0.1410   13.4010  -19.8860 O.2   157  SER157     -0.2866
    111  CB         0.7420   11.3690  -22.4670 C.3   157  SER157      0.2089
    112  OG         1.7280   12.3870  -22.4370 O.3   157  SER157     -0.2183
    113  N          6.7740    4.4610  -20.4760 N.3   196  LYS196     -0.1245
    114  CA         7.3600    5.8040  -20.3980 C.3   196  LYS196      0.1561
    115  C          6.1740    6.7620  -20.1730 C.2   196  LYS196      0.2260
    116  O          5.0400    6.3760  -20.4700 O.2   196  LYS196     -0.2867
    117  CB         8.1990    6.1870  -21.6350 C.3   196  LYS196      0.0271
    118  CG         7.5120    5.9870  -22.9570 C.3   196  LYS196      0.0035
    119  CD         8.4970    6.2660  -24.0640 C.3   196  LYS196      0.0206
    120  CE         7.7600    6.3690  -25.3530 C.3   196  LYS196      0.1093
    121  NZ         8.6870    6.5500  -26.4920 N.3   196  LYS196     -0.1314
    122  N          4.9050    9.2790  -21.7900 N.3   198  GLU198     -0.1231
    123  CA         4.1400    9.5320  -23.0240 C.3   198  GLU198      0.1699
    124  C          3.0850    8.4360  -23.2620 C.2   198  GLU198      0.2592
    125  O          2.1070    8.6740  -23.9750 O.2   198  GLU198     -0.2718
    126  CB         5.0890    9.3960  -24.2250 C.3   198  GLU198      0.0402
    127  CG         5.6670   10.6680  -24.7650 C.3   198  GLU198      0.1161
    128  CD         6.9340   10.2830  -25.4950 C.2   198  GLU198      0.3649
    129  OE1        8.0250   10.4480  -24.9020 O.co2 198  GLU198     -0.2457
    130  OE2        6.8170    9.6180  -26.5500 O.co2 198  GLU198     -0.2457
    131  N          3.3730    7.2050  -22.8080 N.am  199  ASN199     -0.1974
    132  CA         2.4680    6.0790  -23.0960 C.3   199  ASN199      0.1688
    133  C          1.4480    5.8160  -22.0060 C.2   199  ASN199      0.2292
    134  O          0.7610    4.8040  -22.0600 O.2   199  ASN199     -0.2864
    135  CB         3.2590    4.8090  -23.4450 C.3   199  ASN199      0.1181
    136  CG         3.9320    4.8920  -24.8010 C.2   199  ASN199      0.2629
    137  OD1        3.5240    5.6490  -25.6950 O.2   199  ASN199     -0.2716
    138  ND2        5.0120    4.1650  -24.9680 N.am  199  ASN199     -0.0877
    139  N         -1.8230    7.4470  -20.2100 N.3   201  MET201     -0.1245
    140  CA        -2.8690    8.4530  -20.3510 C.3   201  MET201      0.1570
    141  C         -3.5570    8.6770  -19.0140 C.2   201  MET201      0.2261
    142  O         -3.9170    7.7210  -18.3370 O.2   201  MET201     -0.2867
    143  CB        -3.8830    8.0160  -21.4070 C.3   201  MET201      0.0387
    144  CG        -3.2780    7.9080  -22.8060 C.3   201  MET201      0.0595
    145  SD        -2.8830    9.5280  -23.4760 S.3   201  MET201     -0.1393
    146  CE        -4.4780    9.9360  -24.2190 C.3   201  MET201      0.0692
    147  N         -1.3710    3.0810  -23.2360 N.3   210  ILE210     -0.1231
    148  CA        -1.6970    3.0470  -24.6770 C.3   210  ILE210      0.1692
    149  C         -0.4790    2.4860  -25.4160 C.2   210  ILE210      0.2592
    150  O          0.4310    1.9810  -24.7620 O.2   210  ILE210     -0.2718
    151  CB        -2.1820    4.4330  -25.2010 C.3   210  ILE210      0.0266
    152  CG1       -1.1040    5.5380  -24.9960 C.3   210  ILE210      0.0019
    153  CG2       -3.4980    4.8210  -24.5500 C.3   210  ILE210      0.0020
    154  CD1       -1.2770    6.7720  -25.8660 C.3   210  ILE210      0.0001
    155  N         -0.4460    2.5650  -26.7540 N.am  211  ASP211     -0.1974
    156  CA         0.7030    2.1750  -27.5730 C.3   211  ASP211      0.1709
    157  C          1.1730    0.7440  -27.2710 C.2   211  ASP211      0.2293
    158  O          2.2390    0.5310  -26.6730 O.2   211  ASP211     -0.2864
    159  CB         1.8480    3.2030  -27.4100 C.3   211  ASP211      0.1436
    160  CG         2.9080    3.1200  -28.4820 C.2   211  ASP211      0.3671
    161  OD1        2.7710    2.2690  -29.3960 O.co2 211  ASP211     -0.2456
    162  OD2        3.8760    3.8890  -28.4090 O.co2 211  ASP211     -0.2456
@<TRIPOS>BOND
     1    23    21   ar
     2    23    22   ar
     3    35    34    2
     4    21    19   ar
     5    22    20   ar
     6    34    33    1
     7    39    37    1
     8    19    20   ar
     9    19    18    1
    10    31    30    2
    11    33    36    1
    12    33    32    1
    13    57    58    2
    14    57    56    1
    15    36    37    1
    16    37    38    1
    17    18    15    1
    18    40    41    1
    19    27    26    2
    20    30    32   am
    21    30    29    1
    22    56    55    1
    23    56    59    1
    24    42    43    2
    25    42    41    1
    26    15    16    1
    27    15    14    1
    28    41    44    1
    29    12    11    2
    30    29    28    1
    31    26    28   am
    32    26    25    1
    33    24    16   am
    34    24    25    1
    35    16    17    2
    36     1     2    1
    37    14    11   am
    38    59    60    1
    39    60    61    1
    40    11    10    1
    41    47    45    1
    42    44    45    1
    43    44    46    1
    44     9    10    1
    45     9     3   am
    46    50    51    2
    47    50    49    1
    48    10    13    1
    49     2     3    1
    50     2     5    1
    51    61    62    1
    52     3     4    2
    53    62    63    1
    54    49    48    1
    55    49    52    1
    56     5     6    1
    57     5     7    1
    58     6     8    1
    59    53    52    1
    60    71    72    1
    61    52    54    1
    62    78    77    1
    63    74    73    2
    64    72    75    1
    65    72    73    1
    66    76    75    1
    67    76    77    1
    68    73    79   am
    69   161   160   ar
    70    94    96   ar
    71    94    93   ar
    72    79    80    1
    73   160   162   ar
    74   160   159    1
    75    96    98   ar
    76    92    93    1
    77    92    89    1
    78    93    95   ar
    79    88    81   am
    80    88    89    1
    81    82    81    2
    82    81    80    1
    83    80    83    1
    84    89    90    1
    85   156   159    1
    86   156   157    1
    87   156   155    1
    88    98    99    1
    89    98    97   ar
    90   157   158    2
    91    95    97   ar
    92   155   149   am
    93   130   128   ar
    94   121   120    1
    95    83    84    1
    96    90   100   am
    97    90    91    2
    98   154   152    1
    99    70    68    1
   100   100   101    1
   101   137   136    2
   102    69    68    1
   103   128   129   ar
   104   128   127    1
   105   149   150    2
   106   149   148    1
   107   120   119    1
   108   151   152    1
   109   151   148    1
   110   151   153    1
   111    84    85    1
   112   103   102    2
   113   138   136   am
   114    68    65    1
   115   136   135    1
   116   127   126    1
   117    67    66    2
   118   148   147    1
   119    66    65    1
   120   101   102    1
   121   101   104    1
   122   106   104    1
   123   126   123    1
   124   146   145    1
   125   119   118    1
   126   104   105    1
   127   125   124    2
   128    65    64    1
   129    85    86   ar
   130    85    87   ar
   131   145   144    1
   132   135   132    1
   133   124   123    1
   134   124   131   am
   135   132   131    1
   136   132   133    1
   137   123   122    1
   138   118   117    1
   139   144   143    1
   140   111   112    1
   141   111   108    1
   142   134   133    2
   143   107   108    1
   144   117   114    1
   145   143   140    1
   146   108   109    1
   147   113   114    1
   148   116   115    2
   149   114   115    1
   150   140   139    1
   151   140   141    1
   152   109   110    2
   153   141   142    2
