@<TRIPOS>MOLECULE
tmp/4y12A00.pdb
 187 177 0 0 0
SMALL
GASTEIGER

@<TRIPOS>ATOM
      1  N         -6.3150   12.6890  -34.9120 N.3    75  ILE75      -0.1231
      2  CA        -6.1340   13.0040  -33.4840 C.3    75  ILE75       0.1692
      3  C         -4.7240   13.5600  -33.2770 C.2    75  ILE75       0.2592
      4  O         -4.5390   14.5560  -32.5670 O.2    75  ILE75      -0.2718
      5  CB        -6.3690   11.7180  -32.6160 C.3    75  ILE75       0.0266
      6  CG1       -7.8300   11.3160  -32.5900 C.3    75  ILE75       0.0019
      7  CG2       -5.8210   11.8480  -31.1780 C.3    75  ILE75       0.0020
      8  CD1       -8.0140    9.8100  -32.4410 C.3    75  ILE75       0.0001
      9  N         -3.7190   12.8820  -33.8640 N.am   76  ALA76      -0.1966
     10  CA        -2.3030   13.1970  -33.6880 C.3    76  ALA76       0.1728
     11  C         -1.4850   12.4850  -34.7440 C.2    76  ALA76       0.2616
     12  O         -1.9920   11.5820  -35.4100 O.2    76  ALA76      -0.2715
     13  CB        -1.8490   12.7120  -32.3080 C.3    76  ALA76       0.0334
     14  N         -0.1960   12.8600  -34.8580 N.am   77  HIS77      -0.1959
     15  CA         0.7480   12.2220  -35.7640 C.3    77  HIS77       0.1787
     16  C          1.8890   11.6700  -34.9300 C.2    77  HIS77       0.2621
     17  O          2.3990   12.3780  -34.0640 O.2    77  HIS77      -0.2715
     18  CB         1.2510   13.2310  -36.8090 C.3    77  HIS77       0.0785
     19  CG         2.2670   12.6760  -37.7620 C.ar   77  HIS77       0.0821
     20  ND1        3.6180   12.7530  -37.4940 N.ar   77  HIS77      -0.2267
     21  CD2        2.0900   12.0690  -38.9610 C.ar   77  HIS77       0.1154
     22  CE1        4.2230   12.2040  -38.5360 C.ar   77  HIS77       0.1986
     23  NE2        3.3360   11.7700  -39.4420 N.ar   77  HIS77      -0.2212
     24  N          2.2930   10.4310  -35.1960 N.am   78  GLY78      -0.1940
     25  CA         3.4160    9.8180  -34.4810 C.3    78  GLY78       0.2014
     26  C          4.4270    9.0940  -35.3510 C.2    78  GLY78       0.2639
     27  O          4.5130    9.3500  -36.5560 O.2    78  GLY78      -0.2714
     28  N          5.1810    8.1820  -34.7330 N.am   79  GLY79      -0.1939
     29  CA         6.2000    7.3630  -35.3930 C.3    79  GLY79       0.2014
     30  C          5.6820    6.4950  -36.5280 C.2    79  GLY79       0.2638
     31  O          6.4150    6.2460  -37.4800 O.2    79  GLY79      -0.2714
     32  N          4.4220    6.0300  -36.4400 N.am   80  LEU80      -0.1977
     33  CA         3.7660    5.2140  -37.4600 C.3    80  LEU80       0.1596
     34  C          2.7650    6.0460  -38.2980 C.2    80  LEU80       0.2287
     35  O          1.8480    5.4760  -38.9030 O.2    80  LEU80      -0.2864
     36  CB         3.0410    4.0080  -36.7940 C.3    80  LEU80       0.0297
     37  CG         3.7950    2.6780  -36.7760 C.3    80  LEU80       0.0022
     38  CD1        3.1720    1.7040  -35.7770 C.3    80  LEU80       0.0001
     39  CD2        3.9220    2.0600  -38.1920 C.3    80  LEU80       0.0001
     40  N         -2.8570    9.1890  -36.5240 N.3    83  ILE83      -0.1245
     41  CA        -3.7610    8.5020  -35.6060 C.3    83  ILE83       0.1561
     42  C         -5.1260    9.1020  -35.8870 C.2    83  ILE83       0.2260
     43  O         -5.3230   10.3110  -35.7640 O.2    83  ILE83      -0.2867
     44  CB        -3.3610    8.6540  -34.1110 C.3    83  ILE83       0.0252
     45  CG1       -1.8990    8.2580  -33.8120 C.3    83  ILE83       0.0019
     46  CG2       -4.3260    7.8910  -33.2130 C.3    83  ILE83       0.0019
     47  CD1       -1.4040    7.0220  -34.3800 C.3    83  ILE83       0.0001
     48  N        -10.3500    4.6290  -32.2740 N.3    97  VAL97      -0.1245
     49  CA        -9.0910    5.1430  -32.8010 C.3    97  VAL97       0.1561
     50  C         -8.4170    4.1500  -33.7390 C.2    97  VAL97       0.2260
     51  O         -8.2480    2.9820  -33.3830 O.2    97  VAL97      -0.2867
     52  CB        -8.1330    5.6040  -31.6590 C.3    97  VAL97       0.0252
     53  CG1       -6.7690    6.0390  -32.2210 C.3    97  VAL97       0.0019
     54  CG2       -8.7560    6.7180  -30.8250 C.3    97  VAL97       0.0019
     55  N         -4.8660    3.2860  -36.0420 N.3    99  LYS99      -0.1245
     56  CA        -3.4220    3.5470  -36.1700 C.3    99  LYS99       0.1561
     57  C         -2.7930    2.4740  -37.0720 C.2    99  LYS99       0.2260
     58  O         -3.1720    1.2990  -36.9690 O.2    99  LYS99      -0.2867
     59  CB        -2.7800    3.5310  -34.7700 C.3    99  LYS99       0.0271
     60  CG        -1.2460    3.6110  -34.7390 C.3    99  LYS99       0.0035
     61  CD        -0.7980    3.5460  -33.2580 C.3    99  LYS99       0.0206
     62  CE         0.6900    3.6170  -33.1220 C.3    99  LYS99       0.1093
     63  NZ         1.1030    3.3850  -31.6950 N.3    99  LYS99      -0.1314
     64  N          5.2700    0.7720  -41.3510 N.3   103  HIS103     -0.1241
     65  CA         5.5890    2.0050  -42.0630 C.3   103  HIS103      0.1621
     66  C          5.5460    1.8100  -43.5750 C.2   103  HIS103      0.2264
     67  O          5.2530    2.7610  -44.2930 O.2   103  HIS103     -0.2867
     68  CB         6.9540    2.5430  -41.6450 C.3   103  HIS103      0.0745
     69  CG         7.1490    2.7970  -40.1800 C.ar  103  HIS103      0.0817
     70  ND1        7.9570    1.9710  -39.4040 N.ar  103  HIS103     -0.2268
     71  CD2        6.7160    3.8240  -39.4170 C.ar  103  HIS103      0.1154
     72  CE1        7.9630    2.5050  -38.1920 C.ar  103  HIS103      0.1986
     73  NE2        7.2290    3.6200  -38.1470 N.ar  103  HIS103     -0.2212
     74  N         -5.3030    0.0540  -22.6110 N.3   129  VAL129     -0.1245
     75  CA        -6.1920    0.3690  -23.7280 C.3   129  VAL129      0.1561
     76  C         -6.7260   -0.9200  -24.3700 C.2   129  VAL129      0.2260
     77  O         -5.9610   -1.8640  -24.5700 O.2   129  VAL129     -0.2867
     78  CB        -5.5480    1.3240  -24.7750 C.3   129  VAL129      0.0252
     79  CG1       -4.4060    0.6440  -25.5360 C.3   129  VAL129      0.0019
     80  CG2       -6.6040    1.8590  -25.7550 C.3   129  VAL129      0.0019
     81  N         -8.5910    0.7030  -31.7480 N.3   150  MET150     -0.1230
     82  CA        -8.5790    0.7160  -30.2820 C.3   150  MET150      0.1702
     83  C         -9.5930    1.6990  -29.6810 C.2   150  MET150      0.2595
     84  O        -10.1340    2.5750  -30.3710 O.2   150  MET150     -0.2718
     85  CB        -7.1340    0.9330  -29.7150 C.3   150  MET150      0.0401
     86  CG        -6.4860    2.2380  -30.0480 C.3   150  MET150      0.0596
     87  SD        -4.6900    2.3500  -29.6140 S.3   150  MET150     -0.1393
     88  CE        -4.0970    3.0150  -31.1340 C.3   150  MET150      0.0692
     89  N         -9.8840    1.5010  -28.3860 N.am  151  GLU151     -0.1920
     90  CA       -10.7330    2.3390  -27.5730 C.3   151  GLU151      0.1949
     91  C        -10.1990    3.7860  -27.6070 C.2   151  GLU151      0.2659
     92  O         -8.9800    3.9710  -27.6140 O.2   151  GLU151     -0.2711
     93  CB       -10.6720    1.7760  -26.1310 C.2   151  GLU151      0.0111
     94  CG       -11.1310    2.7100  -25.0260 C.2   151  GLU151      0.0838
     95  CD       -10.7780    2.2650  -23.6240 C.2   151  GLU151      0.3877
     96  OE1      -10.0210    1.2760  -23.4800 O.co2 151  GLU151     -0.2406
     97  OE2      -11.2340    2.9330  -22.6670 O.co2 151  GLU151     -0.2406
     98  N        -11.1020    4.7940  -27.6360 N.am  152  TYR152     -0.1957
     99  CA       -10.6880    6.1900  -27.5600 C.3   152  TYR152      0.1771
    100  C        -10.4440    6.4670  -26.0680 C.2   152  TYR152      0.2619
    101  O        -11.3500    6.3090  -25.2490 O.2   152  TYR152     -0.2715
    102  CB       -11.7380    7.1690  -28.1250 C.3   152  TYR152      0.0574
    103  CG       -11.3780    8.6150  -27.8570 C.ar  152  TYR152     -0.0198
    104  CD1      -10.3900    9.2520  -28.5960 C.ar  152  TYR152     -0.0009
    105  CD2      -11.9430    9.3090  -26.7890 C.ar  152  TYR152     -0.0009
    106  CE1      -10.0050   10.5630  -28.3160 C.ar  152  TYR152      0.0417
    107  CE2      -11.5530   10.6160  -26.4840 C.ar  152  TYR152      0.0417
    108  CZ       -10.5970   11.2430  -27.2630 C.ar  152  TYR152      0.1957
    109  OH       -10.2180   12.5330  -26.9830 O.3   152  TYR152     -0.2866
    110  N         -9.2160    6.8770  -25.7360 N.am  153  VAL153     -0.1977
    111  CA        -8.8070    7.1790  -24.3610 C.3   153  VAL153      0.1596
    112  C         -8.7850    8.6960  -24.1800 C.2   153  VAL153      0.2287
    113  O         -8.0830    9.4050  -24.9080 O.2   153  VAL153     -0.2864
    114  CB        -7.4520    6.5010  -24.0010 C.3   153  VAL153      0.0276
    115  CG1       -7.0160    6.8460  -22.5700 C.3   153  VAL153      0.0022
    116  CG2       -7.5410    4.9860  -24.1790 C.3   153  VAL153      0.0022
    117  N         -1.2750   12.4960  -21.9530 N.3   157  SER157     -0.1217
    118  CA        -0.1790   11.6770  -21.4250 C.3   157  SER157      0.1889
    119  C          0.4670   12.3140  -20.1820 C.2   157  SER157      0.2288
    120  O          0.2960   13.5060  -19.9570 O.2   157  SER157     -0.2866
    121  CB         0.8770   11.4250  -22.5040 C.3   157  SER157      0.2089
    122  OG         1.8660   12.4390  -22.5190 O.3   157  SER157     -0.2183
    123  N          7.2700   -0.7060  -23.2650 N.3   194  ASP194     -0.1239
    124  CA         7.4300    0.6810  -23.6840 C.3   194  ASP194      0.1674
    125  C          6.9790    1.6490  -22.6380 C.2   194  ASP194      0.2266
    126  O          6.4410    2.7100  -22.9590 O.2   194  ASP194     -0.2867
    127  CB         6.7430    0.9300  -25.0400 C.3   194  ASP194      0.1410
    128  CG         7.3570    2.0660  -25.8490 C.2   194  ASP194      0.3668
    129  OD1        8.4480    2.5710  -25.4510 O.co2 194  ASP194     -0.2456
    130  OD2        6.6840    2.5610  -26.7580 O.co2 194  ASP194     -0.2456
    131  N          5.0450    9.3660  -21.7470 N.3   198  GLU198     -0.1231
    132  CA         4.2090    9.6310  -22.9340 C.3   198  GLU198      0.1699
    133  C          3.2320    8.5080  -23.2790 C.2   198  GLU198      0.2592
    134  O          2.2500    8.7520  -23.9920 O.2   198  GLU198     -0.2718
    135  CB         5.0310   10.0300  -24.1420 C.3   198  GLU198      0.0402
    136  CG         5.9740    8.9940  -24.7150 C.3   198  GLU198      0.1161
    137  CD         7.0330    9.6830  -25.5550 C.2   198  GLU198      0.3649
    138  OE1        7.8970   10.4020  -25.0000 O.co2 198  GLU198     -0.2457
    139  OE2        6.9710    9.5120  -26.7880 O.co2 198  GLU198     -0.2457
    140  N          3.5040    7.2910  -22.7930 N.am  199  ASN199     -0.1974
    141  CA         2.6130    6.1650  -23.0940 C.3   199  ASN199      0.1688
    142  C          1.5850    5.9050  -22.0130 C.2   199  ASN199      0.2292
    143  O          0.8650    4.9150  -22.0860 O.2   199  ASN199     -0.2864
    144  CB         3.4190    4.9050  -23.4250 C.3   199  ASN199      0.1181
    145  CG         4.0790    4.9690  -24.7740 C.2   199  ASN199      0.2629
    146  OD1        3.6440    5.6770  -25.6890 O.2   199  ASN199     -0.2716
    147  ND2        5.1650    4.2370  -24.9340 N.am  199  ASN199     -0.0877
    148  N         -1.6810    7.5530  -20.2000 N.3   201  MET201     -0.1245
    149  CA        -2.7360    8.5640  -20.3370 C.3   201  MET201      0.1570
    150  C         -3.4210    8.7950  -19.0010 C.2   201  MET201      0.2261
    151  O         -3.7550    7.8430  -18.2960 O.2   201  MET201     -0.2867
    152  CB        -3.7590    8.1300  -21.3950 C.3   201  MET201      0.0387
    153  CG        -3.1750    8.0130  -22.7950 C.3   201  MET201      0.0595
    154  SD        -2.7730    9.6170  -23.5040 S.3   201  MET201     -0.1393
    155  CE        -4.3480   10.0410  -24.2050 C.3   201  MET201      0.0692
    156  N         -1.2990    3.1750  -23.2310 N.3   210  ILE210     -0.1231
    157  CA        -1.6400    3.1390  -24.6650 C.3   210  ILE210      0.1692
    158  C         -0.4120    2.5820  -25.3630 C.2   210  ILE210      0.2592
    159  O          0.4940    2.0870  -24.6860 O.2   210  ILE210     -0.2718
    160  CB        -2.1230    4.5200  -25.2040 C.3   210  ILE210      0.0266
    161  CG1       -1.0310    5.6420  -24.9860 C.3   210  ILE210      0.0019
    162  CG2       -3.4490    4.8950  -24.5710 C.3   210  ILE210      0.0020
    163  CD1       -1.1710    6.8630  -25.8790 C.3   210  ILE210      0.0001
    164  N         -0.3700    2.6310  -26.6840 N.am  211  ASP211     -0.1974
    165  CA         0.7740    2.2210  -27.4910 C.3   211  ASP211      0.1709
    166  C          1.2610    0.7920  -27.1740 C.2   211  ASP211      0.2293
    167  O          2.3440    0.6010  -26.6110 O.2   211  ASP211     -0.2864
    168  CB         1.9100    3.2680  -27.3530 C.3   211  ASP211      0.1436
    169  CG         2.9620    3.1450  -28.4190 C.2   211  ASP211      0.3671
    170  OD1        2.8330    2.2400  -29.2740 O.co2 211  ASP211     -0.2456
    171  OD2        3.9350    3.9150  -28.3780 O.co2 211  ASP211     -0.2456
    172  N          2.3080   -1.3780  -29.2590 N.3   213  GLY213     -0.1225
    173  CA         3.1900   -1.7650  -30.3660 C.3   213  GLY213      0.1811
    174  C          4.4370   -2.5380  -29.9740 C.2   213  GLY213      0.2280
    175  O          4.9040   -3.3870  -30.7470 O.2   213  GLY213     -0.2866
    176  N         11.4090   -8.0310  -31.2680 N.3   223  TYR223     -0.1241
    177  CA        11.3070   -6.5770  -31.1270 C.3   223  TYR223      0.1605
    178  C         12.2830   -6.1210  -30.0450 C.2   223  TYR223      0.2264
    179  O         12.0310   -6.3750  -28.8610 O.2   223  TYR223     -0.2867
    180  CB         9.8520   -6.1690  -30.7780 C.3   223  TYR223      0.0534
    181  CG         9.6010   -4.6730  -30.7220 C.ar  223  TYR223     -0.0201
    182  CD1        9.9100   -3.9330  -29.5800 C.ar  223  TYR223     -0.0009
    183  CD2        8.9570   -4.0160  -31.7670 C.ar  223  TYR223     -0.0009
    184  CE1        9.6810   -2.5570  -29.5270 C.ar  223  TYR223      0.0417
    185  CE2        8.6820   -2.6490  -31.7050 C.ar  223  TYR223      0.0417
    186  CZ         9.0500   -1.9210  -30.5870 C.ar  223  TYR223      0.1957
    187  OH         8.7830   -0.5700  -30.5390 O.3   223  TYR223     -0.2866
@<TRIPOS>BOND
     1    67    66    2
     2    66    65    1
     3    65    68    1
     4    65    64    1
     5    68    69    1
     6    69    71   ar
     7    69    70   ar
     8    23    21   ar
     9    23    22   ar
    10    71    73   ar
    11    70    72   ar
    12    21    19   ar
    13    35    34    2
    14    22    20   ar
    15    34    33    1
    16    39    37    1
    17    72    73   ar
    18    19    20   ar
    19    19    18    1
    20    31    30    2
    21    33    36    1
    22    33    32    1
    23    57    58    2
    24    57    56    1
    25    18    15    1
    26    36    37    1
    27    37    38    1
    28    27    26    2
    29    30    32   am
    30    30    29    1
    31    40    41    1
    32    56    55    1
    33    56    59    1
    34    42    43    2
    35    42    41    1
    36    15    16    1
    37    15    14    1
    38    41    44    1
    39    12    11    2
    40    29    28    1
    41    26    28   am
    42    26    25    1
    43    24    16   am
    44    24    25    1
    45    16    17    2
    46     1     2    1
    47    14    11   am
    48    59    60    1
    49    11    10    1
    50    60    61    1
    51    47    45    1
    52    44    45    1
    53    44    46    1
    54     9    10    1
    55     9     3   am
    56    50    51    2
    57    50    49    1
    58    10    13    1
    59     2     3    1
    60     2     5    1
    61     3     4    2
    62    61    62    1
    63    62    63    1
    64    49    48    1
    65    49    52    1
    66     5     6    1
    67     5     7    1
    68     6     8    1
    69    53    52    1
    70   183   185   ar
    71   183   181   ar
    72    81    82    1
    73   185   186   ar
    74    52    54    1
    75   176   177    1
    76    88    87    1
    77   177   180    1
    78   177   178    1
    79   180   181    1
    80   175   174    2
    81   181   182   ar
    82   186   187    1
    83   186   184   ar
    84    84    83    2
    85   173   174    1
    86   173   172    1
    87    82    85    1
    88    82    83    1
    89    86    85    1
    90    86    87    1
    91   178   179    2
    92    83    89   am
    93   182   184   ar
    94   170   169   ar
    95   104   106   ar
    96   104   103   ar
    97   169   171   ar
    98   169   168    1
    99    89    90    1
   100   106   108   ar
   101   102   103    1
   102   102    99    1
   103   103   105   ar
   104    98    91   am
   105    98    99    1
   106    92    91    2
   107    91    90    1
   108    90    93    1
   109    99   100    1
   110   165   168    1
   111   165   166    1
   112   165   164    1
   113   108   109    1
   114   108   107   ar
   115   166   167    2
   116   105   107   ar
   117   139   137   ar
   118   130   128   ar
   119   164   158   am
   120    93    94    2
   121   100   110   am
   122   100   101    2
   123   163   161    1
   124   128   129   ar
   125   128   127    1
   126    80    78    1
   127   110   111    1
   128   146   145    2
   129   137   138   ar
   130   137   136    1
   131    79    78    1
   132   158   159    2
   133   158   157    1
   134   160   161    1
   135   160   157    1
   136   160   162    1
   137   127   124    1
   138    94    95    1
   139   147   145   am
   140   113   112    2
   141    78    75    1
   142   145   144    1
   143   136   135    1
   144   157   156    1
   145    77    76    2
   146    76    75    1
   147   111   112    1
   148   111   114    1
   149   155   154    1
   150   116   114    1
   151   135   132    1
   152   114   115    1
   153   134   133    2
   154    75    74    1
   155   124   123    1
   156   124   125    1
   157    95    96   ar
   158    95    97   ar
   159   154   153    1
   160   144   141    1
   161   133   132    1
   162   133   140   am
   163   141   140    1
   164   141   142    1
   165   126   125    2
   166   132   131    1
   167   153   152    1
   168   122   121    1
   169   121   118    1
   170   143   142    2
   171   117   118    1
   172   118   119    1
   173   152   149    1
   174   149   148    1
   175   149   150    1
   176   119   120    2
   177   150   151    2
