@<TRIPOS>MOLECULE
tmp/4y13A00.pdb
 174 165 0 0 0
SMALL
GASTEIGER

@<TRIPOS>ATOM
      1  N         26.0940   70.4430   43.3480 N.3    40  SER40      -0.1217
      2  CA        24.8400   69.6880   43.3890 C.3    40  SER40       0.1889
      3  C         23.6940   70.6170   43.7560 C.2    40  SER40       0.2288
      4  O         23.8410   71.4840   44.6180 O.2    40  SER40      -0.2866
      5  CB        24.9050   68.5300   44.3890 C.3    40  SER40       0.2089
      6  OG        23.6530   67.8700   44.4750 O.3    40  SER40      -0.2183
      7  N         19.7480   70.1240   44.6850 N.3    42  CYS42      -0.1235
      8  CA        18.5420   69.3540   44.9760 C.3    42  CYS42       0.1677
      9  C         17.3960   70.2840   45.3590 C.2    42  CYS42       0.2270
     10  O         17.6240   71.3630   45.9040 O.2    42  CYS42      -0.2867
     11  CB        18.8000   68.3520   46.1040 C.3    42  CYS42       0.0956
     12  SG        20.1160   67.1540   45.7680 S.3    42  CYS42      -0.0801
     13  N         11.6230   64.8240   44.7850 N.3    54  VAL54      -0.1245
     14  CA        12.9600   65.3750   44.9770 C.3    54  VAL54       0.1561
     15  C         13.6970   65.3890   43.6440 C.2    54  VAL54       0.2260
     16  O         14.3770   64.4270   43.2820 O.2    54  VAL54      -0.2867
     17  CB        13.7600   64.5720   46.0220 C.3    54  VAL54       0.0252
     18  CG1       15.1650   65.1330   46.1930 C.3    54  VAL54       0.0019
     19  CG2       13.0380   64.5960   47.3520 C.3    54  VAL54       0.0019
     20  N         16.5290   67.0340   41.0040 N.3    56  PHE56      -0.1241
     21  CA        17.8910   67.5180   41.1640 C.3    56  PHE56       0.1605
     22  C         18.6430   67.4690   39.8460 C.2    56  PHE56       0.2264
     23  O         18.2580   66.7410   38.9300 O.2    56  PHE56      -0.2867
     24  CB        18.6360   66.6810   42.2040 C.3    56  PHE56       0.0534
     25  CG        18.9320   65.2770   41.7490 C.ar   56  PHE56      -0.0203
     26  CD1       18.0180   64.2590   41.9610 C.ar   56  PHE56      -0.0042
     27  CD2       20.1230   64.9770   41.1060 C.ar   56  PHE56      -0.0042
     28  CE1       18.2850   62.9680   41.5440 C.ar   56  PHE56      -0.0003
     29  CE2       20.3960   63.6880   40.6850 C.ar   56  PHE56      -0.0003
     30  CZ        19.4750   62.6830   40.9040 C.ar   56  PHE56      -0.0000
     31  N         23.0460   67.5620   38.7980 N.3    58  THR58      -0.1218
     32  CA        24.3800   67.5950   39.3700 C.3    58  THR58       0.1862
     33  C         25.4360   67.1120   38.3800 C.2    58  THR58       0.2287
     34  O         25.1380   66.3410   37.4670 O.2    58  THR58      -0.2866
     35  CB        24.4460   66.7190   40.6290 C.3    58  THR58       0.1770
     36  OG1       25.6970   66.9260   41.2950 O.3    58  THR58      -0.2211
     37  CG2       24.3530   65.2770   40.2650 C.3    58  THR58       0.0375
     38  N         27.9200   65.3390   39.4990 N.3    60  TYR60      -0.1241
     39  CA        28.5790   64.3460   40.3300 C.3    60  TYR60       0.1605
     40  C         28.9820   63.1750   39.4570 C.2    60  TYR60       0.2264
     41  O         28.4600   63.0150   38.3510 O.2    60  TYR60      -0.2867
     42  CB        27.6630   63.8530   41.4590 C.3    60  TYR60       0.0534
     43  CG        27.6880   64.6430   42.7590 C.ar   60  TYR60      -0.0201
     44  CD1       28.7660   65.4520   43.1040 C.ar   60  TYR60      -0.0009
     45  CD2       26.6280   64.5580   43.6530 C.ar   60  TYR60      -0.0009
     46  CE1       28.7770   66.1610   44.2950 C.ar   60  TYR60       0.0417
     47  CE2       26.6300   65.2660   44.8430 C.ar   60  TYR60       0.0417
     48  CZ        27.7070   66.0650   45.1600 C.ar   60  TYR60       0.1957
     49  OH        27.7180   66.7720   46.3420 O.3    60  TYR60      -0.2866
     50  N         28.0790   57.6270   41.4120 N.3    64  TRP64      -0.1227
     51  CA        27.6620   58.0000   42.7570 C.3    64  TRP64       0.1737
     52  C         26.1780   58.3460   42.8040 C.2    64  TRP64       0.2595
     53  O         25.4810   57.9710   43.7450 O.2    64  TRP64      -0.2718
     54  CB        28.4890   59.1770   43.2680 C.3    64  TRP64       0.0564
     55  CG        27.9420   59.7770   44.5230 C.ar   64  TRP64       0.0003
     56  CD1       27.4730   61.0470   44.6830 C.ar   64  TRP64       0.0946
     57  CD2       27.7930   59.1310   45.7930 C.ar   64  TRP64       0.0152
     58  NE1       27.0480   61.2360   45.9740 N.ar   64  TRP64      -0.2442
     59  CE2       27.2330   60.0740   46.6770 C.ar   64  TRP64       0.0810
     60  CE3       28.0800   57.8480   46.2700 C.ar   64  TRP64       0.0012
     61  CZ2       26.9540   59.7760   48.0090 C.ar   64  TRP64       0.0191
     62  CZ3       27.8030   57.5550   47.5950 C.ar   64  TRP64       0.0001
     63  CH2       27.2460   58.5150   48.4470 C.ar   64  TRP64       0.0015
     64  N         25.6980   59.0610   41.7920 N.am   65  VAL65      -0.1980
     65  CA        24.2850   59.4160   41.7240 C.3    65  VAL65       0.1595
     66  C         23.4340   58.1500   41.7170 C.2    65  VAL65       0.2287
     67  O         22.3740   58.1030   42.3380 O.2    65  VAL65      -0.2864
     68  CB        23.9710   60.2650   40.4730 C.3    65  VAL65       0.0276
     69  CG1       22.4870   60.6160   40.4060 C.3    65  VAL65       0.0022
     70  CG2       24.8080   61.5330   40.4720 C.3    65  VAL65       0.0022
     71  N         23.7770   56.3690   45.2980 N.3    68  TYR68      -0.1227
     72  CA        23.0460   57.1390   46.2970 C.3    68  TYR68       0.1736
     73  C         21.5550   56.8320   46.2400 C.2    68  TYR68       0.2595
     74  O         20.8930   56.7210   47.2720 O.2    68  TYR68      -0.2718
     75  CB        23.2950   58.6310   46.0760 C.3    68  TYR68       0.0548
     76  CG        22.6160   59.5410   47.0670 C.ar   68  TYR68      -0.0200
     77  CD1       21.2870   59.9070   46.9050 C.ar   68  TYR68      -0.0009
     78  CD2       23.3100   60.0570   48.1530 C.ar   68  TYR68      -0.0009
     79  CE1       20.6660   60.7440   47.8010 C.ar   68  TYR68       0.0417
     80  CE2       22.6970   60.8980   49.0540 C.ar   68  TYR68       0.0417
     81  CZ        21.3740   61.2380   48.8730 C.ar   68  TYR68       0.1957
     82  OH        20.7570   62.0760   49.7670 O.3    68  TYR68      -0.2866
     83  N         21.0350   56.6950   45.0250 N.am   69  GLN69      -0.1979
     84  CA        19.6300   56.3690   44.8170 C.3    69  GLN69       0.1601
     85  C         19.3500   54.9020   45.1210 C.2    69  GLN69       0.2287
     86  O         18.2810   54.5560   45.6260 O.2    69  GLN69      -0.2864
     87  CB        19.2200   56.6850   43.3770 C.3    69  GLN69       0.0394
     88  CG        19.2230   58.1660   43.0470 C.3    69  GLN69       0.0908
     89  CD        18.8410   58.4740   41.6020 C.2    69  GLN69       0.2608
     90  OE1       18.3570   59.5670   41.3060 O.2    69  GLN69      -0.2717
     91  NE2       19.0620   57.5200   40.6980 N.am   69  GLN69      -0.0878
     92  N         18.8410   59.2990   50.7350 N.3    74  LEU74      -0.1245
     93  CA        18.0470   60.5020   50.9680 C.3    74  LEU74       0.1561
     94  C         17.3730   60.4520   52.3310 C.2    74  LEU74       0.2260
     95  O         17.2890   61.4580   53.0370 O.2    74  LEU74      -0.2867
     96  CB        16.9860   60.6730   49.8800 C.3    74  LEU74       0.0270
     97  CG        15.9960   61.8170   50.1260 C.3    74  LEU74       0.0019
     98  CD1       16.6990   63.1550   50.0590 C.3    74  LEU74       0.0001
     99  CD2       14.8650   61.7830   49.1330 C.3    74  LEU74       0.0001
    100  N         20.1180   61.3940   54.7430 N.3    77  ASP77      -0.1239
    101  CA        21.1100   62.3980   54.3660 C.3    77  ASP77       0.1674
    102  C         21.0340   63.6430   55.2580 C.2    77  ASP77       0.2266
    103  O         20.0290   64.3520   55.2380 O.2    77  ASP77      -0.2867
    104  CB        20.9240   62.8050   52.9060 C.3    77  ASP77       0.1410
    105  CG        22.1700   63.4360   52.3170 C.2    77  ASP77       0.3668
    106  OD1       23.1180   63.7130   53.0820 O.co2  77  ASP77      -0.2456
    107  OD2       22.2030   63.6540   51.0860 O.co2  77  ASP77      -0.2456
    108  N         22.7030   66.5640   55.0560 N.3    79  VAL79      -0.1231
    109  CA        22.8480   67.8560   54.3870 C.3    79  VAL79       0.1692
    110  C         21.5820   68.3020   53.6530 C.2    79  VAL79       0.2591
    111  O         21.5370   69.4040   53.1000 O.2    79  VAL79      -0.2718
    112  CB        24.0160   67.8340   53.3790 C.3    79  VAL79       0.0266
    113  CG1       25.2970   67.3820   54.0630 C.3    79  VAL79       0.0020
    114  CG2       23.7010   66.9290   52.1980 C.3    79  VAL79       0.0020
    115  N         20.5680   67.4390   53.6440 N.am   80  LEU80      -0.1980
    116  CA        19.2700   67.7670   53.0580 C.3    80  LEU80       0.1596
    117  C         18.1950   67.8130   54.1410 C.2    80  LEU80       0.2287
    118  O         17.0270   67.5040   53.8910 O.2    80  LEU80      -0.2864
    119  CB        18.9010   66.7500   51.9760 C.3    80  LEU80       0.0297
    120  CG        19.8800   66.6560   50.8020 C.3    80  LEU80       0.0022
    121  CD1       19.4740   65.5370   49.8540 C.3    80  LEU80       0.0001
    122  CD2       19.9700   67.9810   50.0560 C.3    80  LEU80       0.0001
    123  N         30.1760   70.5920   56.1830 N.3    91  TRP91      -0.1241
    124  CA        30.2830   69.1420   56.3140 C.3    91  TRP91       0.1605
    125  C         31.3840   68.7530   57.2970 C.2    91  TRP91       0.2264
    126  O         32.5360   69.1580   57.1390 O.2    91  TRP91      -0.2867
    127  CB        30.5670   68.4890   54.9600 C.3    91  TRP91       0.0550
    128  CG        29.4710   68.6270   53.9500 C.ar   91  TRP91       0.0003
    129  CD1       28.3930   69.4610   54.0090 C.ar   91  TRP91       0.0946
    130  CD2       29.3480   67.8990   52.7220 C.ar   91  TRP91       0.0152
    131  NE1       27.6090   69.3010   52.8910 N.ar   91  TRP91      -0.2442
    132  CE2       28.1740   68.3470   52.0860 C.ar   91  TRP91       0.0810
    133  CE3       30.1180   66.9110   52.1000 C.ar   91  TRP91       0.0012
    134  CZ2       27.7510   67.8400   50.8590 C.ar   91  TRP91       0.0191
    135  CZ3       29.6980   66.4120   50.8810 C.ar   91  TRP91       0.0001
    136  CH2       28.5260   66.8760   50.2740 C.ar   91  TRP91       0.0015
    137  N         27.4190   62.9630   60.4590 N.3    96  PHE96      -0.1241
    138  CA        26.9790   61.7330   59.8020 C.3    96  PHE96       0.1605
    139  C         26.9620   60.5250   60.7380 C.2    96  PHE96       0.2264
    140  O         26.9330   59.3840   60.2780 O.2    96  PHE96      -0.2867
    141  CB        27.8820   61.4230   58.6040 C.3    96  PHE96       0.0534
    142  CG        27.7890   62.4270   57.4940 C.ar   96  PHE96      -0.0203
    143  CD1       28.5060   63.6110   57.5470 C.ar   96  PHE96      -0.0042
    144  CD2       26.9960   62.1790   56.3860 C.ar   96  PHE96      -0.0042
    145  CE1       28.4240   64.5330   56.5210 C.ar   96  PHE96      -0.0003
    146  CE2       26.9110   63.0960   55.3580 C.ar   96  PHE96      -0.0003
    147  CZ        27.6260   64.2750   55.4250 C.ar   96  PHE96      -0.0000
    148  N         26.1880   56.1910   54.4860 N.3   102  LEU102     -0.1245
    149  CA        26.2690   57.2740   53.5150 C.3   102  LEU102      0.1561
    150  C         27.6390   57.9360   53.5740 C.2   102  LEU102      0.2260
    151  O         28.2340   58.2560   52.5460 O.2   102  LEU102     -0.2867
    152  CB        25.1740   58.3100   53.7760 C.3   102  LEU102      0.0270
    153  CG        25.3140   59.6460   53.0430 C.3   102  LEU102      0.0019
    154  CD1       25.3500   59.4450   51.5370 C.3   102  LEU102      0.0001
    155  CD2       24.1850   60.5810   53.4240 C.3   102  LEU102      0.0001
    156  N         30.0580   57.8400   50.3630 N.3   106  ALA106     -0.1245
    157  CA        30.3940   59.1010   49.7150 C.3   106  ALA106      0.1562
    158  C         31.9070   59.2630   49.5910 C.2   106  ALA106      0.2260
    159  O         32.4000   59.8050   48.6030 O.2   106  ALA106     -0.2867
    160  CB        29.7940   60.2660   50.4860 C.3   106  ALA106      0.0290
    161  N         34.0010   61.9000   47.4190 N.3   111  LEU111     -0.1245
    162  CA        33.4540   63.0680   48.1050 C.3   111  LEU111      0.1561
    163  C         33.9360   63.0700   49.5520 C.2   111  LEU111      0.2260
    164  O         33.3490   62.4100   50.4090 O.2   111  LEU111     -0.2867
    165  CB        31.9240   63.0750   48.0370 C.3   111  LEU111      0.0270
    166  CG        31.3170   62.9420   46.6340 C.3   111  LEU111      0.0019
    167  CD1       29.8010   63.0170   46.6990 C.3   111  LEU111      0.0001
    168  CD2       31.8610   64.0020   45.6870 C.3   111  LEU111      0.0001
    169  N         24.8170   72.2350   47.1280 N.3   129  SER129     -0.1217
    170  CA        25.9490   71.5750   47.7770 C.3   129  SER129      0.1889
    171  C         27.2100   71.6030   46.9160 C.2   129  SER129      0.2288
    172  O         27.1700   71.2750   45.7320 O.2   129  SER129     -0.2866
    173  CB        25.5930   70.1240   48.1110 C.3   129  SER129      0.2089
    174  OG        24.4340   70.0560   48.9230 O.3   129  SER129     -0.2183
@<TRIPOS>BOND
     1    34    33    2
     2    41    40    2
     3    33    32    1
     4    31    32    1
     5    23    22    2
     6    32    35    1
     7    40    39    1
     8    38    39    1
     9    22    21    1
    10    37    35    1
    11    39    42    1
    12    69    68    1
    13    70    68    1
    14    68    65    1
    15    35    36    1
    16    29    30   ar
    17    29    27   ar
    18    91    89   am
    19    30    28   ar
    20    20    21    1
    21    27    25   ar
    22    21    24    1
    23    90    89    2
    24    50    51    1
    25    42    43    1
    26    28    26   ar
    27    89    88    1
    28    66    65    1
    29    66    67    2
    30    65    64    1
    31    25    26   ar
    32    25    24    1
    33    64    52   am
    34    51    52    1
    35    51    54    1
    36    43    44   ar
    37    43    45   ar
    38    52    53    2
    39    88    87    1
    40    44    46   ar
    41    54    55    1
    42    16    15    2
    43     1     2    1
    44    87    84    1
    45     2     3    1
    46     2     5    1
    47    15    14    1
    48    45    47   ar
    49     3     4    2
    50    46    48   ar
    51     5     6    1
    52    55    56   ar
    53    55    57   ar
    54    56    58   ar
    55     7     8    1
    56    13    14    1
    57    84    83    1
    58    84    85    1
    59    47    48   ar
    60     8     9    1
    61     8    11    1
    62    14    17    1
    63    83    73   am
    64    85    86    2
    65    48    49    1
    66    71    72    1
    67     9    10    2
    68   168   166    1
    69   172   171    2
    70    12    11    1
    71    57    60   ar
    72    57    59   ar
    73    58    59   ar
    74    17    18    1
    75    17    19    1
    76    75    72    1
    77    75    76    1
    78    73    72    1
    79    73    74    2
    80    60    62   ar
    81   166   167    1
    82   166   165    1
    83    59    61   ar
    84    77    76   ar
    85    77    79   ar
    86   171   170    1
    87    76    78   ar
    88   169   170    1
    89   161   162    1
    90    62    63   ar
    91   170   173    1
    92    79    81   ar
    93    61    63   ar
    94   165   162    1
    95   162   163    1
    96   173   174    1
    97    78    80   ar
    98   159   158    2
    99    81    80   ar
   100    81    82    1
   101    99    97    1
   102   163   164    2
   103   158   157    1
   104   157   156    1
   105   157   160    1
   106   121   120    1
   107    96    97    1
   108    96    93    1
   109   122   120    1
   110    98    97    1
   111   136   134   ar
   112   136   135   ar
   113    92    93    1
   114   120   119    1
   115   134   132   ar
   116   135   133   ar
   117    93    94    1
   118   107   105   ar
   119   154   153    1
   120   119   116    1
   121   132   130   ar
   122   132   131   ar
   123   133   130   ar
   124   114   112    1
   125   105   104    1
   126   105   106   ar
   127    94    95    2
   128   151   150    2
   129   130   128   ar
   130   131   129   ar
   131   104   101    1
   132   153   155    1
   133   153   152    1
   134   116   115    1
   135   116   117    1
   136   111   110    2
   137   112   113    1
   138   112   109    1
   139   149   150    1
   140   149   152    1
   141   149   148    1
   142   115   110   am
   143   110   109    1
   144   118   117    2
   145   128   129   ar
   146   128   127    1
   147   101   100    1
   148   101   102    1
   149   109   108    1
   150   127   124    1
   151   103   102    2
   152   146   147   ar
   153   146   144   ar
   154   147   145   ar
   155   123   124    1
   156   124   125    1
   157   144   142   ar
   158   145   143   ar
   159   126   125    2
   160   142   143   ar
   161   142   141    1
   162   141   138    1
   163   138   137    1
   164   138   139    1
   165   140   139    2
