@<TRIPOS>MOLECULE
tmp/4y14B01.pdb
 124 119 0 0 0
SMALL
GASTEIGER

@<TRIPOS>ATOM
      1  N          8.4770    6.5070  -50.5770 N.3    45  TYR45      -0.1227
      2  CA         9.5140    7.1860  -51.3530 C.3    45  TYR45       0.1736
      3  C          9.0980    7.3600  -52.8070 C.2    45  TYR45       0.2595
      4  O          8.5770    6.4320  -53.4210 O.2    45  TYR45      -0.2718
      5  CB        10.8320    6.4130  -51.3010 C.3    45  TYR45       0.0548
      6  CG        11.3720    6.1880  -49.9110 C.ar   45  TYR45      -0.0200
      7  CD1       11.8920    7.2410  -49.1710 C.ar   45  TYR45      -0.0009
      8  CD2       11.3810    4.9160  -49.3430 C.ar   45  TYR45      -0.0009
      9  CE1       12.3960    7.0440  -47.8980 C.ar   45  TYR45       0.0417
     10  CE2       11.8860    4.7070  -48.0670 C.ar   45  TYR45       0.0417
     11  CZ        12.3910    5.7750  -47.3500 C.ar   45  TYR45       0.1957
     12  OH        12.8950    5.5820  -46.0830 O.3    45  TYR45      -0.2866
     13  N          9.3320    8.5510  -53.3550 N.am   46  ARG46      -0.1966
     14  CA         8.9590    8.8440  -54.7360 C.3    46  ARG46       0.1729
     15  C          9.7540    8.0300  -55.7540 C.2    46  ARG46       0.2616
     16  O          9.2810    7.7990  -56.8650 O.2    46  ARG46      -0.2715
     17  CB         9.1310   10.3390  -55.0310 C.3    46  ARG46       0.0348
     18  CG         8.0270   11.1930  -54.4160 C.3    46  ARG46       0.0492
     19  CD         6.5960   10.7470  -54.8770 C.3    46  ARG46       0.2205
     20  NE         5.4990   11.5190  -54.2750 N.pl3  46  ARG46      -0.0865
     21  CZ         4.8800   11.2050  -53.1350 C.cat  46  ARG46       0.5346
     22  NH1        5.2370   10.1390  -52.4240 N.pl3  46  ARG46       0.1354
     23  NH2        3.8940   11.9800  -52.6900 N.pl3  46  ARG46       0.1354
     24  N         10.9550    7.5920  -55.3850 N.am   47  ASP47      -0.1957
     25  CA        11.8050    6.8790  -56.3380 C.3    47  ASP47       0.1840
     26  C         11.7850    5.3600  -56.1700 C.2    47  ASP47       0.2621
     27  O         12.5890    4.6570  -56.7770 O.2    47  ASP47      -0.2715
     28  CB        13.2520    7.3700  -56.2380 C.3    47  ASP47       0.1450
     29  CG        13.8430    7.1860  -54.8480 C.2    47  ASP47       0.3671
     30  OD1       13.0940    7.2740  -53.8490 O.co2  47  ASP47      -0.2456
     31  OD2       15.0660    6.9490  -54.7550 O.co2  47  ASP47      -0.2456
     32  N         10.8840    4.8490  -55.3400 N.am   48  VAL48      -0.1977
     33  CA        10.7750    3.4030  -55.1670 C.3    48  VAL48       0.1596
     34  C          9.3240    2.9840  -55.3680 C.2    48  VAL48       0.2287
     35  O          8.4660    3.2950  -54.5410 O.2    48  VAL48      -0.2864
     36  CB        11.2680    2.9560  -53.7810 C.3    48  VAL48       0.0276
     37  CG1       11.1180    1.4480  -53.6230 C.3    48  VAL48       0.0022
     38  CG2       12.7230    3.3730  -53.5660 C.3    48  VAL48       0.0022
     39  N         11.4010    5.7240  -40.3750 N.3   119  LYS119     -0.1245
     40  CA        11.6440    4.9610  -41.5980 C.3   119  LYS119      0.1561
     41  C         10.5250    3.9630  -41.8620 C.2   119  LYS119      0.2260
     42  O         10.4760    3.3310  -42.9210 O.2   119  LYS119     -0.2867
     43  CB        12.9880    4.2260  -41.5070 C.3   119  LYS119      0.0271
     44  CG        14.1980    5.1490  -41.4350 C.3   119  LYS119      0.0035
     45  CD        14.2990    6.0180  -42.6840 C.3   119  LYS119      0.0206
     46  CE        15.4160    7.0480  -42.5700 C.3   119  LYS119      0.1093
     47  NZ        16.6980    6.4290  -42.1450 N.3   119  LYS119     -0.1314
     48  N         20.3440    0.9880  -42.7300 N.3   180  ASP180     -0.1225
     49  CA        20.0660    1.1990  -44.1480 C.3   180  ASP180      0.1805
     50  C         21.3690    1.4070  -44.9140 C.2   180  ASP180      0.2597
     51  O         22.3070    2.0350  -44.4200 O.2   180  ASP180     -0.2718
     52  CB        19.0670    2.3430  -44.3970 C.3   180  ASP180      0.1424
     53  CG        19.3830    3.6070  -43.6390 C.2   180  ASP180      0.3668
     54  OD1       20.5710    3.9000  -43.3950 O.co2 180  ASP180     -0.2456
     55  OD2       18.4130    4.3270  -43.3090 O.co2 180  ASP180     -0.2456
     56  N         21.4170    0.8180  -46.1050 N.am  181  PHE181     -0.1976
     57  CA        22.5770    0.8540  -46.9840 C.3   181  PHE181      0.1639
     58  C         23.7970    0.2230  -46.3150 C.2   181  PHE181      0.2290
     59  O         24.9290    0.4500  -46.7320 O.2   181  PHE181     -0.2864
     60  CB        22.8780    2.2870  -47.4200 C.3   181  PHE181      0.0560
     61  CG        21.7380    2.9450  -48.1410 C.ar  181  PHE181     -0.0200
     62  CD1       21.4410    2.6060  -49.4530 C.ar  181  PHE181     -0.0042
     63  CD2       20.9600    3.9000  -47.5090 C.ar  181  PHE181     -0.0042
     64  CE1       20.3850    3.2070  -50.1190 C.ar  181  PHE181     -0.0003
     65  CE2       19.9110    4.5070  -48.1660 C.ar  181  PHE181     -0.0003
     66  CZ        19.6200    4.1600  -49.4770 C.ar  181  PHE181     -0.0000
     67  N         11.8980   -3.6120  -45.3960 N.3   214  CYS214     -0.1221
     68  CA        12.8070   -2.7550  -44.6700 C.3   214  CYS214      0.1808
     69  C         12.1690   -1.3720  -44.7070 C.2   214  CYS214      0.2602
     70  O         10.9860   -1.2430  -44.3970 O.2   214  CYS214     -0.2717
     71  CB        14.2130   -2.8020  -45.2740 C.3   214  CYS214      0.0970
     72  SG        14.2680   -2.9660  -47.0850 S.3   214  CYS214     -0.0800
     73  N         12.9110   -0.3370  -45.0760 N.am  215  SER215     -0.1938
     74  CA        12.2700    0.9670  -45.2020 C.3   215  SER215      0.2055
     75  C         11.7040    1.1380  -46.6060 C.2   215  SER215      0.2642
     76  O         10.5140    1.4180  -46.7740 O.2   215  SER215     -0.2714
     77  CB        13.2420    2.1040  -44.8680 C.3   215  SER215      0.2130
     78  OG        12.5750    3.3560  -44.9490 O.3   215  SER215     -0.2179
     79  N         12.5440    0.9350  -47.6150 N.am  216  ALA216     -0.1977
     80  CA        12.0930    1.0390  -49.0000 C.3   216  ALA216      0.1597
     81  C         11.6560   -0.3060  -49.5800 C.2   216  ALA216      0.2287
     82  O         10.9570   -0.3510  -50.5920 O.2   216  ALA216     -0.2864
     83  CB        13.1800    1.6350  -49.8570 C.3   216  ALA216      0.0319
     84  N         13.8220   -2.7000  -50.7560 N.3   218  ILE218     -0.1231
     85  CA        14.6880   -3.0830  -51.8740 C.3   218  ILE218      0.1692
     86  C         16.1460   -3.3800  -51.4760 C.2   218  ILE218      0.2593
     87  O         16.7480   -4.3110  -52.0000 O.2   218  ILE218     -0.2718
     88  CB        14.6880   -1.9980  -52.9900 C.3   218  ILE218      0.0266
     89  CG1       15.1860   -0.6550  -52.4600 C.3   218  ILE218      0.0019
     90  CG2       13.2920   -1.8220  -53.5730 C.3   218  ILE218      0.0020
     91  CD1       15.2750    0.4190  -53.5270 C.3   218  ILE218      0.0001
     92  N         16.7190   -2.6100  -50.5560 N.am  219  GLY219     -0.1942
     93  CA        18.1200   -2.8080  -50.2100 C.3   219  GLY219      0.2014
     94  C         18.3590   -4.0210  -49.3270 C.2   219  GLY219      0.2638
     95  O         18.9060   -5.0420  -49.7590 O.2   219  GLY219     -0.2714
     96  N         17.9510   -3.9090  -48.0710 N.am  220  ARG220     -0.1977
     97  CA        18.0990   -5.0110  -47.1340 C.3   220  ARG220      0.1597
     98  C         17.1870   -6.1850  -47.5110 C.2   220  ARG220      0.2287
     99  O         17.5950   -7.3460  -47.4210 O.2   220  ARG220     -0.2864
    100  CB        17.8260   -4.5200  -45.7070 C.3   220  ARG220      0.0334
    101  CG        18.9180   -3.5690  -45.2130 C.3   220  ARG220      0.0492
    102  CD        18.4750   -2.7080  -44.0400 C.3   220  ARG220      0.2205
    103  NE        17.5700   -1.6320  -44.4440 N.pl3 220  ARG220     -0.0865
    104  CZ        17.1730   -0.6580  -43.6280 C.cat 220  ARG220      0.5346
    105  NH1       17.6070   -0.6280  -42.3720 N.pl3 220  ARG220      0.1354
    106  NH2       16.3500    0.2860  -44.0610 N.pl3 220  ARG220      0.1354
    107  N         21.1360   -2.5100  -52.7730 N.3   257  GLN257     -0.1245
    108  CA        21.3320   -1.0820  -52.9780 C.3   257  GLN257      0.1566
    109  C         22.7860   -0.6160  -52.9280 C.2   257  GLN257      0.2260
    110  O         23.0690    0.5370  -53.2390 O.2   257  GLN257     -0.2867
    111  CB        20.5130   -0.3090  -51.9450 C.3   257  GLN257      0.0367
    112  CG        19.0580   -0.1340  -52.3570 C.3   257  GLN257      0.0905
    113  CD        18.9100    0.8520  -53.4950 C.2   257  GLN257      0.2608
    114  OE1       19.0080    2.0580  -53.2910 O.2   257  GLN257     -0.2717
    115  NE2       18.7000    0.3440  -54.7060 N.am  257  GLN257     -0.0878
    116  N         26.6180   -4.7600  -50.2340 N.3   261  GLN261     -0.1245
    117  CA        25.4960   -5.6690  -49.9950 C.3   261  GLN261      0.1566
    118  C         25.5620   -6.8360  -50.9770 C.2   261  GLN261      0.2260
    119  O         25.2680   -7.9820  -50.6260 O.2   261  GLN261     -0.2867
    120  CB        24.1510   -4.9420  -50.1220 C.3   261  GLN261      0.0367
    121  CG        23.7710   -4.1060  -48.9020 C.3   261  GLN261      0.0905
    122  CD        22.4760   -3.3410  -49.0920 C.2   261  GLN261      0.2608
    123  OE1       21.9290   -3.2890  -50.1930 O.2   261  GLN261     -0.2717
    124  NE2       21.9810   -2.7390  -48.0170 N.am  261  GLN261     -0.0878
@<TRIPOS>BOND
     1    16    15    2
     2    27    26    2
     3    25    28    1
     4    25    26    1
     5    25    24    1
     6    28    29    1
     7    26    32   am
     8    15    24   am
     9    15    14    1
    10    34    33    1
    11    34    35    2
    12    32    33    1
    13    33    36    1
    14    17    14    1
    15    17    18    1
    16    19    18    1
    17    19    20    1
    18    29    31   ar
    19    29    30   ar
    20    14    13    1
    21   115   113   am
    22    20    21    2
    23    36    37    1
    24    36    38    1
    25    90    88    1
    26    91    89    1
    27   113   114    2
    28   113   112    1
    29     4     3    2
    30    13     3   am
    31   110   109    2
    32    21    23    1
    33    21    22    1
    34    88    89    1
    35    88    85    1
    36   108   109    1
    37   108   107    1
    38   108   111    1
    39     3     2    1
    40   112   111    1
    41    87    86    2
    42    85    86    1
    43    85    84    1
    44    86    92   am
    45     2     5    1
    46     2     1    1
    47     5     6    1
    48   118   119    2
    49   118   117    1
    50    82    81    2
    51    92    93    1
    52   116   117    1
    53    93    94    1
    54   123   122    2
    55   120   117    1
    56   120   121    1
    57    64    66   ar
    58    64    62   ar
    59     6     8   ar
    60     6     7   ar
    61    83    80    1
    62    95    94    2
    63    81    80    1
    64    66    65   ar
    65    62    61   ar
    66     8    10   ar
    67    94    96   am
    68     7     9   ar
    69   122   121    1
    70   122   124   am
    71    80    79    1
    72    65    63   ar
    73    61    63   ar
    74    61    60    1
    75    96    97    1
    76    10    11   ar
    77     9    11   ar
    78    79    75   am
    79    98    99    2
    80    98    97    1
    81    60    57    1
    82    11    12    1
    83    97   100    1
    84    72    71    1
    85    57    58    1
    86    57    56    1
    87    76    75    2
    88    59    58    2
    89    75    74    1
    90    56    50   am
    91   100   101    1
    92    67    68    1
    93    71    68    1
    94   101   102    1
    95    74    73    1
    96    74    77    1
    97    73    69   am
    98    78    77    1
    99    50    51    2
   100    50    49    1
   101    69    68    1
   102    69    70    2
   103   103   102    1
   104   103   104    2
   105    52    49    1
   106    52    53    1
   107    49    48    1
   108   106   104    1
   109    53    54   ar
   110    53    55   ar
   111   104   105    1
   112    42    41    2
   113    45    46    1
   114    45    44    1
   115    46    47    1
   116    41    40    1
   117    40    43    1
   118    40    39    1
   119    43    44    1
