@<TRIPOS>MOLECULE
tmp/4y15A00.pdb
 172 166 0 0 0
SMALL
GASTEIGER

@<TRIPOS>ATOM
      1  N         -8.7120   19.7250  -33.0220 N.3    39  SER39      -0.1217
      2  CA        -7.8390   20.6530  -32.3250 C.3    39  SER39       0.1889
      3  C         -6.7790   21.1390  -33.2940 C.2    39  SER39       0.2288
      4  O         -6.0460   20.3340  -33.8690 O.2    39  SER39      -0.2866
      5  CB        -7.1980   19.9820  -31.1090 C.3    39  SER39       0.2089
      6  OG        -6.2590   20.8380  -30.4840 O.3    39  SER39      -0.2183
      7  N         -3.4560   23.3970  -33.7530 N.3    41  CYS41      -0.1235
      8  CA        -2.3720   23.9490  -32.9510 C.3    41  CYS41       0.1677
      9  C         -1.2350   24.4180  -33.8490 C.2    41  CYS41       0.2270
     10  O         -0.9440   23.7880  -34.8640 O.2    41  CYS41      -0.2867
     11  CB        -1.8680   22.9030  -31.9580 C.3    41  CYS41       0.0956
     12  SG        -0.7600   23.5500  -30.6960 S.3    41  CYS41      -0.0801
     13  N         -3.5250   27.6890  -30.0860 N.3    55  PHE55      -0.1241
     14  CA        -4.4010   26.6350  -30.5850 C.3    55  PHE55       0.1605
     15  C         -5.8680   27.0380  -30.4970 C.2    55  PHE55       0.2264
     16  O         -6.2270   28.0020  -29.8230 O.2    55  PHE55      -0.2867
     17  CB        -4.1830   25.3190  -29.8270 C.3    55  PHE55       0.0534
     18  CG        -4.5070   25.3880  -28.3590 C.ar   55  PHE55      -0.0203
     19  CD1       -5.8230   25.3470  -27.9220 C.ar   55  PHE55      -0.0042
     20  CD2       -3.4970   25.4630  -27.4160 C.ar   55  PHE55      -0.0042
     21  CE1       -6.1250   25.4020  -26.5730 C.ar   55  PHE55      -0.0003
     22  CE2       -3.7940   25.5170  -26.0640 C.ar   55  PHE55      -0.0003
     23  CZ        -5.1100   25.4840  -25.6440 C.ar   55  PHE55      -0.0000
     24  N         -9.7330   24.8130  -30.4270 N.3    57  THR57      -0.1218
     25  CA       -10.3350   23.4850  -30.3850 C.3    57  THR57       0.1862
     26  C        -11.7600   23.5040  -29.8500 C.2    57  THR57       0.2287
     27  O        -12.1490   24.4210  -29.1290 O.2    57  THR57      -0.2866
     28  CB        -9.5040   22.5350  -29.5020 C.3    57  THR57       0.1770
     29  OG1      -10.0990   21.2330  -29.5010 O.3    57  THR57      -0.2211
     30  CG2       -9.4280   23.0580  -28.0710 C.3    57  THR57       0.0375
     31  N        -12.6540   20.9480  -28.0050 N.3    59  TYR59      -0.1241
     32  CA       -12.5280   20.0880  -26.8360 C.3    59  TYR59       0.1605
     33  C        -13.3970   20.6050  -25.6890 C.2    59  TYR59       0.2264
     34  O        -13.6300   21.8080  -25.5820 O.2    59  TYR59      -0.2867
     35  CB       -11.0700   19.9970  -26.3660 C.3    59  TYR59       0.0534
     36  CG       -10.1860   19.0090  -27.1090 C.ar   59  TYR59      -0.0201
     37  CD1      -10.7080   17.8550  -27.6790 C.ar   59  TYR59      -0.0009
     38  CD2       -8.8180   19.2260  -27.2150 C.ar   59  TYR59      -0.0009
     39  CE1       -9.8970   16.9560  -28.3470 C.ar   59  TYR59       0.0417
     40  CE2       -8.0000   18.3320  -27.8800 C.ar   59  TYR59       0.0417
     41  CZ        -8.5440   17.2000  -28.4440 C.ar   59  TYR59       0.1957
     42  OH        -7.7290   16.3110  -29.1070 O.3    59  TYR59      -0.2866
     43  N        -11.4340   19.5890  -20.0640 N.3    63  TRP63      -0.1227
     44  CA       -10.1850   18.9700  -20.4980 C.3    63  TRP63       0.1737
     45  C         -9.1360   19.9940  -20.9150 C.2    63  TRP63       0.2595
     46  O         -7.9660   19.8700  -20.5610 O.2    63  TRP63      -0.2718
     47  CB       -10.4540   18.0020  -21.6550 C.3    63  TRP63       0.0564
     48  CG        -9.2070   17.5100  -22.3390 C.ar   63  TRP63       0.0003
     49  CD1       -8.9170   17.6020  -23.6690 C.ar   63  TRP63       0.0946
     50  CD2       -8.0830   16.8610  -21.7290 C.ar   63  TRP63       0.0152
     51  NE1       -7.6870   17.0490  -23.9270 N.ar   63  TRP63      -0.2442
     52  CE2       -7.1530   16.5870  -22.7530 C.ar   63  TRP63       0.0810
     53  CE3       -7.7720   16.4840  -20.4190 C.ar   63  TRP63       0.0012
     54  CZ2       -5.9370   15.9550  -22.5090 C.ar   63  TRP63       0.0191
     55  CZ3       -6.5610   15.8550  -20.1780 C.ar   63  TRP63       0.0001
     56  CH2       -5.6590   15.5980  -21.2190 C.ar   63  TRP63       0.0015
     57  N         -9.5600   21.0030  -21.6680 N.am   64  VAL64      -0.1980
     58  CA        -8.6630   22.0670  -22.0990 C.3    64  VAL64       0.1595
     59  C         -8.0200   22.7480  -20.8870 C.2    64  VAL64       0.2287
     60  O         -6.8120   22.9780  -20.8640 O.2    64  VAL64      -0.2864
     61  CB        -9.4020   23.1160  -22.9610 C.3    64  VAL64       0.0276
     62  CG1       -8.4580   24.2450  -23.3660 C.3    64  VAL64       0.0022
     63  CG2       -9.9880   22.4640  -24.2040 C.3    64  VAL64       0.0022
     64  N         -5.5080   20.3920  -19.2710 N.3    67  TYR67      -0.1241
     65  CA        -4.3540   20.2750  -20.1550 C.3    67  TYR67       0.1605
     66  C         -3.3840   21.4400  -19.9810 C.2    67  TYR67       0.2264
     67  O         -2.1750   21.2430  -19.8610 O.2    67  TYR67      -0.2867
     68  CB        -4.8250   20.2060  -21.6080 C.3    67  TYR67       0.0534
     69  CG        -3.7260   19.9710  -22.6170 C.ar   67  TYR67      -0.0201
     70  CD1       -2.9930   21.0320  -23.1300 C.ar   67  TYR67      -0.0009
     71  CD2       -3.4400   18.6930  -23.0820 C.ar   67  TYR67      -0.0009
     72  CE1       -1.9940   20.8290  -24.0580 C.ar   67  TYR67       0.0417
     73  CE2       -2.4420   18.4790  -24.0150 C.ar   67  TYR67       0.0417
     74  CZ        -1.7230   19.5520  -24.5000 C.ar   67  TYR67       0.1957
     75  OH        -0.7280   19.3520  -25.4280 O.3    67  TYR67      -0.2866
     76  N          1.4800   20.9990  -23.0960 N.3    73  LEU73      -0.1245
     77  CA         2.0600   21.3910  -24.3840 C.3    73  LEU73       0.1561
     78  C          3.5420   21.0510  -24.4430 C.2    73  LEU73       0.2260
     79  O          4.0680   20.6800  -25.4920 O.2    73  LEU73      -0.2867
     80  CB         1.8830   22.8860  -24.6660 C.3    73  LEU73       0.0270
     81  CG         0.5380   23.3720  -25.2040 C.3    73  LEU73       0.0019
     82  CD1        0.4870   24.8890  -25.1790 C.3    73  LEU73       0.0001
     83  CD2        0.3030   22.8430  -26.6120 C.3    73  LEU73       0.0001
     84  N          3.7480   17.0710  -25.1380 N.3    76  ASP76      -0.1239
     85  CA         2.7870   16.3640  -25.9800 C.3    76  ASP76       0.1674
     86  C          3.4810   15.7420  -27.1970 C.2    76  ASP76       0.2266
     87  O          4.0490   16.4600  -28.0220 O.2    76  ASP76      -0.2867
     88  CB         1.6710   17.3110  -26.4330 C.3    76  ASP76       0.1410
     89  CG         0.4370   16.5710  -26.9320 C.2    76  ASP76       0.3668
     90  OD1        0.5560   15.3850  -27.3020 O.co2  76  ASP76      -0.2456
     91  OD2       -0.6560   17.1760  -26.9550 O.co2  76  ASP76      -0.2456
     92  N          2.0820   14.3290  -29.6860 N.3    78  VAL78      -0.1231
     93  CA         1.2910   14.6520  -30.8670 C.3    78  VAL78       0.1692
     94  C          1.8000   15.9320  -31.5440 C.2    78  VAL78       0.2591
     95  O          1.5280   16.1760  -32.7230 O.2    78  VAL78      -0.2718
     96  CB        -0.2040   14.7880  -30.4930 C.3    78  VAL78       0.0266
     97  CG1       -1.0000   15.4400  -31.6090 C.3    78  VAL78       0.0020
     98  CG2       -0.7830   13.4260  -30.1520 C.3    78  VAL78       0.0020
     99  N          2.5720   16.7210  -30.8010 N.am   79  LEU79      -0.1980
    100  CA         3.1300   17.9700  -31.3110 C.3    79  LEU79       0.1596
    101  C          4.6330   17.8620  -31.5920 C.2    79  LEU79       0.2287
    102  O          5.3090   18.8760  -31.7670 O.2    79  LEU79      -0.2864
    103  CB         2.8670   19.1030  -30.3140 C.3    79  LEU79       0.0297
    104  CG         1.4150   19.2940  -29.8660 C.3    79  LEU79       0.0022
    105  CD1        1.3300   20.3560  -28.7840 C.3    79  LEU79       0.0001
    106  CD2        0.5260   19.6750  -31.0420 C.3    79  LEU79       0.0001
    107  N         -2.7380    7.8120  -33.1130 N.3    91  TRP91      -0.1241
    108  CA        -2.4480    7.7520  -31.6870 C.3    91  TRP91       0.1605
    109  C         -2.4820    6.3060  -31.2130 C.2    91  TRP91       0.2264
    110  O         -3.3850    5.5480  -31.5660 O.2    91  TRP91      -0.2867
    111  CB        -3.4420    8.5830  -30.8640 C.3    91  TRP91       0.0550
    112  CG        -3.5720   10.0360  -31.2530 C.ar   91  TRP91       0.0003
    113  CD1       -2.9340   10.6840  -32.2720 C.ar   91  TRP91       0.0946
    114  CD2       -4.3860   11.0200  -30.6010 C.ar   91  TRP91       0.0152
    115  NE1       -3.3110   12.0070  -32.3030 N.ar   91  TRP91      -0.2442
    116  CE2       -4.2000   12.2390  -31.2850 C.ar   91  TRP91       0.0810
    117  CE3       -5.2570   10.9890  -29.5070 C.ar   91  TRP91       0.0012
    118  CZ2       -4.8540   13.4130  -30.9130 C.ar   91  TRP91       0.0191
    119  CZ3       -5.9070   12.1550  -29.1400 C.ar   91  TRP91       0.0001
    120  CH2       -5.7020   13.3500  -29.8400 C.ar   91  TRP91       0.0015
    121  N          2.7300    7.5100  -25.9570 N.3    96  PHE96      -0.1241
    122  CA         2.7320    8.2590  -24.7030 C.3    96  PHE96       0.1605
    123  C          3.5210    7.5380  -23.6130 C.2    96  PHE96       0.2264
    124  O          3.2510    7.7180  -22.4250 O.2    96  PHE96      -0.2867
    125  CB         1.2970    8.4860  -24.2260 C.3    96  PHE96       0.0534
    126  CG         0.4410    9.2280  -25.2110 C.ar   96  PHE96      -0.0203
    127  CD1        0.3540   10.6080  -25.1770 C.ar   96  PHE96      -0.0042
    128  CD2       -0.2780    8.5390  -26.1730 C.ar   96  PHE96      -0.0042
    129  CE1       -0.4340   11.2870  -26.0860 C.ar   96  PHE96      -0.0003
    130  CE2       -1.0670    9.2120  -27.0830 C.ar   96  PHE96      -0.0003
    131  CZ        -1.1450   10.5870  -27.0400 C.ar   96  PHE96      -0.0000
    132  N         -0.1680   12.4360  -19.3450 N.3   102  LEU102     -0.1231
    133  CA        -1.0540   13.0710  -20.3150 C.3   102  LEU102      0.1693
    134  C         -2.1010   12.0790  -20.8060 C.2   102  LEU102      0.2592
    135  O         -3.2930   12.3830  -20.8450 O.2   102  LEU102     -0.2718
    136  CB        -0.2570   13.6180  -21.5050 C.3   102  LEU102      0.0284
    137  CG        -1.0790   13.9860  -22.7470 C.3   102  LEU102      0.0019
    138  CD1       -2.0730   15.0880  -22.4310 C.3   102  LEU102      0.0001
    139  CD2       -0.1760   14.3950  -23.8950 C.3   102  LEU102      0.0001
    140  N         -1.6390   10.8910  -21.1790 N.am  103  TRP103     -0.1976
    141  CA        -2.5010    9.8600  -21.7440 C.3   103  TRP103      0.1640
    142  C         -3.5760    9.4510  -20.7410 C.2   103  TRP103      0.2290
    143  O         -4.7380    9.2680  -21.1020 O.2   103  TRP103     -0.2864
    144  CB        -1.6670    8.6510  -22.1760 C.3   103  TRP103      0.0576
    145  CG        -2.4560    7.5680  -22.8540 C.ar  103  TRP103      0.0006
    146  CD1       -2.5580    6.2620  -22.4690 C.ar  103  TRP103      0.0946
    147  CD2       -3.2590    7.7020  -24.0360 C.ar  103  TRP103      0.0152
    148  NE1       -3.3690    5.5730  -23.3410 N.ar  103  TRP103     -0.2442
    149  CE2       -3.8130    6.4350  -24.3100 C.ar  103  TRP103      0.0810
    150  CE3       -3.5630    8.7690  -24.8880 C.ar  103  TRP103      0.0012
    151  CZ2       -4.6530    6.2060  -25.4010 C.ar  103  TRP103      0.0191
    152  CZ3       -4.3980    8.5400  -25.9700 C.ar  103  TRP103      0.0001
    153  CH2       -4.9320    7.2690  -26.2160 C.ar  103  TRP103      0.0015
    154  N         -6.1030   12.1780  -20.3090 N.3   106  ALA106     -0.1245
    155  CA        -6.8880   12.2640  -21.5350 C.3   106  ALA106      0.1562
    156  C         -7.9830   11.2010  -21.5750 C.2   106  ALA106      0.2260
    157  O         -9.1340   11.5000  -21.8980 O.2   106  ALA106     -0.2867
    158  CB        -5.9780   12.1310  -22.7460 C.3   106  ALA106      0.0290
    159  N        -11.1840   10.8340  -24.0800 N.3   111  LEU111     -0.1245
    160  CA       -10.4890   10.7550  -25.3670 C.3   111  LEU111      0.1561
    161  C         -9.8910    9.3770  -25.6090 C.2   111  LEU111      0.2260
    162  O         -8.8130    9.0530  -25.1080 O.2   111  LEU111     -0.2867
    163  CB        -9.4060   11.8280  -25.4400 C.3   111  LEU111      0.0270
    164  CG        -9.9270   13.2560  -25.2820 C.3   111  LEU111      0.0019
    165  CD1       -8.7840   14.2430  -25.2690 C.3   111  LEU111      0.0001
    166  CD2      -10.8780   13.5830  -26.4280 C.3   111  LEU111      0.0001
    167  N         -5.4710   17.7820  -35.1270 N.3   130  SER130     -0.1217
    168  CA        -5.7980   16.5290  -34.4660 C.3   130  SER130      0.1889
    169  C         -7.2940   16.2830  -34.5330 C.2   130  SER130      0.2288
    170  O         -8.0780   17.2070  -34.3530 O.2   130  SER130     -0.2866
    171  CB        -5.3460   16.5480  -33.0070 C.3   130  SER130      0.2089
    172  OG        -3.9370   16.6260  -32.9050 O.3   130  SER130     -0.2183
@<TRIPOS>BOND
     1   167   168    1
     2    10     9    2
     3   169   168    1
     4   169   170    2
     5   168   171    1
     6     4     3    2
     7     9     8    1
     8     7     8    1
     9     3     2    1
    10   107   108    1
    11     1     2    1
    12   171   172    1
    13     8    11    1
    14    95    94    2
    15     2     5    1
    16   115   113   ar
    17   115   116   ar
    18   113   112   ar
    19    11    12    1
    20   102   101    2
    21   108   109    1
    22   108   111    1
    23    97    96    1
    24   101   100    1
    25   110   109    2
    26    94    93    1
    27    94    99   am
    28   100    99    1
    29   100   103    1
    30   116   118   ar
    31   116   114   ar
    32   112   111    1
    33   112   114   ar
    34     5     6    1
    35   106   104    1
    36   118   120   ar
    37    93    96    1
    38    93    92    1
    39   114   117   ar
    40    14    15    1
    41    14    13    1
    42    14    17    1
    43    15    16    2
    44    96    98    1
    45    24    25    1
    46    25    26    1
    47    25    28    1
    48   103   104    1
    49   104   105    1
    50    26    27    2
    51   120   119   ar
    52    17    18    1
    53   117   119   ar
    54    28    29    1
    55    28    30    1
    56    42    41    1
    57    41    39   ar
    58    41    40   ar
    59    18    19   ar
    60    18    20   ar
    61    39    37   ar
    62    87    86    2
    63    31    32    1
    64    19    21   ar
    65    40    38   ar
    66    37    36   ar
    67    20    22   ar
    68    90    89   ar
    69    38    36   ar
    70    86    85    1
    71    36    35    1
    72   130   131   ar
    73   130   128   ar
    74   131   129   ar
    75    91    89   ar
    76    89    88    1
    77    32    35    1
    78    32    33    1
    79    83    81    1
    80    21    23   ar
    81    88    85    1
    82   166   164    1
    83   153   152   ar
    84   153   151   ar
    85   128   126   ar
    86   129   127   ar
    87    22    23   ar
    88    85    84    1
    89   152   150   ar
    90   121   122    1
    91    33    34    2
    92   161   160    1
    93   161   162    2
    94    79    78    2
    95   163   160    1
    96   163   164    1
    97    75    74    1
    98   151   149   ar
    99   160   159    1
   100   164   165    1
   101   126   127   ar
   102   126   125    1
   103    81    82    1
   104    81    80    1
   105   150   147   ar
   106   122   125    1
   107   122   123    1
   108    80    77    1
   109    74    72   ar
   110    74    73   ar
   111    78    77    1
   112    77    76    1
   113   149   147   ar
   114   149   148   ar
   115    63    61    1
   116    72    70   ar
   117   147   145   ar
   118    73    71   ar
   119    51    49   ar
   120    51    52   ar
   121   139   137    1
   122    49    48   ar
   123   123   124    2
   124    62    61    1
   125   148   146   ar
   126    70    69   ar
   127    71    69   ar
   128    61    58    1
   129   145   146   ar
   130   145   144    1
   131    52    54   ar
   132    52    50   ar
   133   137   138    1
   134   137   136    1
   135   158   155    1
   136    69    68    1
   137    54    56   ar
   138    48    50   ar
   139    48    47    1
   140   144   141    1
   141    58    57    1
   142    58    59    1
   143   157   156    2
   144   141   140    1
   145   141   142    1
   146    50    53   ar
   147    57    45   am
   148    47    44    1
   149    68    65    1
   150   156   155    1
   151   155   154    1
   152   136   133    1
   153    56    55   ar
   154   140   134   am
   155   143   142    2
   156    45    46    2
   157    45    44    1
   158    59    60    2
   159   135   134    2
   160   134   133    1
   161    44    43    1
   162    53    55   ar
   163   133   132    1
   164    65    66    1
   165    65    64    1
   166    66    67    2
