@<TRIPOS>MOLECULE
tmp/4y17C00.pdb
 192 186 0 0 0
SMALL
GASTEIGER

@<TRIPOS>ATOM
      1  N         11.8980   26.9400    5.9890 N.3    42  SER42      -0.1217
      2  CA        12.9070   26.0840    5.3780 C.3    42  SER42       0.1889
      3  C         12.6640   25.9240    3.8830 C.2    42  SER42       0.2288
      4  O         11.5940   25.4860    3.4600 O.2    42  SER42      -0.2866
      5  CB        12.9250   24.7110    6.0540 C.3    42  SER42       0.2089
      6  OG        13.8810   23.8600    5.4450 O.3    42  SER42      -0.2183
      7  N         13.9610   24.0370    0.5970 N.3    44  CYS44      -0.1235
      8  CA        14.7160   22.8600    0.1820 C.3    44  CYS44       0.1677
      9  C         14.5570   22.6190   -1.3180 C.2    44  CYS44       0.2270
     10  O         13.4860   22.8480   -1.8760 O.2    44  CYS44      -0.2867
     11  CB        14.2540   21.6330    0.9690 C.3    44  CYS44       0.0956
     12  SG        15.1900   20.1380    0.6150 S.3    44  CYS44      -0.0801
     13  N         19.7620   23.1070    0.6660 N.3    58  PHE58      -0.1241
     14  CA        18.7430   23.7260    1.5020 C.3    58  PHE58       0.1605
     15  C         19.2300   24.9810    2.2160 C.2    58  PHE58       0.2264
     16  O         20.4300   25.2320    2.3200 O.2    58  PHE58      -0.2867
     17  CB        18.2560   22.7180    2.5440 C.3    58  PHE58       0.0534
     18  CG        19.3210   22.2980    3.5170 C.ar   58  PHE58      -0.0203
     19  CD1       20.3910   21.5200    3.1040 C.ar   58  PHE58      -0.0042
     20  CD2       19.2560   22.6880    4.8430 C.ar   58  PHE58      -0.0042
     21  CE1       21.3740   21.1390    3.9950 C.ar   58  PHE58      -0.0003
     22  CE2       20.2360   22.3080    5.7400 C.ar   58  PHE58      -0.0003
     23  CZ        21.2960   21.5310    5.3140 C.ar   58  PHE58      -0.0000
     24  N         17.7060   27.2660    5.7830 N.3    60  THR60      -0.1218
     25  CA        16.6750   27.3720    6.8100 C.3    60  THR60       0.1862
     26  C         17.1570   28.1270    8.0430 C.2    60  THR60       0.2287
     27  O         18.3600   28.2580    8.2720 O.2    60  THR60      -0.2866
     28  CB        16.1830   25.9810    7.2480 C.3    60  THR60       0.1770
     29  OG1       15.1380   26.1270    8.2160 O.3    60  THR60      -0.2211
     30  CG2       17.3240   25.1680    7.8510 C.3    60  THR60       0.0375
     31  N         15.8740   27.0360   10.9890 N.3    62  TYR62      -0.1241
     32  CA        15.5460   26.0570   12.0230 C.3    62  TYR62       0.1605
     33  C         16.5490   26.1080   13.1660 C.2    62  TYR62       0.2264
     34  O         17.6830   26.5500   12.9730 O.2    62  TYR62      -0.2867
     35  CB        15.5240   24.6360   11.4410 C.3    62  TYR62       0.0534
     36  CG        14.2050   24.1690   10.8570 C.ar   62  TYR62      -0.0201
     37  CD1       12.9930   24.5720   11.4020 C.ar   62  TYR62      -0.0009
     38  CD2       14.1760   23.3090    9.7660 C.ar   62  TYR62      -0.0009
     39  CE1       11.7940   24.1390   10.8740 C.ar   62  TYR62       0.0417
     40  CE2       12.9800   22.8720    9.2310 C.ar   62  TYR62       0.0417
     41  CZ        11.7930   23.2910    9.7900 C.ar   62  TYR62       0.1957
     42  OH        10.5970   22.8640    9.2660 O.3    62  TYR62      -0.2866
     43  N         18.2160   20.9130   15.7750 N.3    66  TRP66      -0.1227
     44  CA        17.3450   20.0390   14.9990 C.3    66  TRP66       0.1737
     45  C         17.9880   19.7170   13.6510 C.2    66  TRP66       0.2595
     46  O         17.8750   18.5980   13.1580 O.2    66  TRP66      -0.2718
     47  CB        15.9710   20.6820   14.7970 C.3    66  TRP66       0.0564
     48  CG        15.0860   19.9250   13.8520 C.ar   66  TRP66       0.0003
     49  CD1       14.4990   20.4030   12.7170 C.ar   66  TRP66       0.0946
     50  CD2       14.6910   18.5510   13.9600 C.ar   66  TRP66       0.0152
     51  NE1       13.7600   19.4140   12.1140 N.ar   66  TRP66      -0.2442
     52  CE2       13.8630   18.2680   12.8560 C.ar   66  TRP66       0.0810
     53  CE3       14.9570   17.5350   14.8820 C.ar   66  TRP66       0.0012
     54  CZ2       13.2970   17.0100   12.6510 C.ar   66  TRP66       0.0191
     55  CZ3       14.3950   16.2870   14.6750 C.ar   66  TRP66       0.0001
     56  CH2       13.5750   16.0360   13.5680 C.ar   66  TRP66       0.0015
     57  N         18.6660   20.7000   13.0640 N.am   67  VAL67      -0.1980
     58  CA        19.3610   20.5040   11.7920 C.3    67  VAL67       0.1595
     59  C         20.4310   19.4320   11.9250 C.2    67  VAL67       0.2287
     60  O         20.4770   18.4850   11.1380 O.2    67  VAL67      -0.2864
     61  CB        20.0230   21.8110   11.2970 C.3    67  VAL67       0.0276
     62  CG1       20.8310   21.5670   10.0210 C.3    67  VAL67       0.0022
     63  CG2       18.9790   22.8900   11.0690 C.3    67  VAL67       0.0022
     64  N         18.6280   16.2980   12.4470 N.3    70  TYR70      -0.1227
     65  CA        17.8890   15.8760   11.2620 C.3    70  TYR70       0.1736
     66  C         18.7810   15.1320   10.2690 C.2    70  TYR70       0.2595
     67  O         18.4160   14.0650    9.7760 O.2    70  TYR70      -0.2718
     68  CB        17.2460   17.0990   10.6000 C.3    70  TYR70       0.0548
     69  CG        16.3290   16.7960    9.4390 C.ar   70  TYR70      -0.0200
     70  CD1       16.8230   16.6650    8.1500 C.ar   70  TYR70      -0.0009
     71  CD2       14.9630   16.6490    9.6340 C.ar   70  TYR70      -0.0009
     72  CE1       15.9810   16.3950    7.0910 C.ar   70  TYR70       0.0417
     73  CE2       14.1170   16.3790    8.5820 C.ar   70  TYR70       0.0417
     74  CZ        14.6310   16.2530    7.3130 C.ar   70  TYR70       0.1957
     75  OH        13.7810   15.9830    6.2680 O.3    70  TYR70      -0.2866
     76  N         19.9480   15.6970    9.9760 N.am   71  GLN71      -0.1979
     77  CA        20.8900   15.0670    9.0570 C.3    71  GLN71       0.1601
     78  C         21.5120   13.8250    9.6900 C.2    71  GLN71       0.2287
     79  O         21.6780   12.7980    9.0290 O.2    71  GLN71      -0.2864
     80  CB        21.9810   16.0540    8.6350 C.3    71  GLN71       0.0394
     81  CG        21.4600   17.2040    7.7820 C.3    71  GLN71       0.0908
     82  CD        22.5360   18.2060    7.4140 C.2    71  GLN71       0.2608
     83  OE1       23.4370   18.4880    8.2040 O.2    71  GLN71      -0.2717
     84  NE2       22.4160   18.7870    6.2250 N.am   71  GLN71      -0.0878
     85  N         15.9240   12.9490    5.7030 N.3    76  LEU76      -0.1245
     86  CA        15.5430   13.2950    4.3320 C.3    76  LEU76       0.1561
     87  C         15.0250   12.0910    3.5490 C.2    76  LEU76       0.2260
     88  O         14.1330   12.2230    2.7110 O.2    76  LEU76      -0.2867
     89  CB        16.7150   13.9170    3.5680 C.3    76  LEU76       0.0270
     90  CG        17.0870   15.3640    3.9100 C.3    76  LEU76       0.0019
     91  CD1       18.3110   15.8000    3.1230 C.3    76  LEU76       0.0001
     92  CD2       15.9340   16.3280    3.6730 C.3    76  LEU76       0.0001
     93  N         11.3790   11.6840    4.7380 N.3    79  ASP79      -0.1239
     94  CA        10.5530   12.8650    4.9790 C.3    79  ASP79       0.1674
     95  C          9.3860   12.9210    3.9890 C.2    79  ASP79       0.2266
     96  O          9.6060   13.0380    2.7830 O.2    79  ASP79      -0.2867
     97  CB        11.3870   14.1430    4.8610 C.3    79  ASP79       0.1410
     98  CG        10.7440   15.3260    5.5640 C.2    79  ASP79       0.3668
     99  OD1        9.5010   15.3480    5.6800 O.co2  79  ASP79      -0.2456
    100  OD2       11.4780   16.2430    5.9880 O.co2  79  ASP79      -0.2456
    101  N          7.3060   15.3010    3.6700 N.3    81  VAL81      -0.1231
    102  CA         7.1750   16.6870    3.2390 C.3    81  VAL81       0.1692
    103  C          7.9140   16.9400    1.9250 C.2    81  VAL81       0.2591
    104  O          7.5670   17.8560    1.1780 O.2    81  VAL81      -0.2718
    105  CB         7.6960   17.6430    4.3400 C.3    81  VAL81       0.0266
    106  CG1        7.9130   19.0470    3.8060 C.3    81  VAL81       0.0020
    107  CG2        6.7330   17.6620    5.5160 C.3    81  VAL81       0.0020
    108  N          8.9160   16.1140    1.6380 N.am   82  LEU82      -0.1980
    109  CA         9.7090   16.2600    0.4210 C.3    82  LEU82       0.1596
    110  C          9.2880   15.2570   -0.6510 C.2    82  LEU82       0.2287
    111  O          9.9930   15.0710   -1.6450 O.2    82  LEU82      -0.2864
    112  CB        11.1960   16.0990    0.7300 C.3    82  LEU82       0.0297
    113  CG        11.7840   17.0970    1.7270 C.3    82  LEU82       0.0022
    114  CD1       13.2210   16.7300    2.0170 C.3    82  LEU82       0.0001
    115  CD2       11.6900   18.5270    1.2070 C.3    82  LEU82       0.0001
    116  N          0.8240   19.8200    7.4590 N.3    94  TRP94      -0.1241
    117  CA         1.3220   18.7880    8.3670 C.3    94  TRP94       0.1605
    118  C          0.2590   18.3370    9.3560 C.2    94  TRP94       0.2264
    119  O         -0.4450   19.1540    9.9490 O.2    94  TRP94      -0.2867
    120  CB         2.5430   19.2900    9.1370 C.3    94  TRP94       0.0550
    121  CG         3.6880   19.6830    8.2670 C.ar   94  TRP94       0.0003
    122  CD1        3.7550   19.5850    6.9090 C.ar   94  TRP94       0.0946
    123  CD2        4.9330   20.2470    8.6910 C.ar   94  TRP94       0.0152
    124  NE1        4.9660   20.0510    6.4610 N.ar   94  TRP94      -0.2442
    125  CE2        5.7080   20.4650    7.5360 C.ar   94  TRP94       0.0810
    126  CE3        5.4690   20.5900    9.9370 C.ar   94  TRP94       0.0012
    127  CZ2        6.9880   21.0090    7.5870 C.ar   94  TRP94       0.0191
    128  CZ3        6.7400   21.1320    9.9860 C.ar   94  TRP94       0.0001
    129  CH2        7.4860   21.3350    8.8190 C.ar   94  TRP94       0.0015
    130  N          2.6330   11.2830    8.8360 N.3    99  PHE99      -0.1241
    131  CA         3.9050   10.7740    9.3410 C.3    99  PHE99       0.1605
    132  C          3.7420    9.3480    9.8640 C.2    99  PHE99       0.2264
    133  O          4.4750    8.9030   10.7470 O.2    99  PHE99      -0.2867
    134  CB         4.4510   11.6860   10.4440 C.3    99  PHE99       0.0534
    135  CG         4.7680   13.0810    9.9800 C.ar   99  PHE99      -0.0203
    136  CD1        5.9870   13.3660    9.3880 C.ar   99  PHE99      -0.0042
    137  CD2        3.8520   14.1080   10.1380 C.ar   99  PHE99      -0.0042
    138  CE1        6.2870   14.6450    8.9600 C.ar   99  PHE99      -0.0003
    139  CE2        4.1470   15.3910    9.7110 C.ar   99  PHE99      -0.0003
    140  CZ         5.3660   15.6590    9.1230 C.ar   99  PHE99      -0.0000
    141  N         10.6440   10.7260   12.9570 N.3   105  LEU105     -0.1231
    142  CA        10.7210   12.1220   12.5340 C.3   105  LEU105      0.1693
    143  C          9.7260   13.0560   13.2310 C.2   105  LEU105      0.2592
    144  O         10.1210   14.0990   13.7520 O.2   105  LEU105     -0.2718
    145  CB        10.5330   12.1940   11.0150 C.3   105  LEU105      0.0284
    146  CG        10.3680   13.5660   10.3610 C.3   105  LEU105      0.0019
    147  CD1       11.5710   14.4510   10.6430 C.3   105  LEU105      0.0001
    148  CD2       10.1840   13.3900    8.8640 C.3   105  LEU105      0.0001
    149  N          8.4460   12.6910   13.2380 N.am  106  TRP106     -0.1976
    150  CA         7.4080   13.5740   13.7770 C.3   106  TRP106      0.1640
    151  C          7.5700   13.9230   15.2600 C.2   106  TRP106      0.2290
    152  O          7.5920   15.1000   15.6180 O.2   106  TRP106     -0.2864
    153  CB         6.0300   12.9470   13.5610 C.3   106  TRP106      0.0576
    154  CG         4.9040   13.8400   13.9930 C.ar  106  TRP106      0.0006
    155  CD1        3.9070   13.5290   14.8700 C.ar  106  TRP106      0.0946
    156  CD2        4.6670   15.1930   13.5790 C.ar  106  TRP106      0.0152
    157  NE1        3.0610   14.5990   15.0240 N.ar  106  TRP106     -0.2442
    158  CE2        3.5050   15.6340   14.2440 C.ar  106  TRP106      0.0810
    159  CE3        5.3220   16.0730   12.7120 C.ar  106  TRP106      0.0012
    160  CZ2        2.9840   16.9140   14.0670 C.ar  106  TRP106      0.0191
    161  CZ3        4.8010   17.3440   12.5370 C.ar  106  TRP106      0.0001
    162  CH2        3.6450   17.7520   13.2120 C.ar  106  TRP106      0.0015
    163  N         10.5160   15.9640   15.9020 N.3   109  ALA109     -0.1245
    164  CA        10.2540   17.3400   15.5040 C.3   109  ALA109      0.1562
    165  C          9.4440   18.0040   16.6080 C.2   109  ALA109      0.2260
    166  O          9.7040   19.1490   16.9750 O.2   109  ALA109     -0.2867
    167  CB         9.5200   17.4010   14.1800 C.3   109  ALA109      0.0290
    168  N          8.7590   21.7690   17.0640 N.3   114  LEU114     -0.1245
    169  CA         8.0220   21.9680   15.8230 C.3   114  LEU114      0.1561
    170  C          6.6830   21.2590   15.9490 C.2   114  LEU114      0.2260
    171  O          6.5590   20.0720   15.6430 O.2   114  LEU114     -0.2867
    172  CB         8.8210   21.4560   14.6240 C.3   114  LEU114      0.0270
    173  CG        10.2060   22.0940   14.4720 C.3   114  LEU114      0.0019
    174  CD1       10.9320   21.5380   13.2600 C.3   114  LEU114      0.0001
    175  CD2       10.1000   23.6160   14.3820 C.3   114  LEU114      0.0001
    176  N         11.0310   23.0240   -2.4450 N.3   131  PHE131     -0.1241
    177  CA        10.1100   22.8690   -1.3220 C.3   131  PHE131      0.1605
    178  C         10.2970   23.9920   -0.3060 C.2   131  PHE131      0.2264
    179  O         11.4010   24.1990    0.1900 O.2   131  PHE131     -0.2867
    180  CB        10.3280   21.5190   -0.6380 C.3   131  PHE131      0.0534
    181  CG        10.1130   20.3370   -1.5380 C.ar  131  PHE131     -0.0203
    182  CD1       11.1030   19.9250   -2.4140 C.ar  131  PHE131     -0.0042
    183  CD2        8.9260   19.6260   -1.4940 C.ar  131  PHE131     -0.0042
    184  CE1       10.9070   18.8340   -3.2410 C.ar  131  PHE131     -0.0003
    185  CE2        8.7250   18.5340   -2.3160 C.ar  131  PHE131     -0.0003
    186  CZ         9.7160   18.1380   -3.1910 C.ar  131  PHE131     -0.0000
    187  N          8.9630   25.1490    3.4220 N.3   133  SER133     -0.1217
    188  CA         8.2510   24.7190    4.6220 C.3   133  SER133      0.1889
    189  C          8.2480   25.8120    5.6910 C.2   133  SER133      0.2288
    190  O          9.2750   26.4330    5.9570 O.2   133  SER133     -0.2866
    191  CB         8.8820   23.4420    5.1810 C.3   133  SER133      0.2089
    192  OG         8.9020   22.4150    4.2040 O.3   133  SER133     -0.2183
@<TRIPOS>BOND
     1   184   186   ar
     2   184   182   ar
     3   186   185   ar
     4   176   177    1
     5   182   181   ar
     6   185   183   ar
     7    10     9    2
     8   111   110    2
     9   181   183   ar
    10   181   180    1
    11   177   180    1
    12   177   178    1
    13     9     8    1
    14   110   109    1
    15   178   179    2
    16     8     7    1
    17     8    11    1
    18   109   112    1
    19   109   108    1
    20    12    11    1
    21    13    14    1
    22   112   113    1
    23   104   103    2
    24   115   113    1
    25    14    15    1
    26    14    17    1
    27   108   103   am
    28   113   114    1
    29   103   102    1
    30    15    16    2
    31    17    18    1
    32    88    87    2
    33    96    95    2
    34    19    18   ar
    35    19    21   ar
    36    91    90    1
    37   102   101    1
    38   102   105    1
    39   187   188    1
    40     4     3    2
    41    18    20   ar
    42    87    86    1
    43    89    90    1
    44    89    86    1
    45    92    90    1
    46   106   105    1
    47     3     2    1
    48    95    94    1
    49    21    23   ar
    50   192   191    1
    51    86    85    1
    52   105   107    1
    53   188   191    1
    54   188   189    1
    55    93    94    1
    56    20    22   ar
    57    97    94    1
    58    97    98    1
    59    23    22   ar
    60     2     1    1
    61     2     5    1
    62     6     5    1
    63    98    99   ar
    64    98   100   ar
    65   189   190    2
    66    24    25    1
    67    84    82   am
    68    75    74    1
    69   124   122   ar
    70   124   125   ar
    71    25    28    1
    72    25    26    1
    73   122   121   ar
    74    72    74   ar
    75    72    70   ar
    76    28    30    1
    77    28    29    1
    78    74    73   ar
    79    82    81    1
    80    82    83    2
    81   116   117    1
    82   125   127   ar
    83   125   123   ar
    84   127   129   ar
    85    81    80    1
    86    26    27    2
    87    70    69   ar
    88   121   123   ar
    89   121   120    1
    90   117   120    1
    91   117   118    1
    92    73    71   ar
    93    80    77    1
    94   123   126   ar
    95   129   128   ar
    96   130   131    1
    97   148   146    1
    98   138   140   ar
    99   138   136   ar
   100    79    78    2
   101    77    78    1
   102    77    76    1
   103   140   139   ar
   104    40    38   ar
   105    40    41   ar
   106    42    41    1
   107   131   132    1
   108   131   134    1
   109   118   119    2
   110   136   135   ar
   111    69    71   ar
   112    69    68    1
   113   139   137   ar
   114    38    36   ar
   115    67    66    2
   116    41    39   ar
   117   132   133    2
   118   126   128   ar
   119    76    66   am
   120   135   137   ar
   121   135   134    1
   122    62    61    1
   123    66    65    1
   124   146   147    1
   125   146   145    1
   126    68    65    1
   127    36    37   ar
   128    36    35    1
   129    39    37   ar
   130    31    32    1
   131   145   142    1
   132    63    61    1
   133    60    59    2
   134    65    64    1
   135    61    58    1
   136    35    32    1
   137    58    59    1
   138    58    57    1
   139    32    33    1
   140    51    49   ar
   141    51    52   ar
   142   142   141    1
   143   142   143    1
   144   161   159   ar
   145   161   162   ar
   146    54    52   ar
   147    54    56   ar
   148   159   156   ar
   149    49    48   ar
   150    52    50   ar
   151    34    33    2
   152    57    45   am
   153    46    45    2
   154   162   160   ar
   155   143   149   am
   156   143   144    2
   157   149   150    1
   158   174   173    1
   159   153   150    1
   160   153   154    1
   161    56    55   ar
   162   156   154   ar
   163   156   158   ar
   164    45    44    1
   165   150   151    1
   166    48    50   ar
   167    48    47    1
   168    50    53   ar
   169   154   155   ar
   170   160   158   ar
   171   167   164    1
   172   158   157   ar
   173   175   173    1
   174   173   172    1
   175   172   169    1
   176    55    53   ar
   177    47    44    1
   178   155   157   ar
   179    44    43    1
   180   151   152    2
   181   164   163    1
   182   164   165    1
   183   171   170    2
   184   169   170    1
   185   169   168    1
   186   165   166    2
