@<TRIPOS>MOLECULE
tmp/4y18H00.pdb
 159 154 0 0 0
SMALL
GASTEIGER

@<TRIPOS>ATOM
      1  N         34.1200  -79.5310  -49.1750 N.3     6  VAL6       -0.1231
      2  CA        34.2970  -79.9590  -47.7870 C.3     6  VAL6        0.1692
      3  C         35.7520  -80.2900  -47.4520 C.2     6  VAL6        0.2593
      4  O         36.5610  -80.5380  -48.3470 O.2     6  VAL6       -0.2718
      5  CB        33.4240  -81.1880  -47.4660 C.3     6  VAL6        0.0266
      6  CG1       31.9640  -80.9070  -47.7980 C.3     6  VAL6        0.0020
      7  CG2       33.9260  -82.4090  -48.2220 C.3     6  VAL6        0.0020
      8  N         36.0810  -80.2800  -46.1610 N.am    7  SER7       -0.1938
      9  CA        37.4450  -80.5620  -45.7110 C.3     7  SER7        0.2055
     10  C         37.5040  -81.1060  -44.2790 C.2     7  SER7        0.2644
     11  O         36.8320  -80.5900  -43.3870 O.2     7  SER7       -0.2714
     12  CB        38.3010  -79.2970  -45.8160 C.3     7  SER7        0.2130
     13  OG        39.6440  -79.5510  -45.4490 O.3     7  SER7       -0.2179
     14  N         38.3040  -82.1500  -44.0650 N.am    8  GLY8       -0.1939
     15  CA        38.5200  -82.6760  -42.7260 C.3     8  GLY8        0.2014
     16  C         37.4740  -83.6630  -42.2410 C.2     8  GLY8        0.2639
     17  O         37.4600  -84.0350  -41.0680 O.2     8  GLY8       -0.2714
     18  N         36.6050  -84.1000  -43.1440 N.am    9  LEU9       -0.1963
     19  CA        35.4960  -84.9810  -42.7860 C.3     9  LEU9        0.1728
     20  C         35.7760  -86.4770  -42.8840 C.2     9  LEU9        0.2617
     21  O         36.5210  -86.9340  -43.7500 O.2     9  LEU9       -0.2715
     22  CB        34.2830  -84.6610  -43.6600 C.3     9  LEU9        0.0311
     23  CG        33.6870  -83.2610  -43.5290 C.3     9  LEU9        0.0022
     24  CD1       32.5050  -83.1090  -44.4720 C.3     9  LEU9        0.0001
     25  CD2       33.2770  -82.9830  -42.0920 C.3     9  LEU9        0.0001
     26  N         35.1670  -87.2260  -41.9680 N.am   10  THR10      -0.1937
     27  CA        35.1360  -88.6810  -42.0410 C.3    10  THR10       0.2013
     28  C         34.2730  -89.0740  -43.2440 C.2    10  THR10       0.2484
     29  O         33.4500  -88.2750  -43.6930 O.2    10  THR10      -0.2729
     30  CB        34.5700  -89.3000  -40.7440 C.3    10  THR10       0.1807
     31  OG1       33.1850  -88.9600  -40.6130 O.3    10  THR10      -0.2208
     32  CG2       35.3310  -88.7870  -39.5320 C.3    10  THR10       0.0379
     33  N         34.4540  -90.3000  -43.7690 N.am   11  PRO11      -0.2726
     34  CA        33.6860  -90.7560  -44.9380 C.3    11  PRO11       0.1402
     35  C         32.1660  -90.6020  -44.8150 C.2    11  PRO11       0.2269
     36  O         31.5300  -90.0950  -45.7400 O.2    11  PRO11      -0.2865
     37  CB        34.0610  -92.2350  -45.0320 C.3    11  PRO11       0.0296
     38  CG        35.4390  -92.2950  -44.4880 C.3    11  PRO11       0.0237
     39  CD        35.4840  -91.2810  -43.3780 C.3    11  PRO11       0.0939
     40  N         41.5550  -76.7960  -38.2430 N.3    50  GLU50      -0.1231
     41  CA        42.9410  -76.9940  -38.6400 C.3    50  GLU50       0.1699
     42  C         43.2410  -76.2130  -39.9160 C.2    50  GLU50       0.2592
     43  O         42.3280  -75.8140  -40.6390 O.2    50  GLU50      -0.2718
     44  CB        43.2380  -78.4820  -38.8370 C.3    50  GLU50       0.0402
     45  CG        42.9280  -79.3400  -37.6190 C.3    50  GLU50       0.1161
     46  CD        44.1690  -79.9580  -37.0040 C.2    50  GLU50       0.3649
     47  OE1       44.0270  -80.7420  -36.0410 O.co2  50  GLU50      -0.2457
     48  OE2       45.2840  -79.6640  -37.4840 O.co2  50  GLU50      -0.2457
     49  N         44.5230  -76.0000  -40.1900 N.am   51  ARG51      -0.1966
     50  CA        44.9440  -75.3060  -41.4020 C.3    51  ARG51       0.1729
     51  C         45.2480  -76.2680  -42.5510 C.2    51  ARG51       0.2617
     52  O         46.2480  -76.9860  -42.5270 O.2    51  ARG51      -0.2715
     53  CB        46.1640  -74.4300  -41.1110 C.3    51  ARG51       0.0348
     54  CG        45.9010  -73.3280  -40.0970 C.3    51  ARG51       0.0492
     55  CD        46.9440  -72.2290  -40.1980 C.3    51  ARG51       0.2205
     56  NE        48.2990  -72.7670  -40.1470 N.pl3  51  ARG51      -0.0865
     57  CZ        49.4010  -72.0290  -40.2380 C.cat  51  ARG51       0.5346
     58  NH1       49.3100  -70.7150  -40.3920 N.pl3  51  ARG51       0.1354
     59  NH2       50.5930  -72.6070  -40.1810 N.pl3  51  ARG51       0.1354
     60  N         44.3660  -76.2860  -43.5460 N.am   52  THR52      -0.1937
     61  CA        44.5520  -77.1100  -44.7360 C.3    52  THR52       0.2028
     62  C         44.7640  -76.2190  -45.9520 C.2    52  THR52       0.2642
     63  O         44.5920  -75.0040  -45.8680 O.2    52  THR52      -0.2714
     64  CB        43.3440  -78.0250  -44.9970 C.3    52  THR52       0.1808
     65  OG1       42.2120  -77.2280  -45.3730 O.3    52  THR52      -0.2208
     66  CG2       43.0100  -78.8330  -43.7550 C.3    52  THR52       0.0379
     67  N         45.1400  -76.8200  -47.0770 N.am   53  LEU53      -0.1963
     68  CA        45.3310  -76.0610  -48.3090 C.3    53  LEU53       0.1728
     69  C         44.0190  -75.3930  -48.6980 C.2    53  LEU53       0.2616
     70  O         43.9970  -74.2360  -49.1150 O.2    53  LEU53      -0.2715
     71  CB        45.8320  -76.9580  -49.4430 C.3    53  LEU53       0.0311
     72  CG        45.9610  -76.3090  -50.8260 C.3    53  LEU53       0.0022
     73  CD1       46.8920  -75.1070  -50.7910 C.3    53  LEU53       0.0001
     74  CD2       46.4350  -77.3210  -51.8590 C.3    53  LEU53       0.0001
     75  N         42.9260  -76.1310  -48.5380 N.am   54  LYS54      -0.1977
     76  CA        41.6010  -75.6270  -48.8690 C.3    54  LYS54       0.1596
     77  C         41.1820  -74.5140  -47.9120 C.2    54  LYS54       0.2287
     78  O         40.4160  -73.6230  -48.2790 O.2    54  LYS54      -0.2864
     79  CB        40.5770  -76.7610  -48.8310 C.3    54  LYS54       0.0298
     80  CG        40.7710  -77.8110  -49.9110 C.3    54  LYS54       0.0038
     81  CD        39.7280  -78.9050  -49.7970 C.3    54  LYS54       0.0206
     82  CE        39.9300  -79.9620  -50.8630 C.3    54  LYS54       0.1093
     83  NZ        38.9670  -81.0890  -50.7170 N.3    54  LYS54      -0.1314
     84  N         43.2910  -72.1950  -46.4990 N.3    56  PHE56      -0.1241
     85  CA        43.9500  -70.9830  -46.9650 C.3    56  PHE56       0.1605
     86  C         43.2900  -70.4910  -48.2450 C.2    56  PHE56       0.2264
     87  O         42.9620  -69.3120  -48.3750 O.2    56  PHE56      -0.2867
     88  CB        45.4410  -71.2260  -47.2060 C.3    56  PHE56       0.0534
     89  CG        46.2150  -71.5460  -45.9620 C.ar   56  PHE56      -0.0203
     90  CD1       46.8140  -72.7840  -45.8060 C.ar   56  PHE56      -0.0042
     91  CD2       46.3460  -70.6120  -44.9500 C.ar   56  PHE56      -0.0042
     92  CE1       47.5290  -73.0840  -44.6640 C.ar   56  PHE56      -0.0003
     93  CE2       47.0570  -70.9080  -43.8040 C.ar   56  PHE56      -0.0003
     94  CZ        47.6510  -72.1460  -43.6620 C.ar   56  PHE56      -0.0000
     95  N         43.8690  -73.1880  -35.1830 N.3    92  VAL92      -0.1231
     96  CA        44.7070  -73.6290  -34.0730 C.3    92  VAL92       0.1692
     97  C         46.0920  -72.9770  -34.0440 C.2    92  VAL92       0.2591
     98  O         46.9240  -73.3220  -33.2040 O.2    92  VAL92      -0.2718
     99  CB        44.8920  -75.1590  -34.1030 C.3    92  VAL92       0.0266
    100  CG1       43.5420  -75.8570  -34.0370 C.3    92  VAL92       0.0020
    101  CG2       45.6410  -75.5770  -35.3580 C.3    92  VAL92       0.0020
    102  N         46.3410  -72.0420  -34.9550 N.am   93  VAL93      -0.1980
    103  CA        47.6520  -71.4000  -35.0430 C.3    93  VAL93       0.1595
    104  C         47.6510  -69.9080  -34.7010 C.2    93  VAL93       0.2287
    105  O         48.4540  -69.4480  -33.8870 O.2    93  VAL93      -0.2864
    106  CB        48.2490  -71.5660  -36.4570 C.3    93  VAL93       0.0276
    107  CG1       49.5300  -70.7550  -36.5950 C.3    93  VAL93       0.0022
    108  CG2       48.5070  -73.0340  -36.7560 C.3    93  VAL93       0.0022
    109  N         56.6280  -78.3700  -49.8610 N.3   125  THR125     -0.1203
    110  CA        56.0480  -79.6460  -49.4370 C.3   125  THR125      0.1994
    111  C         54.5840  -79.5120  -49.0190 C.2   125  THR125      0.2618
    112  O         54.1710  -78.4690  -48.5110 O.2   125  THR125     -0.2717
    113  CB        56.8350  -80.2700  -48.2680 C.3   125  THR125      0.1784
    114  OG1       56.5470  -79.5560  -47.0580 O.3   125  THR125     -0.2211
    115  CG2       58.3270  -80.2220  -48.5390 C.3   125  THR125      0.0376
    116  N         53.8080  -80.5690  -49.2600 N.am  126  ASN126     -0.1960
    117  CA        52.4070  -80.6420  -48.8400 C.3   126  ASN126      0.1819
    118  C         51.5250  -79.5630  -49.4610 C.2   126  ASN126      0.2621
    119  O         50.3700  -79.3880  -49.0740 O.2   126  ASN126     -0.2715
    120  CB        52.3030  -80.5760  -47.3180 C.3   126  ASN126      0.1195
    121  CG        53.0470  -81.7000  -46.6380 C.2   126  ASN126      0.2630
    122  OD1       53.0900  -82.8220  -47.1400 O.2   126  ASN126     -0.2716
    123  ND2       53.6470  -81.4050  -45.4910 N.am  126  ASN126     -0.0877
    124  N         52.0800  -78.8460  -50.4290 N.am  127  MET127     -0.1977
    125  CA        51.3710  -77.7810  -51.1200 C.3   127  MET127      0.1605
    126  C         52.0150  -77.5290  -52.4680 C.2   127  MET127      0.2287
    127  O         53.1430  -77.0400  -52.5290 O.2   127  MET127     -0.2864
    128  CB        51.3780  -76.4880  -50.3060 C.3   127  MET127      0.0413
    129  CG        50.7260  -75.3250  -51.0390 C.3   127  MET127      0.0598
    130  SD        50.8310  -73.7540  -50.1650 S.3   127  MET127     -0.1393
    131  CE        49.7350  -74.0390  -48.7880 C.3   127  MET127      0.0692
    132  N         57.3240  -69.3530  -46.0940 N.3   187  ARG187     -0.1231
    133  CA        55.9530  -69.5660  -46.5450 C.3   187  ARG187      0.1694
    134  C         54.9420  -69.2190  -45.4520 C.2   187  ARG187      0.2591
    135  O         53.8050  -68.8430  -45.7430 O.2   187  ARG187     -0.2718
    136  CB        55.7670  -71.0130  -47.0120 C.3   187  ARG187      0.0321
    137  CG        54.3940  -71.3070  -47.6010 C.3   187  ARG187      0.0489
    138  CD        54.2770  -72.7540  -48.0500 C.3   187  ARG187      0.2205
    139  NE        54.4680  -73.6970  -46.9530 N.pl3 187  ARG187     -0.0865
    140  CZ        54.4730  -75.0180  -47.1020 C.cat 187  ARG187      0.5346
    141  NH1       54.2990  -75.5500  -48.3040 N.pl3 187  ARG187      0.1354
    142  NH2       54.6550  -75.8060  -46.0520 N.pl3 187  ARG187      0.1354
    143  N         55.3700  -69.3310  -44.1970 N.am  188  GLU188     -0.1979
    144  CA        54.5100  -69.0420  -43.0510 C.3   188  GLU188      0.1602
    145  C         53.9790  -67.6110  -43.0340 C.2   188  GLU188      0.2287
    146  O         52.9410  -67.3430  -42.4310 O.2   188  GLU188     -0.2864
    147  CB        55.2610  -69.3170  -41.7460 C.3   188  GLU188      0.0415
    148  CG        55.3250  -70.7820  -41.3580 C.3   188  GLU188      0.1163
    149  CD        53.9490  -71.3990  -41.2130 C.2   188  GLU188      0.3649
    150  OE1       53.0850  -70.7800  -40.5560 O.co2 188  GLU188     -0.2457
    151  OE2       53.7300  -72.5040  -41.7510 O.co2 188  GLU188     -0.2457
    152  N         50.8090  -67.7710  -45.3170 N.3   191  LEU191     -0.1245
    153  CA        49.7850  -68.5540  -44.6390 C.3   191  LEU191      0.1561
    154  C         49.1370  -67.7830  -43.4910 C.2   191  LEU191      0.2260
    155  O         47.9130  -67.7500  -43.3640 O.2   191  LEU191     -0.2867
    156  CB        50.3910  -69.8560  -44.1160 C.3   191  LEU191      0.0270
    157  CG        51.0630  -70.7400  -45.1680 C.3   191  LEU191      0.0019
    158  CD1       51.5410  -72.0460  -44.5540 C.3   191  LEU191      0.0001
    159  CD2       50.1190  -71.0010  -46.3300 C.3   191  LEU191      0.0001
@<TRIPOS>BOND
     1   127   126    2
     2   126   125    1
     3    74    72    1
     4   125   124    1
     5   125   128    1
     6   129   128    1
     7   129   130    1
     8    82    83    1
     9    82    81    1
    10    72    73    1
    11    72    71    1
    12   124   118   am
    13   130   131    1
    14    80    81    1
    15    80    79    1
    16   109   110    1
    17   118   119    2
    18   118   117    1
    19    71    68    1
    20   110   111    1
    21   110   113    1
    22   116   111   am
    23   116   117    1
    24     1     2    1
    25    70    69    2
    26   111   112    2
    27    76    79    1
    28    76    75    1
    29    76    77    1
    30   117   120    1
    31    69    75   am
    32    69    68    1
    33   115   113    1
    34    87    86    2
    35     4     3    2
    36    68    67    1
    37   141   140    1
    38    78    77    2
    39   113   114    1
    40    86    85    1
    41     7     5    1
    42   138   137    1
    43   138   139    1
    44     6     5    1
    45     2     5    1
    46     2     3    1
    47   137   136    1
    48     3     8   am
    49   120   121    1
    50    88    85    1
    51    88    89    1
    52   122   121    2
    53   140   139    2
    54   140   142    1
    55    67    62   am
    56   136   133    1
    57    85    84    1
    58   121   123   am
    59   133   132    1
    60   133   134    1
    61   159   157    1
    62     8     9    1
    63    89    90   ar
    64    89    91   ar
    65    62    63    2
    66    62    61    1
    67    12     9    1
    68    12    13    1
    69    90    92   ar
    70   135   134    2
    71    36    35    2
    72     9    10    1
    73   134   143   am
    74    65    64    1
    75   152   153    1
    76   157   158    1
    77   157   156    1
    78    37    34    1
    79    37    38    1
    80    64    61    1
    81    64    66    1
    82    91    93   ar
    83    34    35    1
    84    34    33    1
    85    61    60    1
    86    92    94   ar
    87   153   156    1
    88   153   154    1
    89    38    39    1
    90    24    23    1
    91    10    14   am
    92    10    11    2
    93   143   144    1
    94    14    15    1
    95    93    94   ar
    96    33    39    1
    97    33    28   am
    98    21    20    2
    99    29    28    2
   100    22    23    1
   101    22    19    1
   102    60    51   am
   103    23    25    1
   104   154   155    2
   105    28    27    1
   106    18    19    1
   107    18    16   am
   108   144   145    1
   109   144   147    1
   110   145   146    2
   111    20    19    1
   112    20    26   am
   113    15    16    1
   114    51    52    2
   115    51    50    1
   116    16    17    2
   117    27    26    1
   118    27    30    1
   119   151   149   ar
   120   147   148    1
   121    50    53    1
   122    50    49    1
   123   148   149    1
   124   149   150   ar
   125    53    54    1
   126    30    31    1
   127    30    32    1
   128    43    42    2
   129    58    57    1
   130    57    59    1
   131    57    56    2
   132    55    56    1
   133    55    54    1
   134    49    42   am
   135    42    41    1
   136    44    41    1
   137    44    45    1
   138    41    40    1
   139    45    46    1
   140    48    46   ar
   141    46    47   ar
   142   108   106    1
   143   107   106    1
   144   106   103    1
   145   101    99    1
   146    95    96    1
   147   103   102    1
   148   103   104    1
   149   102    97   am
   150   104   105    2
   151    99    96    1
   152    99   100    1
   153    96    97    1
   154    97    98    2
