@<TRIPOS>MOLECULE
tmp/4y18B00.pdb
 163 158 0 0 0
SMALL
GASTEIGER

@<TRIPOS>ATOM
      1  N         -7.1540  -69.9590  -31.7170 N.3     9  VAL9       -0.1231
      2  CA        -7.0140  -71.3820  -31.4350 C.3     9  VAL9        0.1692
      3  C         -6.8160  -71.6110  -29.9490 C.2     9  VAL9        0.2593
      4  O         -6.4100  -70.7090  -29.2190 O.2     9  VAL9       -0.2718
      5  CB        -5.8430  -72.0110  -32.2100 C.3     9  VAL9        0.0266
      6  CG1       -5.9900  -71.7420  -33.6970 C.3     9  VAL9        0.0020
      7  CG2       -4.5160  -71.4820  -31.6940 C.3     9  VAL9        0.0020
      8  N         -7.1100  -72.8260  -29.5050 N.am   10  SER10      -0.1938
      9  CA        -7.0170  -73.1420  -28.0900 C.3    10  SER10       0.2055
     10  C         -6.7760  -74.6260  -27.8320 C.2    10  SER10       0.2644
     11  O         -7.3870  -75.4870  -28.4700 O.2    10  SER10      -0.2714
     12  CB        -8.2860  -72.6870  -27.3670 C.3    10  SER10       0.2130
     13  OG        -8.1870  -72.9150  -25.9720 O.3    10  SER10      -0.2179
     14  N         -5.8790  -74.9110  -26.8920 N.am   11  GLY11      -0.1939
     15  CA        -5.6030  -76.2740  -26.4730 C.3    11  GLY11       0.2014
     16  C         -4.5570  -76.9770  -27.3130 C.2    11  GLY11       0.2639
     17  O         -4.3340  -78.1790  -27.1700 O.2    11  GLY11      -0.2714
     18  N         -3.9110  -76.2230  -28.1920 N.am   12  LEU12      -0.1963
     19  CA        -2.8840  -76.7790  -29.0590 C.3    12  LEU12       0.1728
     20  C         -1.5060  -76.6180  -28.4410 C.2    12  LEU12       0.2617
     21  O         -1.2240  -75.6190  -27.7780 O.2    12  LEU12      -0.2715
     22  CB        -2.9160  -76.1140  -30.4350 C.3    12  LEU12       0.0311
     23  CG        -4.1880  -76.2990  -31.2590 C.3    12  LEU12       0.0022
     24  CD1       -4.0720  -75.5610  -32.5800 C.3    12  LEU12       0.0001
     25  CD2       -4.4610  -77.7750  -31.4900 C.3    12  LEU12       0.0001
     26  N         -0.6530  -77.6140  -28.6510 N.am   13  THR13      -0.1937
     27  CA         0.7520  -77.4920  -28.2990 C.3    13  THR13       0.2013
     28  C          1.3800  -76.4740  -29.2430 C.2    13  THR13       0.2484
     29  O          0.8410  -76.2320  -30.3250 O.2    13  THR13      -0.2729
     30  CB         1.4910  -78.8370  -28.4160 C.3    13  THR13       0.1807
     31  OG1        1.5890  -79.2140  -29.7950 O.3    13  THR13      -0.2208
     32  CG2        0.7600  -79.9180  -27.6340 C.3    13  THR13       0.0379
     33  N          2.5120  -75.8690  -28.8430 N.am   14  PRO14      -0.2726
     34  CA         3.1890  -74.9010  -29.7140 C.3    14  PRO14       0.1402
     35  C          3.4490  -75.4730  -31.0990 C.2    14  PRO14       0.2269
     36  O          3.1920  -74.8100  -32.1040 O.2    14  PRO14      -0.2865
     37  CB         4.5020  -74.6350  -28.9840 C.3    14  PRO14       0.0296
     38  CG         4.1640  -74.8260  -27.5570 C.3    14  PRO14       0.0237
     39  CD         3.1580  -75.9500  -27.5200 C.3    14  PRO14       0.0939
     40  N          0.5540  -75.4570  -33.2430 N.3    17  PHE17      -0.1241
     41  CA         0.2330  -74.0860  -33.6090 C.3    17  PHE17       0.1605
     42  C          0.9620  -73.7000  -34.8890 C.2    17  PHE17       0.2264
     43  O          0.4560  -72.9220  -35.6970 O.2    17  PHE17      -0.2867
     44  CB         0.5790  -73.1160  -32.4830 C.3    17  PHE17       0.0534
     45  CG         0.3000  -71.6820  -32.8230 C.ar   17  PHE17      -0.0203
     46  CD1       -0.9720  -71.1590  -32.6680 C.ar   17  PHE17      -0.0042
     47  CD2        1.3040  -70.8590  -33.3050 C.ar   17  PHE17      -0.0042
     48  CE1       -1.2370  -69.8430  -32.9840 C.ar   17  PHE17      -0.0003
     49  CE2        1.0440  -69.5420  -33.6250 C.ar   17  PHE17      -0.0003
     50  CZ        -0.2290  -69.0340  -33.4630 C.ar   17  PHE17      -0.0000
     51  N        -11.0830  -80.2880  -24.1030 N.3    53  GLU53      -0.1231
     52  CA       -10.9170  -79.8090  -22.7410 C.3    53  GLU53       0.1699
     53  C        -11.6180  -78.4630  -22.6190 C.2    53  GLU53       0.2592
     54  O        -11.8910  -77.8080  -23.6250 O.2    53  GLU53      -0.2718
     55  CB        -9.4360  -79.6780  -22.3810 C.3    53  GLU53       0.0402
     56  CG        -8.6190  -80.9530  -22.5500 C.3    53  GLU53       0.1161
     57  CD        -8.0700  -81.4830  -21.2370 C.2    53  GLU53       0.3649
     58  OE1       -7.3190  -82.4800  -21.2670 O.co2  53  GLU53      -0.2457
     59  OE2       -8.3750  -80.8970  -20.1770 O.co2  53  GLU53      -0.2457
     60  N        -11.9150  -78.0480  -21.3940 N.am   54  ARG54      -0.1966
     61  CA       -12.5440  -76.7530  -21.1750 C.3    54  ARG54       0.1729
     62  C        -11.5170  -75.6600  -20.8940 C.2    54  ARG54       0.2617
     63  O        -10.8860  -75.6340  -19.8360 O.2    54  ARG54      -0.2715
     64  CB       -13.5610  -76.8370  -20.0390 C.3    54  ARG54       0.0348
     65  CG       -14.7120  -77.7880  -20.3270 C.3    54  ARG54       0.0492
     66  CD       -15.9100  -77.4900  -19.4490 C.3    54  ARG54       0.2205
     67  NE       -15.5410  -77.4110  -18.0410 N.pl3  54  ARG54      -0.0865
     68  CZ       -16.3980  -77.1510  -17.0610 C.cat  54  ARG54       0.5346
     69  NH1      -17.6800  -76.9540  -17.3380 N.pl3  54  ARG54       0.1354
     70  NH2      -15.9750  -77.0950  -15.8040 N.pl3  54  ARG54       0.1354
     71  N        -11.3350  -74.7800  -21.8720 N.am   55  THR55      -0.1937
     72  CA       -10.4380  -73.6390  -21.7400 C.3    55  THR55       0.2028
     73  C        -11.2390  -72.3370  -21.7790 C.2    55  THR55       0.2642
     74  O        -12.4340  -72.3480  -22.0750 O.2    55  THR55      -0.2714
     75  CB        -9.3710  -73.6320  -22.8480 C.3    55  THR55       0.1808
     76  OG1       -9.9980  -73.4050  -24.1170 O.3    55  THR55      -0.2208
     77  CG2       -8.6410  -74.9660  -22.8840 C.3    55  THR55       0.0379
     78  N        -10.5850  -71.2200  -21.4800 N.am   56  LEU56      -0.1963
     79  CA       -11.2560  -69.9220  -21.5030 C.3    56  LEU56       0.1728
     80  C        -11.8160  -69.5890  -22.8810 C.2    56  LEU56       0.2616
     81  O        -12.9260  -69.0720  -23.0040 O.2    56  LEU56      -0.2715
     82  CB       -10.3010  -68.8160  -21.0570 C.3    56  LEU56       0.0311
     83  CG       -10.8470  -67.3900  -21.1700 C.3    56  LEU56       0.0022
     84  CD1      -12.1250  -67.2340  -20.3710 C.3    56  LEU56       0.0001
     85  CD2       -9.8060  -66.3790  -20.7160 C.3    56  LEU56       0.0001
     86  N        -11.0420  -69.8970  -23.9150 N.am   57  LYS57      -0.1977
     87  CA       -11.4440  -69.6180  -25.2880 C.3    57  LYS57       0.1596
     88  C        -12.6250  -70.4900  -25.6990 C.2    57  LYS57       0.2287
     89  O        -13.4130  -70.1160  -26.5690 O.2    57  LYS57      -0.2864
     90  CB       -10.2630  -69.8240  -26.2360 C.3    57  LYS57       0.0298
     91  CG        -9.1510  -68.8060  -26.0280 C.3    57  LYS57       0.0038
     92  CD        -7.9780  -69.0350  -26.9630 C.3    57  LYS57       0.0206
     93  CE        -6.8800  -68.0100  -26.7190 C.3    57  LYS57       0.1093
     94  NZ        -5.6780  -68.2690  -27.5590 N.3    57  LYS57      -0.1314
     95  N        -15.2050  -71.4280  -23.6160 N.3    59  PHE59      -0.1241
     96  CA       -16.4060  -70.7890  -23.0890 C.3    59  PHE59       0.1605
     97  C        -16.7810  -69.5460  -23.8820 C.2    59  PHE59       0.2264
     98  O        -17.9350  -69.3700  -24.2770 O.2    59  PHE59      -0.2867
     99  CB       -16.2130  -70.4080  -21.6280 C.3    59  PHE59       0.0534
    100  CG       -16.0520  -71.5770  -20.7120 C.ar   59  PHE59      -0.0203
    101  CD1      -14.8580  -71.7860  -20.0440 C.ar   59  PHE59      -0.0042
    102  CD2      -17.0880  -72.4720  -20.5210 C.ar   59  PHE59      -0.0042
    103  CE1      -14.7030  -72.8610  -19.1910 C.ar   59  PHE59      -0.0003
    104  CE2      -16.9420  -73.5500  -19.6700 C.ar   59  PHE59      -0.0003
    105  CZ       -15.7470  -73.7460  -19.0050 C.ar   59  PHE59      -0.0000
    106  N        -15.0060  -83.1450  -21.7860 N.3    95  VAL95      -0.1231
    107  CA       -14.7390  -84.2410  -20.8630 C.3    95  VAL95       0.1692
    108  C        -15.3480  -84.0250  -19.4770 C.2    95  VAL95       0.2591
    109  O        -15.1570  -84.8420  -18.5740 O.2    95  VAL95      -0.2718
    110  CB       -13.2240  -84.4680  -20.7080 C.3    95  VAL95       0.0266
    111  CG1      -12.5970  -84.7970  -22.0550 C.3    95  VAL95       0.0020
    112  CG2      -12.5670  -83.2420  -20.0950 C.3    95  VAL95       0.0020
    113  N        -16.0820  -82.9300  -19.3100 N.am   96  VAL96      -0.1980
    114  CA       -16.6880  -82.6100  -18.0230 C.3    96  VAL96       0.1595
    115  C        -18.2140  -82.6680  -18.0830 C.2    96  VAL96       0.2287
    116  O        -18.8530  -83.2980  -17.2410 O.2    96  VAL96      -0.2864
    117  CB       -16.2520  -81.2240  -17.5290 C.3    96  VAL96       0.0276
    118  CG1      -17.0170  -80.8490  -16.2740 C.3    96  VAL96       0.0022
    119  CG2      -14.7570  -81.2110  -17.2650 C.3    96  VAL96       0.0022
    120  N         -6.8140  -68.3550  -12.6400 N.3   129  ASN129     -0.1225
    121  CA        -6.7690  -68.9320  -13.9870 C.3   129  ASN129      0.1785
    122  C         -7.8150  -68.3780  -14.9550 C.2   129  ASN129      0.2597
    123  O         -7.9650  -68.8820  -16.0670 O.2   129  ASN129     -0.2718
    124  CB        -6.9050  -70.4570  -13.9190 C.3   129  ASN129      0.1169
    125  CG        -5.7900  -71.1070  -13.1260 C.2   129  ASN129      0.2627
    126  OD1       -4.6430  -70.6580  -13.1660 O.2   129  ASN129     -0.2716
    127  ND2       -6.1180  -72.1720  -12.4020 N.am  129  ASN129     -0.0877
    128  N         -8.5350  -67.3460  -14.5310 N.am  130  MET130     -0.1979
    129  CA        -9.5300  -66.7000  -15.3770 C.3   130  MET130      0.1605
    130  C         -9.8270  -65.3090  -14.8410 C.2   130  MET130      0.2287
    131  O        -10.4400  -65.1710  -13.7810 O.2   130  MET130     -0.2864
    132  CB       -10.8180  -67.5220  -15.4590 C.3   130  MET130      0.0413
    133  CG       -11.9060  -66.8460  -16.2880 C.3   130  MET130      0.0598
    134  SD       -13.4750  -67.7360  -16.3470 S.3   130  MET130     -0.1393
    135  CE       -13.0340  -69.1620  -17.3300 C.3   130  MET130      0.0692
    136  N        -18.4960  -70.7010   -9.3820 N.3   190  ARG190     -0.1231
    137  CA       -18.2160  -70.3690  -10.7740 C.3   190  ARG190      0.1694
    138  C        -18.6180  -71.5080  -11.7060 C.2   190  ARG190      0.2591
    139  O        -18.9440  -71.2830  -12.8740 O.2   190  ARG190     -0.2718
    140  CB       -16.7340  -70.0240  -10.9390 C.3   190  ARG190      0.0321
    141  CG       -16.3210  -69.5760  -12.3320 C.3   190  ARG190      0.0489
    142  CD       -14.8360  -69.2510  -12.3530 C.3   190  ARG190      0.2205
    143  NE       -14.0140  -70.3990  -11.9810 N.pl3 190  ARG190     -0.0865
    144  CZ       -12.6920  -70.3600  -11.8510 C.cat 190  ARG190      0.5346
    145  NH1      -12.0360  -69.2260  -12.0550 N.pl3 190  ARG190      0.1354
    146  NH2      -12.0250  -71.4540  -11.5070 N.pl3 190  ARG190      0.1354
    147  N        -18.6000  -72.7290  -11.1770 N.am  191  GLU191     -0.1979
    148  CA       -18.9830  -73.9040  -11.9480 C.3   191  GLU191      0.1602
    149  C        -20.4220  -73.8200  -12.4430 C.2   191  GLU191      0.2287
    150  O        -20.7710  -74.4510  -13.4360 O.2   191  GLU191     -0.2864
    151  CB       -18.7850  -75.1800  -11.1230 C.3   191  GLU191      0.0415
    152  CG       -17.3480  -75.6900  -11.0850 C.3   191  GLU191      0.1163
    153  CD       -16.7970  -75.9880  -12.4740 C.2   191  GLU191      0.3649
    154  OE1      -17.5010  -76.6530  -13.2650 O.co2 191  GLU191     -0.2457
    155  OE2      -15.6590  -75.5680  -12.7760 O.co2 191  GLU191     -0.2457
    156  N        -19.9820  -71.7640  -15.6840 N.3   194  LEU194     -0.1245
    157  CA       -19.2300  -72.5710  -16.6410 C.3   194  LEU194      0.1561
    158  C        -20.0530  -73.7250  -17.2150 C.2   194  LEU194      0.2260
    159  O        -20.0770  -73.9330  -18.4270 O.2   194  LEU194     -0.2867
    160  CB       -17.9550  -73.1100  -15.9840 C.3   194  LEU194      0.0270
    161  CG       -16.9910  -72.0670  -15.4110 C.3   194  LEU194      0.0019
    162  CD1      -15.7330  -72.7230  -14.8630 C.3   194  LEU194      0.0001
    163  CD2      -16.6300  -71.0330  -16.4620 C.3   194  LEU194      0.0001
@<TRIPOS>BOND
     1    43    42    2
     2    42    41    1
     3     6     5    1
     4    49    50   ar
     5    49    47   ar
     6    41    40    1
     7    41    44    1
     8    50    48   ar
     9    47    45   ar
    10    48    46   ar
    11    45    46   ar
    12    45    44    1
    13    24    23    1
    14     5     7    1
    15     5     2    1
    16    36    35    2
    17     1     2    1
    18    25    23    1
    19     2     3    1
    20    23    22    1
    21    35    34    1
    22    22    19    1
    23    29    28    2
    24     3     8   am
    25     3     4    2
    26    31    30    1
    27    34    37    1
    28    34    33    1
    29     8     9    1
    30    28    33   am
    31    28    27    1
    32    19    20    1
    33    19    18    1
    34    37    38    1
    35    33    39    1
    36    26    20   am
    37    26    27    1
    38    11    10    2
    39    20    21    2
    40    30    27    1
    41    30    32    1
    42    18    16   am
    43     9    10    1
    44     9    12    1
    45    10    14   am
    46    94    93    1
    47    38    39    1
    48    12    13    1
    49    16    17    2
    50    16    15    1
    51    92    93    1
    52    92    91    1
    53    14    15    1
    54    89    88    2
    55    90    91    1
    56    90    87    1
    57    88    87    1
    58    87    86    1
    59    98    97    2
    60    76    75    1
    61    51    52    1
    62    86    80   am
    63    97    96    1
    64    54    53    2
    65    95    96    1
    66    96    99    1
    67    81    80    2
    68    77    75    1
    69    80    79    1
    70    75    72    1
    71    52    53    1
    72    52    55    1
    73    53    60   am
    74    56    55    1
    75    56    57    1
    76    74    73    2
    77   111   110    1
    78    71    72    1
    79    71    62   am
    80   106   107    1
    81    73    72    1
    82    73    78   am
    83    99   100    1
    84    79    78    1
    85    79    82    1
    86    60    61    1
    87    58    57   ar
    88    57    59   ar
    89    61    62    1
    90    61    64    1
    91    83    82    1
    92    83    85    1
    93    83    84    1
    94    62    63    2
    95   107   110    1
    96   107   108    1
    97   100   102   ar
    98   100   101   ar
    99   110   112    1
   100   102   104   ar
   101    65    64    1
   102    65    66    1
   103   101   103   ar
   104   104   105   ar
   105   108   113   am
   106   108   109    2
   107    66    67    1
   108   113   114    1
   109   103   105   ar
   110   159   158    2
   111   115   114    1
   112   115   116    2
   113    67    68    2
   114   114   117    1
   115   117   119    1
   116   117   118    1
   117    69    68    1
   118   135   134    1
   119   158   157    1
   120    68    70    1
   121   157   160    1
   122   157   156    1
   123   163   161    1
   124   134   133    1
   125   133   132    1
   126   123   122    2
   127   160   161    1
   128   132   129    1
   129   161   162    1
   130   129   130    1
   131   129   128    1
   132   122   128   am
   133   122   121    1
   134   130   131    2
   135   121   124    1
   136   121   120    1
   137   124   125    1
   138   150   149    2
   139   154   153   ar
   140   126   125    2
   141   125   127   am
   142   139   138    2
   143   155   153   ar
   144   153   152    1
   145   149   148    1
   146   142   141    1
   147   142   143    1
   148   141   140    1
   149   145   144    1
   150   143   144    2
   151   148   147    1
   152   148   151    1
   153   144   146    1
   154   138   147   am
   155   138   137    1
   156   151   152    1
   157   140   137    1
   158   137   136    1
