@<TRIPOS>MOLECULE
tmp/4y18E00.pdb
 159 154 0 0 0
SMALL
GASTEIGER

@<TRIPOS>ATOM
      1  N         13.8500  -13.8440  -23.8540 N.3     9  VAL9       -0.1231
      2  CA        14.0490  -14.1810  -25.2580 C.3     9  VAL9        0.1692
      3  C         14.2890  -15.6710  -25.4300 C.2     9  VAL9        0.2593
      4  O         14.6860  -16.3550  -24.4880 O.2     9  VAL9       -0.2718
      5  CB        15.2280  -13.4090  -25.8600 C.3     9  VAL9        0.0266
      6  CG1       15.0500  -11.9220  -25.6200 C.3     9  VAL9        0.0020
      7  CG2       16.5300  -13.8920  -25.2550 C.3     9  VAL9        0.0020
      8  N         14.0520  -16.1650  -26.6420 N.am   10  SER10      -0.1938
      9  CA        14.1990  -17.5870  -26.9350 C.3    10  SER10       0.2055
     10  C         14.5140  -17.8560  -28.4020 C.2    10  SER10       0.2644
     11  O         13.9240  -17.2470  -29.2980 O.2    10  SER10      -0.2714
     12  CB        12.9330  -18.3460  -26.5380 C.3    10  SER10       0.2130
     13  OG        13.0910  -19.7380  -26.7530 O.3    10  SER10      -0.2179
     14  N         15.4520  -18.7700  -28.6340 N.am   11  GLY11      -0.1939
     15  CA        15.8030  -19.2000  -29.9750 C.3    11  GLY11       0.2014
     16  C         16.8480  -18.3450  -30.6660 C.2    11  GLY11       0.2639
     17  O         17.1210  -18.5240  -31.8520 O.2    11  GLY11      -0.2714
     18  N         17.4370  -17.4160  -29.9230 N.am   12  LEU12      -0.1963
     19  CA        18.4620  -16.5410  -30.4750 C.3    12  LEU12       0.1728
     20  C         19.8510  -17.1110  -30.2340 C.2    12  LEU12       0.2617
     21  O         20.1110  -17.7110  -29.1910 O.2    12  LEU12      -0.2715
     22  CB        18.3660  -15.1400  -29.8670 C.3    12  LEU12       0.0311
     23  CG        17.1020  -14.3190  -30.1240 C.3    12  LEU12       0.0022
     24  CD1       17.1850  -12.9800  -29.4130 C.3    12  LEU12       0.0001
     25  CD2       16.9300  -14.1010  -31.6080 C.3    12  LEU12       0.0001
     26  N         20.7430  -16.9260  -31.2020 N.am   13  THR13      -0.1937
     27  CA        22.1520  -17.2200  -30.9810 C.3    13  THR13       0.2013
     28  C         22.6360  -16.1890  -29.9760 C.2    13  THR13       0.2484
     29  O         21.9970  -15.1430  -29.8250 O.2    13  THR13      -0.2729
     30  CB        22.9900  -17.1500  -32.2790 C.3    13  THR13       0.1807
     31  OG1       23.0350  -15.7980  -32.7530 O.3    13  THR13      -0.2208
     32  CG2       22.3940  -18.0410  -33.3510 C.3    13  THR13       0.0379
     33  N         23.7470  -16.4780  -29.2740 N.am   14  PRO14      -0.2726
     34  CA        24.2380  -15.4970  -28.3090 C.3    14  PRO14       0.1402
     35  C         24.3910  -14.1230  -28.9380 C.2    14  PRO14       0.2269
     36  O         23.7690  -13.2020  -28.4400 O.2    14  PRO14      -0.2865
     37  CB        25.5940  -16.0730  -27.8910 C.3    14  PRO14       0.0296
     38  CG        25.4070  -17.5440  -28.0170 C.3    14  PRO14       0.0237
     39  CD        24.5080  -17.7380  -29.2110 C.3    14  PRO14       0.0939
     40  N         10.5420  -21.6400  -33.9150 N.3    53  GLU53      -0.1231
     41  CA        10.6940  -23.0100  -33.4410 C.3    53  GLU53       0.1699
     42  C          9.8740  -23.1740  -32.1680 C.2    53  GLU53       0.2592
     43  O          9.5030  -22.1870  -31.5320 O.2    53  GLU53      -0.2718
     44  CB        12.1610  -23.3430  -33.1550 C.3    53  GLU53       0.0402
     45  CG        13.1210  -23.1530  -34.3180 C.3    53  GLU53       0.1161
     46  CD        13.7640  -24.4560  -34.7670 C.2    53  GLU53       0.3649
     47  OE1       14.6480  -24.4080  -35.6470 O.co2  53  GLU53      -0.2457
     48  OE2       13.4080  -25.5220  -34.2230 O.co2  53  GLU53      -0.2457
     49  N          9.5920  -24.4120  -31.7860 N.am   54  ARG54      -0.1966
     50  CA         8.8610  -24.6390  -30.5500 C.3    54  ARG54       0.1729
     51  C          9.8250  -24.8420  -29.3910 C.2    54  ARG54       0.2617
     52  O         10.4650  -25.8860  -29.2760 O.2    54  ARG54      -0.2715
     53  CB         7.9310  -25.8420  -30.6860 C.3    54  ARG54       0.0348
     54  CG         6.8660  -25.6760  -31.7510 C.3    54  ARG54       0.0492
     55  CD         5.7170  -26.6280  -31.5150 C.3    54  ARG54       0.2205
     56  NE         6.1810  -27.9980  -31.3250 N.pl3  54  ARG54      -0.0865
     57  CZ         5.3760  -29.0260  -31.0850 C.cat  54  ARG54       0.5346
     58  NH1        4.0660  -28.8360  -31.0170 N.pl3  54  ARG54       0.1354
     59  NH2        5.8780  -30.2420  -30.9190 N.pl3  54  ARG54       0.1354
     60  N          9.9280  -23.8330  -28.5350 N.am   55  THR55      -0.1937
     61  CA        10.7830  -23.9210  -27.3610 C.3    55  THR55       0.2028
     62  C          9.9580  -23.8990  -26.0850 C.2    55  THR55       0.2642
     63  O          8.7580  -23.6300  -26.1170 O.2    55  THR55      -0.2714
     64  CB        11.7990  -22.7790  -27.3240 C.3    55  THR55       0.1808
     65  OG1       11.1030  -21.5370  -27.1740 O.3    55  THR55      -0.2208
     66  CG2       12.5850  -22.7450  -28.6160 C.3    55  THR55       0.0379
     67  N         10.6050  -24.1900  -24.9610 N.am   56  LEU56      -0.1963
     68  CA         9.9230  -24.1720  -23.6760 C.3    56  LEU56       0.1728
     69  C          9.3830  -22.7820  -23.3700 C.2    56  LEU56       0.2616
     70  O          8.2660  -22.6330  -22.8780 O.2    56  LEU56      -0.2715
     71  CB        10.8580  -24.6300  -22.5610 C.3    56  LEU56       0.0311
     72  CG        10.2480  -24.5190  -21.1650 C.3    56  LEU56       0.0022
     73  CD1        8.9650  -25.3260  -21.0800 C.3    56  LEU56       0.0001
     74  CD2       11.2390  -24.9700  -20.1080 C.3    56  LEU56       0.0001
     75  N         10.1800  -21.7640  -23.6690 N.am   57  LYS57      -0.1977
     76  CA         9.7590  -20.3940  -23.4280 C.3    57  LYS57       0.1596
     77  C          8.6170  -20.0390  -24.3690 C.2    57  LYS57       0.2287
     78  O          7.7720  -19.2030  -24.0520 O.2    57  LYS57      -0.2864
     79  CB        10.9210  -19.4240  -23.6220 C.3    57  LYS57       0.0298
     80  CG        12.0340  -19.5520  -22.5990 C.3    57  LYS57       0.0038
     81  CD        13.1330  -18.5500  -22.9030 C.3    57  LYS57       0.0206
     82  CE        14.2910  -18.6340  -21.9230 C.3    57  LYS57       0.1093
     83  NZ        15.3900  -17.6960  -22.3040 N.3    57  LYS57      -0.1314
     84  N          6.1750  -22.2280  -25.4640 N.3    59  PHE59      -0.1241
     85  CA         4.9490  -22.7920  -24.9150 C.3    59  PHE59       0.1605
     86  C          4.4640  -21.9860  -23.7180 C.2    59  PHE59       0.2264
     87  O          3.2950  -21.6060  -23.6400 O.2    59  PHE59      -0.2867
     88  CB         5.1550  -24.2430  -24.4860 C.3    59  PHE59       0.0534
     89  CG         5.4290  -25.1900  -25.6170 C.ar   59  PHE59      -0.0203
     90  CD1        6.6370  -25.8640  -25.6940 C.ar   59  PHE59      -0.0042
     91  CD2        4.4730  -25.4290  -26.5890 C.ar   59  PHE59      -0.0042
     92  CE1        6.8930  -26.7500  -26.7260 C.ar   59  PHE59      -0.0003
     93  CE2        4.7220  -26.3130  -27.6240 C.ar   59  PHE59      -0.0003
     94  CZ         5.9340  -26.9730  -27.6920 C.ar   59  PHE59      -0.0000
     95  N          6.7810  -23.9900  -36.9130 N.3    95  VAL95      -0.1231
     96  CA         7.1120  -24.9360  -37.9750 C.3    95  VAL95       0.1692
     97  C          6.5210  -26.3320  -37.7840 C.2    95  VAL95       0.2591
     98  O          6.7650  -27.2260  -38.5940 O.2    95  VAL95      -0.2718
     99  CB         8.6350  -25.0840  -38.1150 C.3    95  VAL95       0.0266
    100  CG1        9.2670  -23.7350  -38.4210 C.3    95  VAL95       0.0020
    101  CG2        9.2260  -25.6760  -36.8440 C.3    95  VAL95       0.0020
    102  N          5.7440  -26.5230  -36.7230 N.am   96  VAL96      -0.1980
    103  CA         5.1700  -27.8340  -36.4400 C.3    96  VAL96       0.1595
    104  C          3.6460  -27.8540  -36.5430 C.2    96  VAL96       0.2287
    105  O          3.0740  -28.7130  -37.2140 O.2    96  VAL96      -0.2864
    106  CB         5.5860  -28.3340  -35.0460 C.3    96  VAL96       0.0276
    107  CG1        4.8530  -29.6200  -34.7010 C.3    96  VAL96       0.0022
    108  CG2        7.0900  -28.5490  -34.9930 C.3    96  VAL96       0.0022
    109  N         12.5250  -35.5610  -21.0950 N.3   128  THR128     -0.1203
    110  CA        13.7890  -35.0180  -21.5820 C.3   128  THR128      0.1994
    111  C         13.6160  -33.6130  -22.1480 C.2   128  THR128      0.2618
    112  O         12.5570  -33.2840  -22.6850 O.2   128  THR128     -0.2717
    113  CB        14.4100  -35.9090  -22.6680 C.3   128  THR128      0.1784
    114  OG1       13.6830  -35.7460  -23.8920 O.3   128  THR128     -0.2211
    115  CG2       14.3760  -37.3680  -22.2510 C.3   128  THR128      0.0376
    116  N         14.6530  -32.7910  -22.0040 N.am  129  ASN129     -0.1960
    117  CA        14.6910  -31.4470  -22.5800 C.3   129  ASN129      0.1819
    118  C         13.6000  -30.5170  -22.0540 C.2   129  ASN129      0.2621
    119  O         13.4110  -29.4170  -22.5750 O.2   129  ASN129     -0.2715
    120  CB        14.6050  -31.5250  -24.1060 C.3   129  ASN129      0.1195
    121  CG        15.7350  -32.3310  -24.7140 C.2   129  ASN129      0.2630
    122  OD1       16.8670  -32.2940  -24.2340 O.2   129  ASN129     -0.2716
    123  ND2       15.4270  -33.0810  -25.7680 N.am  129  ASN129     -0.0877
    124  N         12.8780  -30.9650  -21.0330 N.am  130  MET130     -0.1977
    125  CA        11.8280  -30.1620  -20.4170 C.3   130  MET130      0.1605
    126  C         11.5150  -30.6730  -19.0130 C.2   130  MET130      0.2287
    127  O         10.9790  -31.7700  -18.8570 O.2   130  MET130     -0.2864
    128  CB        10.5600  -30.1590  -21.2760 C.3   130  MET130      0.0413
    129  CG         9.4100  -29.3950  -20.6400 C.3   130  MET130      0.0598
    130  SD         7.8780  -29.4230  -21.5870 S.3   130  MET130     -0.1393
    131  CE         8.3160  -28.3980  -22.9880 C.3   130  MET130      0.0692
    132  N          3.4440  -36.6340  -24.6970 N.3   190  ARG190     -0.1231
    133  CA         3.6610  -35.2390  -24.3220 C.3   190  ARG190      0.1694
    134  C          3.2840  -34.3160  -25.4740 C.2   190  ARG190      0.2591
    135  O          2.9060  -33.1590  -25.2650 O.2   190  ARG190     -0.2718
    136  CB         5.1170  -35.0130  -23.8940 C.3   190  ARG190      0.0321
    137  CG         5.4220  -33.6020  -23.3960 C.3   190  ARG190      0.0489
    138  CD         6.8760  -33.4580  -22.9730 C.3   190  ARG190      0.2205
    139  NE         7.8110  -33.7280  -24.0590 N.pl3 190  ARG190     -0.0865
    140  CZ         9.1320  -33.7270  -23.9130 C.cat 190  ARG190      0.5346
    141  NH1        9.6650  -33.4720  -22.7280 N.pl3 190  ARG190      0.1354
    142  NH2        9.9190  -33.9860  -24.9470 N.pl3 190  ARG190      0.1354
    143  N          3.3730  -34.8500  -26.6890 N.am  191  GLU191     -0.1979
    144  CA         3.0530  -34.0950  -27.8900 C.3   191  GLU191      0.1602
    145  C          1.6090  -33.6020  -27.8750 C.2   191  GLU191      0.2287
    146  O          1.2800  -32.6160  -28.5330 O.2   191  GLU191     -0.2864
    147  CB         3.3040  -34.9440  -29.1350 C.3   191  GLU191      0.0415
    148  CG         4.7700  -35.0550  -29.5230 C.3   191  GLU191      0.1163
    149  CD         5.4270  -33.7030  -29.7410 C.2   191  GLU191      0.3649
    150  OE1        4.8350  -32.8450  -30.4310 O.co2 191  GLU191     -0.2457
    151  OE2        6.5490  -33.5020  -29.2300 O.co2 191  GLU191     -0.2457
    152  N          1.8640  -30.2330  -25.8710 N.3   194  LEU194     -0.1245
    153  CA         2.5870  -29.2440  -26.6610 C.3   194  LEU194      0.1561
    154  C          1.7660  -28.7140  -27.8380 C.2   194  LEU194      0.2260
    155  O          1.7290  -27.5060  -28.0800 O.2   194  LEU194     -0.2867
    156  CB         3.9120  -29.8340  -27.1490 C.3   194  LEU194      0.0270
    157  CG         4.8260  -30.3270  -26.0220 C.3   194  LEU194      0.0019
    158  CD1        6.1670  -30.8110  -26.5520 C.3   194  LEU194      0.0001
    159  CD2        5.0280  -29.2390  -24.9830 C.3   194  LEU194      0.0001
@<TRIPOS>BOND
     1    98    97    2
     2   100    99    1
     3    99    96    1
     4    99   101    1
     5    96    97    1
     6    96    95    1
     7    97   102   am
     8   105   104    2
     9   102   103    1
    10   104   103    1
    11   103   106    1
    12    47    46   ar
    13   106   108    1
    14   106   107    1
    15    46    45    1
    16    46    48   ar
    17    45    44    1
    18    40    41    1
    19    41    44    1
    20    41    42    1
    21    32    30    1
    22    31    30    1
    23    30    27    1
    24    42    49   am
    25    42    43    2
    26    17    16    2
    27    49    50    1
    28    54    55    1
    29    54    53    1
    30    25    23    1
    31    55    56    1
    32    56    57    2
    33    26    27    1
    34    26    20   am
    35    57    58    1
    36    57    59    1
    37    27    28    1
    38    53    50    1
    39    16    15    1
    40    16    18   am
    41    50    51    1
    42    19    20    1
    43    19    18    1
    44    19    22    1
    45   150   149   ar
    46    20    21    2
    47    23    22    1
    48    23    24    1
    49    28    29    2
    50    28    33   am
    51    15    14    1
    52   149   148    1
    53   149   151   ar
    54   148   147    1
    55    51    52    2
    56    51    60   am
    57    11    10    2
    58    33    39    1
    59    33    34    1
    60    39    38    1
    61   147   144    1
    62    35    36    2
    63    35    34    1
    64    14    10   am
    65    66    64    1
    66    60    61    1
    67   146   145    2
    68    10     9    1
    69    34    37    1
    70   155   154    2
    71    38    37    1
    72   144   145    1
    73   144   143    1
    74   154   153    1
    75    94    93   ar
    76    94    92   ar
    77    93    91   ar
    78    61    64    1
    79    61    62    1
    80    64    65    1
    81   156   153    1
    82   156   157    1
    83     9     8    1
    84     9    12    1
    85    13    12    1
    86    92    90   ar
    87   143   134   am
    88   153   152    1
    89     8     3   am
    90    91    89   ar
    91   158   157    1
    92    63    62    2
    93    62    67   am
    94   157   159    1
    95     5     6    1
    96     5     2    1
    97     5     7    1
    98   123   121   am
    99    90    89   ar
   100    89    88    1
   101   134   135    2
   102   134   133    1
   103    84    85    1
   104     3     2    1
   105     3     4    2
   106     2     1    1
   107    67    68    1
   108   142   140    1
   109    85    88    1
   110    85    86    1
   111   121   122    2
   112   121   120    1
   113   132   133    1
   114    77    78    2
   115    77    76    1
   116   133   136    1
   117   120   117    1
   118   139   140    2
   119   139   138    1
   120   140   141    1
   121   136   137    1
   122   114   113    1
   123    86    87    2
   124    68    69    1
   125    68    71    1
   126    75    76    1
   127    75    69   am
   128    79    76    1
   129    79    80    1
   130   137   138    1
   131    69    70    2
   132   131   130    1
   133    81    80    1
   134    81    82    1
   135   112   111    2
   136   113   115    1
   137   113   110    1
   138   117   118    1
   139   117   116    1
   140   119   118    2
   141    71    72    1
   142    83    82    1
   143   111   116   am
   144   111   110    1
   145   118   124   am
   146   130   129    1
   147   110   109    1
   148   128   129    1
   149   128   125    1
   150    72    73    1
   151    72    74    1
   152   124   125    1
   153   125   126    1
   154   126   127    2
