@<TRIPOS>MOLECULE
tmp/4y1pB00.pdb
 94 86 0 0 0
SMALL
GASTEIGER

@<TRIPOS>ATOM
      1  N        -26.9590   20.2320    0.3730 N.3    77  ALA77      -0.1231
      2  CA       -26.5770   19.5040   -0.8560 C.3    77  ALA77       0.1694
      3  C        -27.6620   18.5580   -1.3670 C.2    77  ALA77       0.2591
      4  O        -27.9350   18.5150   -2.5600 O.2    77  ALA77      -0.2718
      5  CB       -25.2670   18.7340   -0.6370 C.3    77  ALA77       0.0304
      6  N        -28.2620   17.7880   -0.4650 N.am   78  ALA78      -0.1980
      7  CA       -29.3430   16.8580   -0.8320 C.3    78  ALA78       0.1597
      8  C        -30.5730   17.6050   -1.3590 C.2    78  ALA78       0.2287
      9  O        -31.1470   17.2210   -2.3880 O.2    78  ALA78      -0.2864
     10  CB       -29.7210   15.9690    0.3480 C.3    78  ALA78       0.0319
     11  N        -29.2660   19.0190   -5.0020 N.3    81  VAL81      -0.1231
     12  CA       -28.8460   18.0860   -6.0270 C.3    81  VAL81       0.1692
     13  C        -29.8970   17.0330   -6.3370 C.2    81  VAL81       0.2591
     14  O        -30.2080   16.7860   -7.5060 O.2    81  VAL81      -0.2718
     15  CB       -27.5220   17.4050   -5.6420 C.3    81  VAL81       0.0266
     16  CG1      -27.2030   16.2950   -6.6040 C.3    81  VAL81       0.0020
     17  CG2      -26.3950   18.4260   -5.6410 C.3    81  VAL81       0.0020
     18  N        -30.4450   16.4160   -5.3010 N.am   82  VAL82      -0.1980
     19  CA       -31.4930   15.4320   -5.4920 C.3    82  VAL82       0.1595
     20  C        -32.7340   15.9840   -6.1950 C.2    82  VAL82       0.2287
     21  O        -33.2470   15.3620   -7.1390 O.2    82  VAL82      -0.2864
     22  CB       -31.9250   14.7830   -4.1640 C.3    82  VAL82       0.0276
     23  CG1      -33.0230   13.7610   -4.4220 C.3    82  VAL82       0.0022
     24  CG2      -30.7320   14.1060   -3.5070 C.3    82  VAL82       0.0022
     25  N        -31.8980   16.3300   -9.8790 N.3    85  ARG85      -0.1245
     26  CA       -31.8920   14.9880  -10.4730 C.3    85  ARG85       0.1563
     27  C        -33.2720   14.4370  -10.8220 C.2    85  ARG85       0.2260
     28  O        -33.4740   13.9530  -11.9330 O.2    85  ARG85      -0.2867
     29  CB       -31.1770   14.0150   -9.5570 C.3    85  ARG85       0.0307
     30  CG       -29.6600   14.2260   -9.5570 C.3    85  ARG85       0.0489
     31  CD       -29.0090   13.3220   -8.5230 C.3    85  ARG85       0.2205
     32  NE       -27.5950   13.6200   -8.3330 N.pl3  85  ARG85      -0.0865
     33  CZ       -26.8620   13.1370   -7.3370 C.cat  85  ARG85       0.5346
     34  NH1      -27.4120   12.3440   -6.4160 N.pl3  85  ARG85       0.1354
     35  NH2      -25.5860   13.4770   -7.2410 N.pl3  85  ARG85       0.1354
     36  N        -19.1800    8.7740  -12.7910 N.3    95  ARG95      -0.1245
     37  CA       -18.2020    8.9850  -11.7450 C.3    95  ARG95       0.1563
     38  C        -16.8600    8.3410  -12.0980 C.2    95  ARG95       0.2260
     39  O        -16.6020    7.2000  -11.7300 O.2    95  ARG95      -0.2867
     40  CB       -18.7010    8.3490  -10.4550 C.3    95  ARG95       0.0307
     41  CG       -19.9220    9.0230   -9.8680 C.3    95  ARG95       0.0489
     42  CD       -19.5390   10.2570   -9.1020 C.3    95  ARG95       0.2205
     43  NE       -20.7480   11.0050   -8.8180 N.pl3  95  ARG95      -0.0865
     44  CZ       -21.2600   11.2280   -7.6090 C.cat  95  ARG95       0.5346
     45  NH1      -20.6770   10.7720   -6.5000 N.pl3  95  ARG95       0.1354
     46  NH2      -22.3740   11.9180   -7.5190 N.pl3  95  ARG95       0.1354
     47  N        -23.7780    5.0700  -12.6000 N.3   116  ARG116     -0.1245
     48  CA       -24.7240    4.9200  -11.5130 C.3   116  ARG116      0.1563
     49  C        -26.0990    5.4450  -11.9430 C.2   116  ARG116      0.2260
     50  O        -26.2340    6.6090  -12.3470 O.2   116  ARG116     -0.2867
     51  CB       -24.1850    5.6800  -10.3090 C.3   116  ARG116      0.0307
     52  CG       -25.1680    5.9420   -9.1820 C.3   116  ARG116      0.0489
     53  CD       -24.6000    6.9860   -8.2430 C.3   116  ARG116      0.2205
     54  NE       -25.5860    7.3930   -7.2510 N.pl3 116  ARG116     -0.0865
     55  CZ       -25.4310    8.3670   -6.3700 C.cat 116  ARG116      0.5346
     56  NH1      -24.3260    9.1040   -6.3560 N.pl3 116  ARG116      0.1354
     57  NH2      -26.3970    8.6070   -5.5030 N.pl3 116  ARG116      0.1354
     58  N        -33.8690    6.9230   -3.7280 N.3   123  TYR123     -0.1241
     59  CA       -33.6400    8.3680   -3.7660 C.3   123  TYR123      0.1605
     60  C        -34.8800    9.2310   -4.0260 C.2   123  TYR123      0.2264
     61  O        -34.7820   10.4460   -3.9140 O.2   123  TYR123     -0.2867
     62  CB       -32.5400    8.7030   -4.7860 C.3   123  TYR123      0.0534
     63  CG       -31.1410    8.6140   -4.2070 C.ar  123  TYR123     -0.0201
     64  CD1      -30.5800    7.3870   -3.8490 C.ar  123  TYR123     -0.0009
     65  CD2      -30.3930    9.7440   -4.0040 C.ar  123  TYR123     -0.0009
     66  CE1      -29.3020    7.3040   -3.3270 C.ar  123  TYR123      0.0417
     67  CE2      -29.1110    9.6780   -3.4690 C.ar  123  TYR123      0.0417
     68  CZ       -28.5790    8.4540   -3.1230 C.ar  123  TYR123      0.1957
     69  OH       -27.3270    8.4150   -2.5880 O.3   123  TYR123     -0.2866
     70  N        -23.4430    5.2000   -5.1690 N.3   224  ASP224     -0.1239
     71  CA       -22.9880    6.2410   -4.2350 C.3   224  ASP224      0.1674
     72  C        -21.8080    5.7130   -3.4170 C.2   224  ASP224      0.2266
     73  O        -20.7970    6.3950   -3.2590 O.2   224  ASP224     -0.2867
     74  CB       -24.1320    6.6540   -3.3120 C.3   224  ASP224      0.1410
     75  CG       -23.7340    7.7390   -2.2920 C.2   224  ASP224      0.3668
     76  OD1      -23.1610    8.7850   -2.6830 O.co2 224  ASP224     -0.2456
     77  OD2      -24.0490    7.5580   -1.0930 O.co2 224  ASP224     -0.2456
     78  N        -17.2750    6.4340   -4.2320 N.3   228  ASP228     -0.1239
     79  CA       -16.4180    7.0370   -3.2290 C.3   228  ASP228      0.1674
     80  C        -15.2570    6.1210   -2.8880 C.2   228  ASP228      0.2266
     81  O        -14.1130    6.5890   -2.8160 O.2   228  ASP228     -0.2867
     82  CB       -17.2100    7.4270   -1.9760 C.3   228  ASP228      0.1410
     83  CG       -17.6680    8.9100   -1.9940 C.2   228  ASP228      0.3668
     84  OD1      -17.9840    9.4700   -3.0690 O.co2 228  ASP228     -0.2456
     85  OD2      -17.6980    9.5340   -0.9050 O.co2 228  ASP228     -0.2456
     86  N        -20.6040   18.7080  -11.7380 N.3   253  GLU253     -0.1245
     87  CA       -20.1370   19.1410  -10.4260 C.3   253  GLU253      0.1567
     88  C        -18.9050   18.2990   -9.9940 C.2   253  GLU253      0.2260
     89  O        -18.7430   17.1630  -10.4180 O.2   253  GLU253     -0.2867
     90  CB       -21.2560   19.0190   -9.3710 C.3   253  GLU253      0.0388
     91  CG       -21.8600   17.6140   -9.2660 C.3   253  GLU253      0.1160
     92  CD       -22.8480   17.4310   -8.1010 C.2   253  GLU253      0.3649
     93  OE1      -23.0910   18.4000   -7.3370 O.co2 253  GLU253     -0.2457
     94  OE2      -23.4080   16.3090   -7.9620 O.co2 253  GLU253     -0.2457
@<TRIPOS>BOND
     1    36    37    1
     2    47    48    1
     3    50    49    2
     4    38    37    1
     5    38    39    2
     6    49    48    1
     7    28    27    2
     8    37    40    1
     9    86    87    1
    10    48    51    1
    11    27    26    1
    12    26    25    1
    13    26    29    1
    14    40    41    1
    15    87    88    1
    16    87    90    1
    17    89    88    2
    18    51    52    1
    19    41    42    1
    20    29    30    1
    21    30    31    1
    22    90    91    1
    23    91    92    1
    24    52    53    1
    25    42    43    1
    26    43    44    2
    27    31    32    1
    28    32    33    2
    29    53    54    1
    30    92    94   ar
    31    92    93   ar
    32    44    46    1
    33    44    45    1
    34    14    13    2
    35    33    35    1
    36    33    34    1
    37    54    55    2
    38    21    20    2
    39    16    15    1
    40    55    56    1
    41    55    57    1
    42    13    12    1
    43    13    18   am
    44    20    19    1
    45    12    15    1
    46    12    11    1
    47    15    17    1
    48    19    18    1
    49    19    22    1
    50    70    71    1
    51    62    63    1
    52    62    59    1
    53    23    22    1
    54    71    72    1
    55    71    74    1
    56    78    79    1
    57    63    65   ar
    58    63    64   ar
    59    22    24    1
    60    60    61    2
    61    60    59    1
    62    65    67   ar
    63    64    66   ar
    64    59    58    1
    65    67    68   ar
    66    72    73    2
    67    66    68   ar
    68    74    75    1
    69    79    80    1
    70    79    82    1
    71    68    69    1
    72    84    83   ar
    73    80    81    2
    74    76    75   ar
    75     4     3    2
    76     9     8    2
    77    75    77   ar
    78    83    82    1
    79    83    85   ar
    80     3     2    1
    81     3     6   am
    82     8     7    1
    83     2     5    1
    84     2     1    1
    85     7     6    1
    86     7    10    1
