@<TRIPOS>MOLECULE
tmp/4y1qD01.pdb
 193 191 0 0 0
SMALL
GASTEIGER

@<TRIPOS>ATOM
      1  N          6.7950   36.4290  -11.7450 N.3    30  ASP30      -0.1239
      2  CA         7.6800   37.5610  -11.4840 C.3    30  ASP30       0.1674
      3  C          8.7300   37.2390  -10.4170 C.2    30  ASP30       0.2266
      4  O          9.8080   37.8240  -10.4070 O.2    30  ASP30      -0.2867
      5  CB         6.8630   38.7890  -11.0630 C.3    30  ASP30       0.1410
      6  CG         6.0900   39.4000  -12.2120 C.2    30  ASP30       0.3668
      7  OD1        6.6140   39.4120  -13.3440 O.co2  30  ASP30      -0.2456
      8  OD2        4.9600   39.8740  -11.9790 O.co2  30  ASP30      -0.2456
      9  N          7.0850   32.8770  -20.7550 N.3    39  ARG39      -0.1231
     10  CA         6.0750   33.9080  -20.8580 C.3    39  ARG39       0.1694
     11  C          4.9690   33.4370  -21.7880 C.2    39  ARG39       0.2593
     12  O          4.1630   34.2350  -22.2600 O.2    39  ARG39      -0.2718
     13  CB         6.6940   35.2110  -21.3620 C.3    39  ARG39       0.0321
     14  CG         7.6910   35.8190  -20.3950 C.3    39  ARG39       0.0489
     15  CD         8.2200   37.1480  -20.8990 C.3    39  ARG39       0.2205
     16  NE         9.1790   37.7260  -19.9640 N.pl3  39  ARG39      -0.0865
     17  CZ         8.8420   38.4430  -18.8970 C.cat  39  ARG39       0.5346
     18  NH1        7.5640   38.6770  -18.6280 N.pl3  39  ARG39       0.1354
     19  NH2        9.7830   38.9260  -18.0980 N.pl3  39  ARG39       0.1354
     20  N          4.9380   32.1340  -22.0490 N.am   40  GLY40      -0.1942
     21  CA         3.9240   31.5530  -22.9090 C.3    40  GLY40       0.2014
     22  C          4.1930   31.7920  -24.3810 C.2    40  GLY40       0.2640
     23  O          5.0470   32.6010  -24.7410 O.2    40  GLY40      -0.2714
     24  N          3.4620   31.0830  -25.2350 N.am   41  SER41      -0.1935
     25  CA         3.6170   31.2270  -26.6770 C.3    41  SER41       0.2055
     26  C          2.2750   31.1040  -27.3920 C.2    41  SER41       0.2643
     27  O          1.4200   30.3100  -26.9970 O.2    41  SER41      -0.2714
     28  CB         4.5960   30.1830  -27.2180 C.3    41  SER41       0.2130
     29  OG         4.1640   28.8700  -26.9090 O.3    41  SER41      -0.2179
     30  N          2.0950   31.8980  -28.4430 N.am   42  PHE42      -0.1973
     31  CA         0.8690   31.8580  -29.2320 C.3    42  PHE42       0.1639
     32  C          1.0310   30.9460  -30.4450 C.2    42  PHE42       0.2290
     33  O          2.1490   30.6610  -30.8720 O.2    42  PHE42      -0.2864
     34  CB         0.4720   33.2670  -29.6790 C.3    42  PHE42       0.0560
     35  CG        -0.0110   34.1480  -28.5600 C.ar   42  PHE42      -0.0200
     36  CD1        0.8840   34.8840  -27.8010 C.ar   42  PHE42      -0.0042
     37  CD2       -1.3630   34.2420  -28.2710 C.ar   42  PHE42      -0.0042
     38  CE1        0.4400   35.6950  -26.7720 C.ar   42  PHE42      -0.0003
     39  CE2       -1.8130   35.0510  -27.2440 C.ar   42  PHE42      -0.0003
     40  CZ        -0.9110   35.7780  -26.4940 C.ar   42  PHE42      -0.0000
     41  N          3.2220   37.4290  -33.4040 N.3    48  LEU48      -0.1231
     42  CA         3.9950   37.0380  -32.2370 C.3    48  LEU48       0.1693
     43  C          3.1530   37.1280  -30.9720 C.2    48  LEU48       0.2592
     44  O          3.4640   36.4880  -29.9690 O.2    48  LEU48      -0.2718
     45  CB         5.2460   37.9070  -32.0960 C.3    48  LEU48       0.0284
     46  CG         6.3220   37.7790  -33.1750 C.3    48  LEU48       0.0019
     47  CD1        7.4450   38.7730  -32.9210 C.3    48  LEU48       0.0001
     48  CD2        6.8560   36.3570  -33.2290 C.3    48  LEU48       0.0001
     49  N          2.0790   37.9120  -31.0240 N.am   49  PHE49      -0.1976
     50  CA         1.3000   38.1920  -29.8220 C.3    49  PHE49       0.1639
     51  C         -0.2070   38.0050  -29.9990 C.2    49  PHE49       0.2290
     52  O         -1.0020   38.6670  -29.3310 O.2    49  PHE49      -0.2864
     53  CB         1.5950   39.6130  -29.3410 C.3    49  PHE49       0.0560
     54  CG         3.0330   39.8340  -28.9700 C.ar   49  PHE49      -0.0200
     55  CD1        3.5230   39.3980  -27.7490 C.ar   49  PHE49      -0.0042
     56  CD2        3.8990   40.4660  -29.8470 C.ar   49  PHE49      -0.0042
     57  CE1        4.8480   39.5970  -27.4060 C.ar   49  PHE49      -0.0003
     58  CE2        5.2250   40.6670  -29.5100 C.ar   49  PHE49      -0.0003
     59  CZ         5.7000   40.2320  -28.2890 C.ar   49  PHE49      -0.0000
     60  N         -3.0660   29.6920  -26.6990 N.3    54  TYR54      -0.1241
     61  CA        -2.0230   30.2130  -25.8240 C.3    54  TYR54       0.1605
     62  C         -1.6300   29.1540  -24.8020 C.2    54  TYR54       0.2264
     63  O         -2.4820   28.6130  -24.0990 O.2    54  TYR54      -0.2867
     64  CB        -2.4840   31.4890  -25.1200 C.3    54  TYR54       0.0534
     65  CG        -1.4770   32.0520  -24.1440 C.ar   54  TYR54      -0.0201
     66  CD1       -0.2940   32.6250  -24.5910 C.ar   54  TYR54      -0.0009
     67  CD2       -1.7130   32.0170  -22.7760 C.ar   54  TYR54      -0.0009
     68  CE1        0.6290   33.1420  -23.7020 C.ar   54  TYR54       0.0417
     69  CE2       -0.7970   32.5320  -21.8800 C.ar   54  TYR54       0.0417
     70  CZ         0.3730   33.0920  -22.3480 C.ar   54  TYR54       0.1957
     71  OH         1.2880   33.6070  -21.4590 O.3    54  TYR54      -0.2866
     72  N         -2.4910   39.7400  -27.3460 N.3    74  ALA74      -0.1245
     73  CA        -1.6070   40.4020  -26.3950 C.3    74  ALA74       0.1562
     74  C         -1.2240   41.7850  -26.9140 C.2    74  ALA74       0.2260
     75  O         -0.7540   41.9240  -28.0440 O.2    74  ALA74      -0.2867
     76  CB        -0.3660   39.5620  -26.1410 C.3    74  ALA74       0.0290
     77  N          1.0320   43.7960  -25.6300 N.3    76  PHE76      -0.1227
     78  CA         2.4630   44.0290  -25.4350 C.3    76  PHE76       0.1736
     79  C          2.7320   45.4050  -24.8180 C.2    76  PHE76       0.2595
     80  O          1.8630   45.9810  -24.1640 O.2    76  PHE76      -0.2718
     81  CB         3.2140   43.8810  -26.7660 C.3    76  PHE76       0.0547
     82  CG         4.6760   43.5600  -26.6110 C.ar   76  PHE76      -0.0202
     83  CD1        5.1470   42.9440  -25.4630 C.ar   76  PHE76      -0.0042
     84  CD2        5.5800   43.8910  -27.6070 C.ar   76  PHE76      -0.0042
     85  CE1        6.4900   42.6530  -25.3160 C.ar   76  PHE76      -0.0003
     86  CE2        6.9250   43.6040  -27.4660 C.ar   76  PHE76      -0.0003
     87  CZ         7.3800   42.9840  -26.3190 C.ar   76  PHE76      -0.0000
     88  N          3.9400   45.9180  -25.0340 N.am   77  MET77      -0.1966
     89  CA         4.3570   47.2130  -24.5070 C.3    77  MET77       0.1721
     90  C          3.4030   48.3280  -24.9220 C.2    77  MET77       0.2458
     91  O          2.9920   48.3950  -26.0800 O.2    77  MET77      -0.2730
     92  CB         5.7790   47.5370  -24.9750 C.3    77  MET77       0.0427
     93  CG         6.8000   47.6280  -23.8530 C.3    77  MET77       0.0599
     94  SD         8.5040   47.5320  -24.4370 S.3    77  MET77      -0.1393
     95  CE         8.7340   45.7580  -24.5250 C.3    77  MET77       0.0692
     96  N          3.0540   49.2130  -23.9750 N.am   78  PRO78      -0.2716
     97  CA         3.5260   49.1760  -22.5880 C.3    78  PRO78       0.1536
     98  C          2.5330   48.5630  -21.5960 C.2    78  PRO78       0.2598
     99  O          2.9290   48.2240  -20.4810 O.2    78  PRO78      -0.2715
    100  CB         3.7390   50.6540  -22.2740 C.3    78  PRO78       0.0310
    101  CG         2.6360   51.3280  -23.0370 C.3    78  PRO78       0.0237
    102  CD         2.3920   50.4930  -24.2840 C.3    78  PRO78       0.0939
    103  N          1.2710   48.4270  -21.9900 N.am   79  GLN79      -0.1964
    104  CA         0.2260   48.0030  -21.0590 C.3    79  GLN79       0.1733
    105  C          0.1820   46.4900  -20.8500 C.2    79  GLN79       0.2616
    106  O         -0.2000   46.0230  -19.7760 O.2    79  GLN79      -0.2715
    107  CB        -1.1400   48.5020  -21.5370 C.3    79  GLN79       0.0408
    108  CG        -1.2760   50.0180  -21.5310 C.3    79  GLN79       0.0908
    109  CD        -2.6720   50.4850  -21.8950 C.2    79  GLN79       0.2608
    110  OE1       -3.6280   49.7110  -21.8530 O.2    79  GLN79      -0.2717
    111  NE2       -2.7960   51.7580  -22.2510 N.am   79  GLN79      -0.0878
    112  N          0.5710   45.7350  -21.8770 N.am   80  HIS80      -0.1959
    113  CA         0.6080   44.2720  -21.8160 C.3    80  HIS80       0.1787
    114  C         -0.7280   43.6650  -21.3930 C.2    80  HIS80       0.2621
    115  O         -0.7770   42.8090  -20.5090 O.2    80  HIS80      -0.2715
    116  CB         1.7110   43.8030  -20.8610 C.3    80  HIS80       0.0785
    117  CG         3.0890   44.1960  -21.2880 C.ar   80  HIS80       0.0821
    118  ND1        3.7520   45.2830  -20.7590 N.ar   80  HIS80      -0.2267
    119  CD2        3.9350   43.6460  -22.1920 C.ar   80  HIS80       0.1154
    120  CE1        4.9430   45.3860  -21.3180 C.ar   80  HIS80       0.1986
    121  NE2        5.0800   44.4050  -22.1920 N.ar   80  HIS80      -0.2212
    122  N         -1.8070   44.1090  -22.0270 N.am   81  THR81      -0.1937
    123  CA        -3.1400   43.6140  -21.7020 C.3    81  THR81       0.2028
    124  C         -3.4840   42.3620  -22.5020 C.2    81  THR81       0.2642
    125  O         -3.3580   42.3370  -23.7270 O.2    81  THR81      -0.2714
    126  CB        -4.2170   44.6870  -21.9570 C.3    81  THR81       0.1808
    127  OG1       -4.0910   45.7330  -20.9860 O.3    81  THR81      -0.2208
    128  CG2       -5.6110   44.0850  -21.8580 C.3    81  THR81       0.0379
    129  N         -3.9130   41.3220  -21.7960 N.am   82  PHE82      -0.1973
    130  CA        -4.3380   40.0800  -22.4260 C.3    82  PHE82       0.1639
    131  C         -5.8440   40.1090  -22.6540 C.2    82  PHE82       0.2290
    132  O         -6.6240   39.9370  -21.7180 O.2    82  PHE82      -0.2864
    133  CB        -3.9440   38.8850  -21.5600 C.3    82  PHE82       0.0560
    134  CG        -4.0470   37.5610  -22.2610 C.ar   82  PHE82      -0.0200
    135  CD1       -3.5570   37.4010  -23.5460 C.ar   82  PHE82      -0.0042
    136  CD2       -4.6120   36.4690  -21.6240 C.ar   82  PHE82      -0.0042
    137  CE1       -3.6450   36.1800  -24.1900 C.ar   82  PHE82      -0.0003
    138  CE2       -4.7000   35.2450  -22.2600 C.ar   82  PHE82      -0.0003
    139  CZ        -4.2160   35.1010  -23.5460 C.ar   82  PHE82      -0.0000
    140  N         -3.9010   51.8510  -18.5200 N.3   130  MET130     -0.1245
    141  CA        -3.5530   50.4680  -18.2170 C.3   130  MET130      0.1570
    142  C         -4.4410   49.8800  -17.1270 C.2   130  MET130      0.2261
    143  O         -4.9010   48.7450  -17.2390 O.2   130  MET130     -0.2867
    144  CB        -2.0880   50.3660  -17.7940 C.3   130  MET130      0.0387
    145  CG        -1.5320   48.9520  -17.8320 C.3   130  MET130      0.0595
    146  SD        -0.0400   48.7530  -16.8410 S.3   130  MET130     -0.1393
    147  CE        -0.7390   48.6980  -15.1940 C.3   130  MET130      0.0692
    148  N         -6.8130   46.5590  -17.5330 N.3   134  HIS134     -0.1241
    149  CA        -6.5280   45.3640  -16.7490 C.3   134  HIS134      0.1621
    150  C         -7.7230   44.9430  -15.8970 C.2   134  HIS134      0.2264
    151  O         -7.6190   44.0290  -15.0790 O.2   134  HIS134     -0.2867
    152  CB        -5.3020   45.5880  -15.8630 C.3   134  HIS134      0.0745
    153  CG        -4.0050   45.5800  -16.6130 C.ar  134  HIS134      0.0817
    154  ND1       -2.7810   45.6240  -15.9840 N.ar  134  HIS134     -0.2268
    155  CD2       -3.7460   45.5290  -17.9410 C.ar  134  HIS134      0.1154
    156  CE1       -1.8200   45.6020  -16.8920 C.ar  134  HIS134      0.1986
    157  NE2       -2.3790   45.5440  -18.0870 N.ar  134  HIS134     -0.2212
    158  N         -7.9470   39.3390  -18.8840 N.3   139  HIS139     -0.1241
    159  CA        -6.6260   39.7450  -18.4160 C.3   139  HIS139      0.1621
    160  C         -6.4290   39.4820  -16.9290 C.2   139  HIS139      0.2264
    161  O         -5.5150   38.7590  -16.5430 O.2   139  HIS139     -0.2867
    162  CB        -6.3730   41.2260  -18.7000 C.3   139  HIS139      0.0745
    163  CG        -5.0890   41.7330  -18.1170 C.ar  139  HIS139      0.0817
    164  ND1       -3.8920   41.6790  -18.7950 N.ar  139  HIS139     -0.2268
    165  CD2       -4.8150   42.2820  -16.9100 C.ar  139  HIS139      0.1154
    166  CE1       -2.9350   42.1840  -18.0360 C.ar  139  HIS139      0.1986
    167  NE2       -3.4680   42.5560  -16.8860 N.ar  139  HIS139     -0.2212
    168  N         -6.4100   35.6100  -16.0410 N.3   142  VAL142     -0.1231
    169  CA        -5.3000   34.8570  -16.6170 C.3   142  VAL142      0.1692
    170  C         -3.9610   35.3340  -16.0560 C.2   142  VAL142      0.2591
    171  O         -3.1130   34.5230  -15.6810 O.2   142  VAL142     -0.2718
    172  CB        -5.2780   34.9640  -18.1560 C.3   142  VAL142      0.0266
    173  CG1       -4.0060   34.3510  -18.7170 C.3   142  VAL142      0.0020
    174  CG2       -6.5020   34.2850  -18.7500 C.3   142  VAL142      0.0020
    175  N         -3.7810   36.6510  -15.9980 N.am  143  ARG143     -0.1980
    176  CA        -2.5850   37.2430  -15.4030 C.3   143  ARG143      0.1597
    177  C         -2.4540   36.8280  -13.9410 C.2   143  ARG143      0.2287
    178  O         -1.3490   36.6170  -13.4400 O.2   143  ARG143     -0.2864
    179  CB        -2.6240   38.7690  -15.5210 C.3   143  ARG143      0.0334
    180  CG        -1.4850   39.4970  -14.8280 C.3   143  ARG143      0.0492
    181  CD        -0.1440   39.1740  -15.4610 C.3   143  ARG143      0.2205
    182  NE         0.9480   39.8770  -14.7940 N.pl3 143  ARG143     -0.0865
    183  CZ         2.2340   39.7060  -15.0810 C.cat 143  ARG143      0.5346
    184  NH1        2.5960   38.8500  -16.0270 N.pl3 143  ARG143      0.1354
    185  NH2        3.1590   40.3910  -14.4230 N.pl3 143  ARG143      0.1354
    186  N         -1.1060   33.3800  -13.8260 N.3   146  MET146     -0.1245
    187  CA         0.3010   33.4400  -14.2060 C.3   146  MET146      0.1570
    188  C          1.1670   33.8910  -13.0350 C.2   146  MET146      0.2261
    189  O          2.3690   33.6300  -13.0030 O.2   146  MET146     -0.2867
    190  CB         0.4960   34.3770  -15.3980 C.3   146  MET146      0.0387
    191  CG         0.1170   33.7670  -16.7370 C.3   146  MET146      0.0595
    192  SD         0.2500   34.9450  -18.0950 S.3   146  MET146     -0.1393
    193  CE         1.9020   35.5850  -17.8310 C.3   146  MET146      0.0692
@<TRIPOS>BOND
     1    41    42    1
     2    48    46    1
     3    46    47    1
     4    46    45    1
     5    42    45    1
     6    42    43    1
     7    49    43   am
     8    49    50    1
     9    43    44    2
    10    33    32    2
    11    32    31    1
    12    51    50    1
    13    51    52    2
    14    56    58   ar
    15    56    54   ar
    16    50    53    1
    17    34    31    1
    18    34    35    1
    19    58    59   ar
    20    53    54    1
    21    31    30    1
    22    54    55   ar
    23    35    37   ar
    24    35    36   ar
    25    30    26   am
    26    59    57   ar
    27    37    39   ar
    28    75    74    2
    29    36    38   ar
    30    55    57   ar
    31    84    86   ar
    32    84    82   ar
    33    86    87   ar
    34    26    27    2
    35    26    25    1
    36    72    73    1
    37    39    40   ar
    38    28    29    1
    39    28    25    1
    40    74    73    1
    41    38    40   ar
    42    81    82    1
    43    81    78    1
    44    60    61    1
    45    25    24    1
    46    82    83   ar
    47    73    76    1
    48    87    85   ar
    49    91    90    2
    50    61    64    1
    51    61    62    1
    52    77    78    1
    53    83    85   ar
    54    78    79    1
    55    24    22   am
    56    64    65    1
    57    88    79   am
    58    88    89    1
    59    92    89    1
    60    92    93    1
    61    90    89    1
    62    90    96   am
    63    79    80    2
    64    62    63    2
    65    23    22    2
    66    66    65   ar
    67    66    68   ar
    68    95    94    1
    69    94    93    1
    70    22    21    1
    71   102    96    1
    72   102   101    1
    73   137   135   ar
    74   137   139   ar
    75    65    67   ar
    76    96    97    1
    77   125   124    2
    78    68    70   ar
    79   135   134   ar
    80   139   138   ar
    81   101   100    1
    82    21    20    1
    83    67    69   ar
    84   131   130    1
    85   131   132    2
    86    97   100    1
    87    97    98    1
    88   124   129   am
    89   124   123    1
    90   130   129    1
    91   130   133    1
    92    70    69   ar
    93    70    71    1
    94   134   136   ar
    95   134   133    1
    96    12    11    2
    97   138   136   ar
    98   111   109   am
    99   119   121   ar
   100   119   117   ar
   101   121   120   ar
   102    20    11   am
   103   122   123    1
   104   122   114   am
   105   103    98   am
   106   103   104    1
   107   126   128    1
   108   126   123    1
   109   126   127    1
   110   109   110    2
   111   109   108    1
   112   112   113    1
   113   112   105   am
   114   113   114    1
   115   113   116    1
   116    11    10    1
   117    98    99    2
   118   107   108    1
   119   107   104    1
   120   114   115    2
   121    13    10    1
   122    13    14    1
   123   120   118   ar
   124   117   116    1
   125   117   118   ar
   126   104   105    1
   127    15    14    1
   128    15    16    1
   129    10     9    1
   130   105   106    2
   131    16    17    2
   132    17    18    1
   133    17    19    1
   134   158   159    1
   135   164   163   ar
   136   164   166   ar
   137   174   172    1
   138   173   172    1
   139   162   159    1
   140   162   163    1
   141   140   141    1
   142   159   160    1
   143   141   144    1
   144   141   142    1
   145   172   169    1
   146   163   165   ar
   147   192   193    1
   148   192   191    1
   149   157   155   ar
   150   157   156   ar
   151   166   167   ar
   152   155   153   ar
   153   145   144    1
   154   145   146    1
   155   148   149    1
   156   143   142    2
   157   160   161    2
   158   165   167   ar
   159   156   154   ar
   160   146   147    1
   161   149   150    1
   162   149   152    1
   163   191   190    1
   164   169   170    1
   165   169   168    1
   166   153   154   ar
   167   153   152    1
   168   170   175   am
   169   170   171    2
   170   184   183    1
   171   175   176    1
   172   150   151    2
   173   179   176    1
   174   179   180    1
   175   181   180    1
   176   181   182    1
   177   176   177    1
   178   190   187    1
   179   183   182    2
   180   183   185    1
   181   187   186    1
   182   187   188    1
   183   177   178    2
   184     7     6   ar
   185   188   189    2
   186     6     8   ar
   187     6     5    1
   188     1     2    1
   189     2     5    1
   190     2     3    1
   191     3     4    2
