@<TRIPOS>MOLECULE
tmp/4y20A00.pdb
 128 118 0 0 0
SMALL
GASTEIGER

@<TRIPOS>ATOM
      1  N         -5.2100    7.0440  -17.1610 N.3    30  VAL30      -0.1245
      2  CA        -6.6350    7.2510  -16.9290 C.3    30  VAL30       0.1561
      3  C         -7.2800    6.1210  -16.1280 C.2    30  VAL30       0.2260
      4  O         -7.0220    4.9460  -16.3840 O.2    30  VAL30      -0.2867
      5  CB        -7.3950    7.3870  -18.2730 C.3    30  VAL30       0.0252
      6  CG1       -8.8960    7.4590  -18.0470 C.3    30  VAL30       0.0019
      7  CG2       -6.9090    8.6000  -19.0510 C.3    30  VAL30       0.0019
      8  N        -11.2180    5.2160  -15.5260 N.3    32  ASN32      -0.1240
      9  CA       -12.6100    5.5460  -15.8120 C.3    32  ASN32       0.1653
     10  C        -13.5760    4.7330  -14.9650 C.2    32  ASN32       0.2266
     11  O        -13.4940    3.5080  -14.9240 O.2    32  ASN32      -0.2867
     12  CB       -12.9170    5.3300  -17.2940 C.3    32  ASN32       0.1155
     13  CG       -12.2640    6.3680  -18.1810 C.2    32  ASN32       0.2627
     14  OD1      -12.1310    7.5320  -17.8020 O.2    32  ASN32      -0.2716
     15  ND2      -11.8500    5.9490  -19.3710 N.am   32  ASN32      -0.0877
     16  N        -13.9370   10.4290  -14.5180 N.3    42  HIS42      -0.1241
     17  CA       -12.8120   10.2740  -15.4300 C.3    42  HIS42       0.1621
     18  C        -11.5700   10.8360  -14.7420 C.2    42  HIS42       0.2264
     19  O        -11.3670   12.0480  -14.7040 O.2    42  HIS42      -0.2867
     20  CB       -13.0920   10.9930  -16.7550 C.3    42  HIS42       0.0745
     21  CG       -11.8980   11.1260  -17.6520 C.ar   42  HIS42       0.0817
     22  ND1      -11.4330   10.0880  -18.4330 N.ar   42  HIS42      -0.2268
     23  CD2      -11.0960   12.1830  -17.9150 C.ar   42  HIS42       0.1154
     24  CE1      -10.3860   10.4990  -19.1260 C.ar   42  HIS42       0.1986
     25  NE2      -10.1610   11.7660  -18.8320 N.ar   42  HIS42      -0.2212
     26  N         -7.8250   11.4990  -14.5920 N.3    44  ASN44      -0.1240
     27  CA        -6.7450   11.5760  -15.5700 C.3    44  ASN44       0.1653
     28  C         -5.5700   12.4510  -15.1370 C.2    44  ASN44       0.2266
     29  O         -5.5130   13.6330  -15.4790 O.2    44  ASN44      -0.2867
     30  CB        -7.3080   12.0820  -16.9070 C.3    44  ASN44       0.1155
     31  CG        -6.2510   12.1880  -17.9970 C.2    44  ASN44       0.2627
     32  OD1       -6.3280   13.0570  -18.8640 O.2    44  ASN44      -0.2716
     33  ND2       -5.2610   11.3040  -17.9560 N.am   44  ASN44      -0.0877
     34  N         -2.1560   13.9910  -15.6310 N.3    46  ARG46      -0.1245
     35  CA        -1.3730   14.3030  -16.8200 C.3    46  ARG46       0.1563
     36  C          0.0150   14.8170  -16.4530 C.2    46  ARG46       0.2260
     37  O          0.1570   15.9120  -15.9110 O.2    46  ARG46      -0.2867
     38  CB        -2.1030   15.3320  -17.6870 C.3    46  ARG46       0.0307
     39  CG        -3.4650   14.8650  -18.1810 C.3    46  ARG46       0.0489
     40  CD        -4.1700   15.9310  -19.0080 C.3    46  ARG46       0.2205
     41  NE        -5.5030   15.4930  -19.4110 N.pl3  46  ARG46      -0.0865
     42  CZ        -6.3630   16.2330  -20.1040 C.cat  46  ARG46       0.5346
     43  NH1       -6.0360   17.4610  -20.4810 N.pl3  46  ARG46       0.1354
     44  NH2       -7.5530   15.7430  -20.4220 N.pl3  46  ARG46       0.1354
     45  N         -1.7000   17.0060  -23.6430 N.3    50  HIS50      -0.1241
     46  CA        -2.7630   17.9310  -24.0370 C.3    50  HIS50       0.1621
     47  C         -2.5250   19.3580  -23.5490 C.2    50  HIS50       0.2264
     48  O         -3.4660   20.1420  -23.4310 O.2    50  HIS50      -0.2867
     49  CB        -4.1200   17.4330  -23.5300 C.3    50  HIS50       0.0745
     50  CG        -4.3790   15.9860  -23.8210 C.ar   50  HIS50       0.0817
     51  ND1       -4.8610   15.5470  -25.0330 N.ar   50  HIS50      -0.2268
     52  CD2       -4.2200   14.8830  -23.0530 C.ar   50  HIS50       0.1154
     53  CE1       -4.9890   14.2290  -25.0010 C.ar   50  HIS50       0.1986
     54  NE2       -4.6070   13.8040  -23.8120 N.ar   50  HIS50      -0.2212
     55  N         -1.3060   20.1200  -20.6130 N.3    52  ASP52      -0.1239
     56  CA        -1.2170   20.0740  -19.1570 C.3    52  ASP52       0.1674
     57  C          0.0730   19.4050  -18.6980 C.2    52  ASP52       0.2266
     58  O          0.4730   18.3690  -19.2330 O.2    52  ASP52      -0.2867
     59  CB        -2.4160   19.3310  -18.5610 C.3    52  ASP52       0.1410
     60  CG        -3.6900   20.1460  -18.6040 C.2    52  ASP52       0.3668
     61  OD1       -3.7860   21.1380  -17.8510 O.co2  52  ASP52      -0.2456
     62  OD2       -4.5970   19.7880  -19.3850 O.co2  52  ASP52      -0.2456
     63  N         -6.5960   16.0030  -14.1860 N.3    57  VAL57      -0.1245
     64  CA        -7.8280   16.4160  -14.8390 C.3    57  VAL57       0.1561
     65  C         -8.9350   15.4030  -14.5780 C.2    57  VAL57       0.2260
     66  O         -8.8230   14.2330  -14.9490 O.2    57  VAL57      -0.2867
     67  CB        -7.6430   16.5780  -16.3660 C.3    57  VAL57       0.0252
     68  CG1       -8.9630   16.9680  -17.0310 C.3    57  VAL57       0.0019
     69  CG2       -6.5560   17.5970  -16.6700 C.3    57  VAL57       0.0019
     70  N        -13.2290   14.6660  -15.0130 N.3    58  ASN58      -0.1240
     71  CA       -14.4310   15.0280  -15.7440 C.3    58  ASN58       0.1653
     72  C        -15.4540   13.9140  -15.6310 C.2    58  ASN58       0.2266
     73  O        -15.1740   12.8610  -15.0570 O.2    58  ASN58      -0.2867
     74  CB       -14.1150   15.3160  -17.2160 C.3    58  ASN58       0.1155
     75  CG       -15.1560   16.2070  -17.8670 C.2    58  ASN58       0.2627
     76  OD1      -16.2450   16.3940  -17.3230 O.2    58  ASN58      -0.2716
     77  ND2      -14.8290   16.7640  -19.0330 N.am   58  ASN58      -0.0877
     78  N        -18.6690   11.8050  -18.0150 N.3    60  LYS60      -0.1245
     79  CA       -19.2730   11.5920  -19.3220 C.3    60  LYS60       0.1561
     80  C        -20.7050   11.1030  -19.1370 C.2    60  LYS60       0.2260
     81  O        -20.9520   10.1370  -18.4170 O.2    60  LYS60      -0.2867
     82  CB       -18.4570   10.6000  -20.1550 C.3    60  LYS60       0.0271
     83  CG       -19.0900   10.2680  -21.4970 C.3    60  LYS60       0.0035
     84  CD       -18.1290   10.4940  -22.6500 C.3    60  LYS60       0.0206
     85  CE       -16.9650    9.5280  -22.6080 C.3    60  LYS60       0.1093
     86  NZ       -16.0550    9.7320  -23.7650 N.3    60  LYS60      -0.1314
     87  N        -19.0470   14.5090  -22.8160 N.3    65  TRP65      -0.1241
     88  CA       -18.1630   14.9740  -21.7530 C.3    65  TRP65       0.1605
     89  C        -18.7800   16.1510  -21.0080 C.2    65  TRP65       0.2264
     90  O        -19.5130   16.9500  -21.5900 O.2    65  TRP65      -0.2867
     91  CB       -16.8010   15.3930  -22.3140 C.3    65  TRP65       0.0550
     92  CG       -15.9220   14.2670  -22.7640 C.ar   65  TRP65       0.0003
     93  CD1      -15.5900   13.9490  -24.0500 C.ar   65  TRP65       0.0946
     94  CD2      -15.2430   13.3210  -21.9310 C.ar   65  TRP65       0.0152
     95  NE1      -14.7520   12.8600  -24.0680 N.ar   65  TRP65      -0.2442
     96  CE2      -14.5240   12.4550  -22.7780 C.ar   65  TRP65       0.0810
     97  CE3      -15.1770   13.1190  -20.5470 C.ar   65  TRP65       0.0012
     98  CZ2      -13.7500   11.4050  -22.2900 C.ar   65  TRP65       0.0191
     99  CZ3      -14.4080   12.0750  -20.0650 C.ar   65  TRP65       0.0001
    100  CH2      -13.7050   11.2320  -20.9340 C.ar   65  TRP65       0.0015
    101  N        -14.4940   20.0050  -17.2620 N.3    68  GLU68      -0.1245
    102  CA       -13.2910   19.5310  -16.5880 C.3    68  GLU68       0.1567
    103  C        -13.0300   20.2600  -15.2750 C.2    68  GLU68       0.2260
    104  O        -13.2140   21.4750  -15.1730 O.2    68  GLU68      -0.2867
    105  CB       -12.0740   19.6820  -17.4990 C.3    68  GLU68       0.0388
    106  CG       -12.1310   18.8410  -18.7560 C.3    68  GLU68       0.1160
    107  CD       -10.9290   19.0570  -19.6510 C.2    68  GLU68       0.3649
    108  OE1      -10.1510   20.0000  -19.3890 O.co2  68  GLU68      -0.2457
    109  OE2      -10.7650   18.2870  -20.6170 O.co2  68  GLU68      -0.2457
    110  N         -9.8860   20.7960  -12.5090 N.3    70  ARG70      -0.1245
    111  CA        -8.4350   20.6540  -12.4160 C.3    70  ARG70       0.1563
    112  C         -7.9050   20.8340  -10.9980 C.2    70  ARG70       0.2260
    113  O         -8.4220   21.6350  -10.2190 O.2    70  ARG70      -0.2867
    114  CB        -7.7450   21.6430  -13.3580 C.3    70  ARG70       0.0307
    115  CG        -7.5620   21.1060  -14.7660 C.3    70  ARG70       0.0489
    116  CD        -7.1050   22.1880  -15.7360 C.3    70  ARG70       0.2205
    117  NE        -6.7100   21.6220  -17.0220 N.pl3  70  ARG70      -0.0865
    118  CZ        -7.5680   21.2170  -17.9540 C.cat  70  ARG70       0.5346
    119  NH1       -8.8730   21.3150  -17.7430 N.pl3  70  ARG70       0.1354
    120  NH2       -7.1220   20.7110  -19.0950 N.pl3  70  ARG70       0.1354
    121  N         -6.5470    3.1540  -18.7780 N.3   119  ASP119     -0.1239
    122  CA        -6.0260    3.5510  -20.0780 C.3   119  ASP119      0.1674
    123  C         -4.7880    4.4120  -19.8810 C.2   119  ASP119      0.2266
    124  O         -4.5340    4.9070  -18.7840 O.2   119  ASP119     -0.2867
    125  CB        -7.0840    4.3040  -20.8860 C.3   119  ASP119      0.1410
    126  CG        -6.7450    4.3800  -22.3640 C.2   119  ASP119      0.3668
    127  OD1       -5.9380    3.5520  -22.8430 O.co2 119  ASP119     -0.2456
    128  OD2       -7.2860    5.2730  -23.0470 O.co2 119  ASP119     -0.2456
@<TRIPOS>BOND
     1    51    53   ar
     2    51    50   ar
     3    53    54   ar
     4    95    93   ar
     5    95    96   ar
     6    93    92   ar
     7    46    45    1
     8    46    47    1
     9    46    49    1
    10    50    49    1
    11    50    52   ar
    12    54    52   ar
    13    86    85    1
    14    47    48    2
    15   128   126   ar
    16   127   126   ar
    17    87    88    1
    18    96    98   ar
    19    96    94   ar
    20    92    91    1
    21    92    94   ar
    22    84    85    1
    23    84    83    1
    24   126   125    1
    25    91    88    1
    26    98   100   ar
    27    94    97   ar
    28    88    89    1
    29    90    89    2
    30    83    82    1
    31   100    99   ar
    32   125   122    1
    33   109   107   ar
    34    55    56    1
    35    97    99   ar
    36    43    42    1
    37    44    42    1
    38    82    79    1
    39    42    41    2
    40   122   123    1
    41   122   121    1
    42   123   124    2
    43   107   108   ar
    44   107   106    1
    45    41    40    1
    46    62    60   ar
    47    15    13   am
    48    79    80    1
    49    79    78    1
    50    58    57    2
    51    56    57    1
    52    56    59    1
    53    80    81    2
    54    24    25   ar
    55    24    22   ar
    56   120   118    1
    57     7     5    1
    58    77    75   am
    59    40    39    1
    60    32    31    2
    61    25    23   ar
    62   106   105    1
    63    60    59    1
    64    60    61   ar
    65    22    21   ar
    66     5     6    1
    67     5     2    1
    68    13    14    2
    69    13    12    1
    70    39    38    1
    71    31    33   am
    72    31    30    1
    73   118   119    1
    74   118   117    2
    75    23    21   ar
    76    75    76    2
    77    75    74    1
    78    38    35    1
    79    21    20    1
    80   105   102    1
    81    12     9    1
    82   101   102    1
    83    74    71    1
    84     1     2    1
    85    68    67    1
    86   117   116    1
    87     2     3    1
    88    30    27    1
    89    35    36    1
    90    35    34    1
    91    20    17    1
    92    69    67    1
    93   102   103    1
    94    36    37    2
    95     4     3    2
    96    67    64    1
    97     9     8    1
    98     9    10    1
    99    71    72    1
   100    71    70    1
   101   116   115    1
   102    72    73    2
   103    27    28    1
   104    27    26    1
   105    29    28    2
   106    17    18    1
   107    17    16    1
   108   103   104    2
   109    10    11    2
   110    66    65    2
   111    64    65    1
   112    64    63    1
   113   115   114    1
   114    18    19    2
   115   114   111    1
   116   110   111    1
   117   111   112    1
   118   112   113    2
