@<TRIPOS>MOLECULE
tmp/4y22B00.pdb
 100 93 0 0 0
SMALL
GASTEIGER

@<TRIPOS>ATOM
      1  N          6.6760  -36.0570  -17.0640 N.3    29  VAL29      -0.1245
      2  CA         8.0260  -36.3590  -16.6100 C.3    29  VAL29       0.1561
      3  C          8.6780  -35.1670  -15.9120 C.2    29  VAL29       0.2260
      4  O          8.3730  -34.0100  -16.1980 O.2    29  VAL29      -0.2867
      5  CB         8.9310  -36.8410  -17.7880 C.3    29  VAL29       0.0252
      6  CG1        8.0970  -37.1710  -19.0170 C.3    29  VAL29       0.0019
      7  CG2       10.0020  -35.8110  -18.1320 C.3    29  VAL29       0.0019
      8  N         12.6110  -34.1450  -15.3090 N.3    31  ASN31      -0.1240
      9  CA        13.9990  -34.4830  -15.5770 C.3    31  ASN31       0.1653
     10  C         14.9530  -33.6290  -14.7540 C.2    31  ASN31       0.2266
     11  O         14.7930  -32.4140  -14.6640 O.2    31  ASN31      -0.2867
     12  CB        14.3030  -34.3390  -17.0700 C.3    31  ASN31       0.1155
     13  CG        13.5450  -35.3480  -17.9170 C.2    31  ASN31       0.2627
     14  OD1       13.2120  -36.4370  -17.4520 O.2    31  ASN31      -0.2716
     15  ND2       13.2730  -34.9910  -19.1680 N.am   31  ASN31      -0.0877
     16  N         15.3370  -39.3040  -14.3470 N.3    42  HIS42      -0.1241
     17  CA        14.2020  -39.1740  -15.2470 C.3    42  HIS42       0.1621
     18  C         12.9740  -39.7450  -14.5550 C.2    42  HIS42       0.2264
     19  O         12.7630  -40.9540  -14.5430 O.2    42  HIS42      -0.2867
     20  CB        14.4620  -39.8970  -16.5700 C.3    42  HIS42       0.0745
     21  CG        13.2610  -39.9890  -17.4560 C.ar   42  HIS42       0.0817
     22  ND1       12.7460  -38.8980  -18.1350 N.ar   42  HIS42      -0.2268
     23  CD2       12.4650  -41.0340  -17.7790 C.ar   42  HIS42       0.1154
     24  CE1       11.6960  -39.2730  -18.8320 C.ar   42  HIS42       0.1986
     25  NE2       11.4990  -40.5670  -18.6360 N.ar   42  HIS42      -0.2212
     26  N          9.2930  -40.3850  -14.5000 N.3    44  ASN44      -0.1240
     27  CA         8.1860  -40.4210  -15.4530 C.3    44  ASN44       0.1653
     28  C          7.0350  -41.3310  -15.0350 C.2    44  ASN44       0.2266
     29  O          7.0000  -42.5050  -15.4030 O.2    44  ASN44      -0.2867
     30  CB         8.7020  -40.8450  -16.8330 C.3    44  ASN44       0.1155
     31  CG         7.6060  -40.8890  -17.8800 C.2    44  ASN44       0.2627
     32  OD1        7.5960  -41.7580  -18.7510 O.2    44  ASN44      -0.2716
     33  ND2        6.6650  -39.9540  -17.7920 N.am   44  ASN44      -0.0877
     34  N          3.6630  -42.9290  -15.5260 N.3    46  ARG46      -0.1245
     35  CA         2.8810  -43.2440  -16.7160 C.3    46  ARG46       0.1563
     36  C          1.4930  -43.7620  -16.3550 C.2    46  ARG46       0.2260
     37  O          1.3480  -44.8920  -15.8860 O.2    46  ARG46      -0.2867
     38  CB         3.6180  -44.2700  -17.5770 C.3    46  ARG46       0.0307
     39  CG         4.9810  -43.7960  -18.0360 C.3    46  ARG46       0.0489
     40  CD         5.7330  -44.8780  -18.7830 C.3    46  ARG46       0.2205
     41  NE         7.0170  -44.3830  -19.2650 N.pl3  46  ARG46      -0.0865
     42  CZ         7.9240  -45.1310  -19.8780 C.cat  46  ARG46       0.5346
     43  NH1        7.6900  -46.4180  -20.0870 N.pl3  46  ARG46       0.1354
     44  NH2        9.0670  -44.5930  -20.2820 N.pl3  46  ARG46       0.1354
     45  N          3.2400  -45.8640  -23.4460 N.3    50  HIS50      -0.1241
     46  CA         4.3170  -46.7950  -23.7890 C.3    50  HIS50       0.1621
     47  C          4.0810  -48.2020  -23.2410 C.2    50  HIS50       0.2264
     48  O          5.0310  -48.9140  -22.9110 O.2    50  HIS50      -0.2867
     49  CB         5.6600  -46.2600  -23.2830 C.3    50  HIS50       0.0745
     50  CG         5.9060  -44.8280  -23.6300 C.ar   50  HIS50       0.0817
     51  ND1        6.3240  -44.4210  -24.8800 N.ar   50  HIS50      -0.2268
     52  CD2        5.7930  -43.6940  -22.8890 C.ar   50  HIS50       0.1154
     53  CE1        6.4540  -43.1070  -24.8950 C.ar   50  HIS50       0.1986
     54  NE2        6.1390  -42.6440  -23.7000 N.ar   50  HIS50      -0.2212
     55  N          8.0850  -44.8420  -13.9530 N.3    57  VAL57      -0.1245
     56  CA         9.2920  -45.2950  -14.6230 C.3    57  VAL57       0.1561
     57  C         10.4310  -44.3170  -14.3880 C.2    57  VAL57       0.2260
     58  O         10.3850  -43.1720  -14.8330 O.2    57  VAL57      -0.2867
     59  CB         9.0670  -45.4720  -16.1380 C.3    57  VAL57       0.0252
     60  CG1       10.3790  -45.7930  -16.8380 C.3    57  VAL57       0.0019
     61  CG2        8.0340  -46.5600  -16.3950 C.3    57  VAL57       0.0019
     62  N         14.5760  -43.5040  -14.7790 N.3    59  ASN59      -0.1240
     63  CA        15.7260  -43.8590  -15.5890 C.3    59  ASN59       0.1653
     64  C         16.8090  -42.8030  -15.4630 C.2    59  ASN59       0.2266
     65  O         16.6320  -41.8020  -14.7750 O.2    59  ASN59      -0.2867
     66  CB        15.3210  -44.0350  -17.0550 C.3    59  ASN59       0.1155
     67  CG        16.2660  -44.9440  -17.8130 C.2    59  ASN59       0.2627
     68  OD1       17.3790  -45.2100  -17.3640 O.2    59  ASN59      -0.2716
     69  ND2       15.8260  -45.4260  -18.9690 N.am   59  ASN59      -0.0877
     70  N         20.2290  -43.3730  -22.7340 N.3    66  TRP66      -0.1241
     71  CA        19.3990  -43.8310  -21.6250 C.3    66  TRP66       0.1605
     72  C         20.0190  -45.0170  -20.8990 C.2    66  TRP66       0.2264
     73  O         20.5930  -45.9090  -21.5240 O.2    66  TRP66      -0.2867
     74  CB        18.0040  -44.2200  -22.1160 C.3    66  TRP66       0.0550
     75  CG        17.1530  -43.0670  -22.5260 C.ar   66  TRP66       0.0003
     76  CD1       16.8380  -42.6960  -23.7980 C.ar   66  TRP66       0.0946
     77  CD2       16.5000  -42.1350  -21.6600 C.ar   66  TRP66       0.0152
     78  NE1       16.0290  -41.5870  -23.7810 N.ar   66  TRP66      -0.2442
     79  CE2       15.8060  -41.2200  -22.4780 C.ar   66  TRP66       0.0810
     80  CE3       16.4340  -41.9780  -20.2710 C.ar   66  TRP66       0.0012
     81  CZ2       15.0570  -40.1690  -21.9570 C.ar   66  TRP66       0.0191
     82  CZ3       15.6890  -40.9330  -19.7550 C.ar   66  TRP66       0.0001
     83  CH2       15.0110  -40.0430  -20.5950 C.ar   66  TRP66       0.0015
     84  N         15.8600  -48.7010  -17.2010 N.3    69  GLU69      -0.1245
     85  CA        14.6490  -48.2760  -16.5070 C.3    69  GLU69       0.1567
     86  C         14.4370  -49.0130  -15.1900 C.2    69  GLU69       0.2260
     87  O         14.6100  -50.2310  -15.1120 O.2    69  GLU69      -0.2867
     88  CB        13.4240  -48.4840  -17.3950 C.3    69  GLU69       0.0388
     89  CG        13.4150  -47.6500  -18.6510 C.3    69  GLU69       0.1160
     90  CD        12.1640  -47.8650  -19.4720 C.2    69  GLU69       0.3649
     91  OE1       11.5220  -48.9250  -19.3110 O.co2  69  GLU69      -0.2457
     92  OE2       11.8170  -46.9690  -20.2700 O.co2  69  GLU69      -0.2457
     93  N          8.7300  -32.2450  -19.3250 N.3   121  ASP121     -0.1239
     94  CA         8.2000  -32.5820  -20.6430 C.3   121  ASP121      0.1674
     95  C          6.9810  -33.4980  -20.5810 C.2   121  ASP121      0.2266
     96  O          7.0390  -34.6240  -21.0720 O.2   121  ASP121     -0.2867
     97  CB         9.2860  -33.2540  -21.4860 C.3   121  ASP121      0.1410
     98  CG        10.5010  -32.3560  -21.7070 C.2   121  ASP121      0.3668
     99  OD1       10.6760  -31.8780  -22.8600 O.co2 121  ASP121     -0.2456
    100  OD2       11.2520  -32.1140  -20.7260 O.co2 121  ASP121     -0.2456
@<TRIPOS>BOND
     1    53    51   ar
     2    53    54   ar
     3    51    50   ar
     4    76    78   ar
     5    76    75   ar
     6    46    45    1
     7    46    49    1
     8    46    47    1
     9    78    79   ar
    10    54    52   ar
    11    50    49    1
    12    50    52   ar
    13    47    48    2
    14    99    98   ar
    15    70    71    1
    16    75    74    1
    17    75    77   ar
    18    79    81   ar
    19    79    77   ar
    20    74    71    1
    21    81    83   ar
    22    98    97    1
    23    98   100   ar
    24    77    80   ar
    25    71    72    1
    26    73    72    2
    27    97    94    1
    28    96    95    2
    29    94    95    1
    30    94    93    1
    31    83    82   ar
    32    44    42    1
    33    80    82   ar
    34    92    90   ar
    35    43    42    1
    36    42    41    2
    37    90    91   ar
    38    90    89    1
    39    41    40    1
    40    15    13   am
    41     6     5    1
    42    69    67   am
    43    24    25   ar
    44    24    22   ar
    45    40    39    1
    46    32    31    2
    47    89    88    1
    48    25    23   ar
    49    22    21   ar
    50     7     5    1
    51    39    38    1
    52    13    14    2
    53    13    12    1
    54    31    33   am
    55    31    30    1
    56    67    68    2
    57    67    66    1
    58     5     2    1
    59    23    21   ar
    60    38    35    1
    61    21    20    1
    62    88    85    1
    63    84    85    1
    64    12     9    1
    65     1     2    1
    66    66    63    1
    67    60    59    1
    68    30    27    1
    69    35    36    1
    70    35    34    1
    71     2     3    1
    72    20    17    1
    73    85    86    1
    74    61    59    1
    75    36    37    2
    76     4     3    2
    77    59    56    1
    78    63    64    1
    79    63    62    1
    80     9     8    1
    81     9    10    1
    82    64    65    2
    83    27    28    1
    84    27    26    1
    85    29    28    2
    86    17    18    1
    87    17    16    1
    88    86    87    2
    89    58    57    2
    90    10    11    2
    91    56    57    1
    92    56    55    1
    93    18    19    2
