@<TRIPOS>MOLECULE
tmp/4y24B00.pdb
 144 137 0 0 0
SMALL
GASTEIGER

@<TRIPOS>ATOM
      1  N         -0.1150  -39.3040  -19.2440 N.3    28  SER28      -0.1202
      2  CA         1.0810  -39.3970  -18.4270 C.3    28  SER28       0.2020
      3  C          1.7230  -38.0250  -18.3460 C.2    28  SER28       0.2619
      4  O          1.4030  -37.1370  -19.1360 O.2    28  SER28      -0.2717
      5  CB         2.0690  -40.4110  -19.0090 C.3    28  SER28       0.2103
      6  OG         2.5420  -39.9860  -20.2760 O.3    28  SER28      -0.2182
      7  N          2.6220  -37.8450  -17.3880 N.am   29  PHE29      -0.1961
      8  CA         3.4120  -36.6260  -17.3440 C.3    29  PHE29       0.1771
      9  C          4.8260  -36.9380  -16.8880 C.2    29  PHE29       0.2619
     10  O          5.0980  -38.0240  -16.3760 O.2    29  PHE29      -0.2715
     11  CB         2.7570  -35.5800  -16.4400 C.3    29  PHE29       0.0574
     12  CG         2.8160  -35.9000  -14.9720 C.ar   29  PHE29      -0.0200
     13  CD1        3.8560  -35.4270  -14.1860 C.ar   29  PHE29      -0.0042
     14  CD2        1.8150  -36.6440  -14.3700 C.ar   29  PHE29      -0.0042
     15  CE1        3.9060  -35.7080  -12.8320 C.ar   29  PHE29      -0.0003
     16  CE2        1.8600  -36.9270  -13.0160 C.ar   29  PHE29      -0.0003
     17  CZ         2.9060  -36.4570  -12.2470 C.ar   29  PHE29      -0.0000
     18  N          5.7270  -35.9830  -17.0860 N.am   30  VAL30      -0.1977
     19  CA         7.1440  -36.2250  -16.8650 C.3    30  VAL30       0.1596
     20  C          7.8210  -35.1020  -16.0910 C.2    30  VAL30       0.2287
     21  O          7.6810  -33.9270  -16.4280 O.2    30  VAL30      -0.2864
     22  CB         7.8800  -36.4220  -18.2080 C.3    30  VAL30       0.0276
     23  CG1        9.3730  -36.2120  -18.0440 C.3    30  VAL30       0.0022
     24  CG2        7.5960  -37.8000  -18.7680 C.3    30  VAL30       0.0022
     25  N         11.6790  -34.2020  -15.2790 N.3    32  ASN32      -0.1240
     26  CA        13.0670  -34.5350  -15.5730 C.3    32  ASN32       0.1653
     27  C         14.0450  -33.7360  -14.7210 C.2    32  ASN32       0.2266
     28  O         13.9240  -32.5180  -14.6000 O.2    32  ASN32      -0.2867
     29  CB        13.3640  -34.3100  -17.0550 C.3    32  ASN32       0.1155
     30  CG        12.7040  -35.3450  -17.9400 C.2    32  ASN32       0.2627
     31  OD1       12.5410  -36.5000  -17.5450 O.2    32  ASN32      -0.2716
     32  ND2       12.3200  -34.9380  -19.1460 N.am   32  ASN32      -0.0877
     33  N         14.3030  -39.4660  -14.4150 N.3    43  HIS43      -0.1241
     34  CA        13.1820  -39.2990  -15.3240 C.3    43  HIS43       0.1621
     35  C         11.9290  -39.8540  -14.6510 C.2    43  HIS43       0.2264
     36  O         11.6780  -41.0570  -14.6850 O.2    43  HIS43      -0.2867
     37  CB        13.4480  -40.0080  -16.6540 C.3    43  HIS43       0.0745
     38  CG        12.2740  -40.0350  -17.5760 C.ar   43  HIS43       0.0817
     39  ND1       11.8520  -38.9230  -18.2840 N.ar   43  HIS43      -0.2268
     40  CD2       11.4260  -41.0320  -17.9190 C.ar   43  HIS43       0.1154
     41  CE1       10.8030  -39.2400  -19.0140 C.ar   43  HIS43       0.1986
     42  NE2       10.5210  -40.5170  -18.8100 N.ar   43  HIS43      -0.2212
     43  N          8.1620  -40.4550  -14.4870 N.3    45  ASN45      -0.1240
     44  CA         7.0730  -40.5130  -15.4580 C.3    45  ASN45       0.1653
     45  C          5.9080  -41.4030  -15.0250 C.2    45  ASN45       0.2266
     46  O          5.8600  -42.5850  -15.3710 O.2    45  ASN45      -0.2867
     47  CB         7.6190  -40.9820  -16.8110 C.3    45  ASN45       0.1155
     48  CG         6.5370  -41.1190  -17.8700 C.2    45  ASN45       0.2627
     49  OD1        6.5610  -42.0460  -18.6770 O.2    45  ASN45      -0.2716
     50  ND2        5.5770  -40.2010  -17.8640 N.am   45  ASN45      -0.0877
     51  N          2.4490  -42.9460  -15.4210 N.3    47  ARG47      -0.1245
     52  CA         1.6400  -43.2350  -16.5970 C.3    47  ARG47       0.1563
     53  C          0.2470  -43.7240  -16.2190 C.2    47  ARG47       0.2260
     54  O          0.0880  -44.8400  -15.7200 O.2    47  ARG47      -0.2867
     55  CB         2.3370  -44.2730  -17.4770 C.3    47  ARG47       0.0307
     56  CG         3.7350  -43.8650  -17.9060 C.3    47  ARG47       0.0489
     57  CD         4.3960  -44.9260  -18.7710 C.3    47  ARG47       0.2205
     58  NE         5.7350  -44.5140  -19.1830 N.pl3  47  ARG47      -0.0865
     59  CZ         6.5570  -45.2540  -19.9180 C.cat  47  ARG47       0.5346
     60  NH1        6.1830  -46.4580  -20.3280 N.pl3  47  ARG47       0.1354
     61  NH2        7.7580  -44.7900  -20.2410 N.pl3  47  ARG47       0.1354
     62  N          1.8160  -45.9360  -23.4890 N.3    51  HIS51      -0.1226
     63  CA         2.7400  -46.9720  -23.9440 C.3    51  HIS51       0.1752
     64  C          2.4200  -48.3390  -23.3430 C.2    51  HIS51       0.2597
     65  O          3.3190  -49.1530  -23.1300 O.2    51  HIS51      -0.2718
     66  CB         4.1840  -46.5770  -23.6160 C.3    51  HIS51       0.0759
     67  CG         4.5220  -45.1760  -23.9930 C.ar   51  HIS51       0.0818
     68  ND1        5.0610  -44.8410  -25.2340 N.ar   51  HIS51      -0.2268
     69  CD2        4.4140  -44.0070  -23.3270 C.ar   51  HIS51       0.1154
     70  CE1        5.2550  -43.5480  -25.2930 C.ar   51  HIS51       0.1986
     71  NE2        4.8690  -43.0060  -24.1400 N.ar   51  HIS51      -0.2212
     72  N          1.1430  -48.5870  -23.0670 N.am   52  GLY52      -0.1942
     73  CA         0.7110  -49.8820  -22.5700 C.3    52  GLY52       0.2014
     74  C          0.5940  -49.9740  -21.0600 C.2    52  GLY52       0.2638
     75  O         -0.0300  -50.8970  -20.5360 O.2    52  GLY52      -0.2714
     76  N          1.1980  -49.0210  -20.3580 N.am   53  ASP53      -0.1971
     77  CA         1.1550  -49.0000  -18.9000 C.3    53  ASP53       0.1709
     78  C         -0.1220  -48.3460  -18.3890 C.2    53  ASP53       0.2293
     79  O         -0.5780  -47.3470  -18.9370 O.2    53  ASP53      -0.2864
     80  CB         2.3740  -48.2670  -18.3380 C.3    53  ASP53       0.1436
     81  CG         3.6630  -49.0300  -18.5540 C.2    53  ASP53       0.3671
     82  OD1        4.6590  -48.4080  -18.9810 O.co2  53  ASP53      -0.2456
     83  OD2        3.6830  -50.2510  -18.2930 O.co2  53  ASP53      -0.2456
     84  N          6.8360  -44.8740  -14.0130 N.3    58  VAL58      -0.1245
     85  CA         8.0380  -45.3560  -14.6760 C.3    58  VAL58       0.1561
     86  C          9.1910  -44.3910  -14.4480 C.2    58  VAL58       0.2260
     87  O          9.1150  -43.2160  -14.8080 O.2    58  VAL58      -0.2867
     88  CB         7.8190  -45.5480  -16.1890 C.3    58  VAL58       0.0252
     89  CG1        9.1160  -45.9670  -16.8630 C.3    58  VAL58       0.0019
     90  CG2        6.7270  -46.5770  -16.4400 C.3    58  VAL58       0.0019
     91  N         13.4900  -43.6770  -14.8220 N.3    60  ASN60      -0.1240
     92  CA        14.6630  -44.0260  -15.6040 C.3    60  ASN60       0.1653
     93  C         15.7180  -42.9340  -15.5120 C.2    60  ASN60       0.2266
     94  O         15.4880  -41.8840  -14.9140 O.2    60  ASN60      -0.2867
     95  CB        14.2840  -44.2670  -17.0680 C.3    60  ASN60       0.1155
     96  CG        15.2700  -45.1700  -17.7830 C.2    60  ASN60       0.2627
     97  OD1       16.4040  -45.3420  -17.3360 O.2    60  ASN60      -0.2716
     98  ND2       14.8420  -45.7520  -18.8980 N.am   60  ASN60      -0.0877
     99  N         19.3210  -43.5390  -22.6860 N.3    67  TRP67      -0.1241
    100  CA        18.4180  -43.9930  -21.6340 C.3    67  TRP67       0.1605
    101  C         19.0100  -45.1640  -20.8560 C.2    67  TRP67       0.2264
    102  O         19.7080  -46.0070  -21.4190 O.2    67  TRP67      -0.2867
    103  CB        17.0650  -44.4030  -22.2190 C.3    67  TRP67       0.0550
    104  CG        16.2220  -43.2630  -22.6920 C.ar   67  TRP67       0.0003
    105  CD1       15.9750  -42.9060  -23.9880 C.ar   67  TRP67       0.0946
    106  CD2       15.4980  -42.3260  -21.8820 C.ar   67  TRP67       0.0152
    107  NE1       15.1490  -41.8090  -24.0310 N.ar   67  TRP67      -0.2442
    108  CE2       14.8430  -41.4360  -22.7450 C.ar   67  TRP67       0.0810
    109  CE3       15.3510  -42.1640  -20.4970 C.ar   67  TRP67       0.0012
    110  CZ2       14.0480  -40.3880  -22.2830 C.ar   67  TRP67       0.0191
    111  CZ3       14.5590  -41.1210  -20.0390 C.ar   67  TRP67       0.0001
    112  CH2       13.9200  -40.2490  -20.9270 C.ar   67  TRP67       0.0015
    113  N         14.6820  -49.0260  -17.2590 N.3    70  GLU70      -0.1245
    114  CA        13.4520  -48.5850  -16.6090 C.3    70  GLU70       0.1567
    115  C         13.2050  -49.2930  -15.2810 C.2    70  GLU70       0.2260
    116  O         13.4130  -50.5000  -15.1560 O.2    70  GLU70      -0.2867
    117  CB        12.2500  -48.8040  -17.5300 C.3    70  GLU70       0.0388
    118  CG        12.1990  -47.8670  -18.7210 C.3    70  GLU70       0.1160
    119  CD        10.9460  -48.0520  -19.5510 C.2    70  GLU70       0.3649
    120  OE1       10.6780  -47.1980  -20.4230 O.co2  70  GLU70      -0.2457
    121  OE2       10.2290  -49.0520  -19.3320 O.co2  70  GLU70      -0.2457
    122  N         10.0920  -49.7140  -12.3400 N.3    72  ARG72      -0.1245
    123  CA         8.6520  -49.5280  -12.2060 C.3    72  ARG72       0.1563
    124  C          8.1500  -49.7220  -10.7800 C.2    72  ARG72       0.2260
    125  O          8.6120  -50.6050  -10.0580 O.2    72  ARG72      -0.2867
    126  CB         7.9130  -50.4790  -13.1490 C.3    72  ARG72       0.0307
    127  CG         7.9350  -50.0270  -14.5950 C.3    72  ARG72       0.0489
    128  CD         7.3760  -51.0840  -15.5310 C.3    72  ARG72       0.2205
    129  NE         6.8230  -50.4790  -16.7380 N.pl3  72  ARG72      -0.0865
    130  CZ         7.5530  -50.0370  -17.7570 C.cat  72  ARG72       0.5346
    131  NH1        8.8750  -50.1350  -17.7230 N.pl3  72  ARG72       0.1354
    132  NH2        6.9580  -49.4970  -18.8110 N.pl3  72  ARG72       0.1354
    133  N          6.8410  -31.9610  -18.4770 N.3   122  ASP122     -0.1225
    134  CA         6.1920  -32.2130  -19.7550 C.3   122  ASP122      0.1805
    135  C          4.9840  -33.1210  -19.5670 C.2   122  ASP122      0.2598
    136  O          4.7870  -33.6950  -18.4960 O.2   122  ASP122     -0.2718
    137  CB         7.1780  -32.8330  -20.7480 C.3   122  ASP122      0.1424
    138  CG         6.9270  -32.3840  -22.1750 C.2   122  ASP122      0.3668
    139  OD1        5.7630  -32.0780  -22.5100 O.co2 122  ASP122     -0.2456
    140  OD2        7.8960  -32.3300  -22.9620 O.co2 122  ASP122     -0.2456
    141  N          4.1740  -33.2450  -20.6120 N.am  123  GLY123     -0.1957
    142  CA         2.9820  -34.0670  -20.5510 C.3   123  GLY123      0.1869
    143  C          1.7830  -33.3190  -20.0070 C.2   123  GLY123      0.2309
    144  O          1.7110  -32.0930  -20.0860 O.2   123  GLY123     -0.2863
@<TRIPOS>BOND
     1    70    68   ar
     2    70    71   ar
     3    68    67   ar
     4    71    69   ar
     5   107   105   ar
     6   107   108   ar
     7    67    66    1
     8    67    69   ar
     9   105   104   ar
    10    63    66    1
    11    63    62    1
    12    63    64    1
    13    64    65    2
    14    64    72   am
    15    72    73    1
    16   140   138   ar
    17   108   110   ar
    18   108   106   ar
    19   104   103    1
    20   104   106   ar
    21    99   100    1
    22    73    74    1
    23   139   138   ar
    24   110   112   ar
    25   103   100    1
    26   138   137    1
    27   106   109   ar
    28   100   101    1
    29   102   101    2
    30    74    75    2
    31    74    76   am
    32   112   111   ar
    33   137   134    1
    34   141   142    1
    35   141   135   am
    36   142   143    1
    37   109   111   ar
    38   120   119   ar
    39    76    77    1
    40    60    59    1
    41     6     5    1
    42    61    59    1
    43   144   143    2
    44    59    58    2
    45   134   135    1
    46   134   133    1
    47   135   136    2
    48   119   121   ar
    49   119   118    1
    50     1     2    1
    51    58    57    1
    52    32    30   am
    53     4     3    2
    54    41    42   ar
    55    41    39   ar
    56     5     2    1
    57    82    81   ar
    58    79    78    2
    59    77    78    1
    60    77    80    1
    61    98    96   am
    62   132   130    1
    63    42    40   ar
    64    57    56    1
    65    24    22    1
    66   118   117    1
    67    49    48    2
    68    81    80    1
    69    81    83   ar
    70     2     3    1
    71     3     7   am
    72    39    38   ar
    73    22    23    1
    74    22    19    1
    75    30    31    2
    76    30    29    1
    77    40    38   ar
    78    56    55    1
    79    48    50   am
    80    48    47    1
    81    96    97    2
    82    96    95    1
    83   130   131    1
    84   130   129    2
    85    38    37    1
    86   117   114    1
    87    55    52    1
    88     7     8    1
    89     8     9    1
    90     8    11    1
    91   113   114    1
    92    18     9   am
    93    18    19    1
    94    95    92    1
    95    29    26    1
    96     9    10    2
    97    19    20    1
    98    89    88    1
    99    47    44    1
   100   129   128    1
   101    37    34    1
   102   114   115    1
   103    52    53    1
   104    52    51    1
   105    11    12    1
   106    90    88    1
   107    21    20    2
   108    53    54    2
   109    88    85    1
   110    92    93    1
   111    92    91    1
   112    26    25    1
   113    26    27    1
   114   128   127    1
   115    93    94    2
   116    44    45    1
   117    44    43    1
   118    46    45    2
   119    34    35    1
   120    34    33    1
   121   115   116    2
   122    12    14   ar
   123    12    13   ar
   124    87    86    2
   125    27    28    2
   126    36    35    2
   127    85    86    1
   128    85    84    1
   129   127   126    1
   130    14    16   ar
   131    13    15   ar
   132   126   123    1
   133    16    17   ar
   134    15    17   ar
   135   122   123    1
   136   123   124    1
   137   124   125    2
