@<TRIPOS>MOLECULE
tmp/4y28P15.pdb
 126 118 0 0 0
SMALL
GASTEIGER

@<TRIPOS>ATOM
      1  N        -21.7830  -15.7460  121.5780 N.3   176  LEU176     -0.1245
      2  CA       -23.0260  -15.0950  121.9080 C.3   176  LEU176      0.1561
      3  C        -22.9350  -13.5890  121.9690 C.2   176  LEU176      0.2260
      4  O        -23.8050  -12.9060  121.4650 O.2   176  LEU176     -0.2867
      5  CB       -23.5200  -15.6070  123.2400 C.3   176  LEU176      0.0270
      6  CG       -24.7990  -14.9180  123.6710 C.3   176  LEU176      0.0019
      7  CD1      -25.8080  -15.0530  122.5520 C.3   176  LEU176      0.0001
      8  CD2      -25.3220  -15.5420  124.9460 C.3   176  LEU176      0.0001
      9  N        -22.4930  -12.2830  118.3320 N.3   179  LEU179     -0.1231
     10  CA       -23.7700  -12.2520  117.6520 C.3   179  LEU179      0.1693
     11  C        -24.5300  -11.0150  118.0710 C.2   179  LEU179      0.2591
     12  O        -24.9140  -10.1840  117.2630 O.2   179  LEU179     -0.2718
     13  CB       -24.5760  -13.4720  118.0620 C.3   179  LEU179      0.0284
     14  CG       -24.7690  -14.5570  117.0210 C.3   179  LEU179      0.0019
     15  CD1      -25.9490  -14.2410  116.1290 C.3   179  LEU179      0.0001
     16  CD2      -23.5050  -14.6990  116.2090 C.3   179  LEU179      0.0001
     17  N        -24.7290  -10.9080  119.3680 N.am  180  ALA180     -0.1980
     18  CA       -25.4370   -9.7970  119.9420 C.3   180  ALA180      0.1597
     19  C        -25.0280   -8.4640  119.3470 C.2   180  ALA180      0.2287
     20  O        -25.8210   -7.8070  118.6890 O.2   180  ALA180     -0.2864
     21  CB       -25.2120   -9.7860  121.4330 C.3   180  ALA180      0.0319
     22  N        -23.4480   -7.5740  116.7660 N.3   182  LEU182     -0.1231
     23  CA       -23.8270   -7.4220  115.3680 C.3   182  LEU182      0.1693
     24  C        -25.2860   -6.9870  115.2690 C.2   182  LEU182      0.2592
     25  O        -25.6780   -6.1260  114.4530 O.2   182  LEU182     -0.2718
     26  CB       -23.6570   -8.7540  114.6630 C.3   182  LEU182      0.0284
     27  CG       -24.2230   -8.8190  113.2610 C.3   182  LEU182      0.0019
     28  CD1      -23.3610   -7.9740  112.3570 C.3   182  LEU182      0.0001
     29  CD2      -24.2470  -10.2540  112.7840 C.3   182  LEU182      0.0001
     30  N        -26.1180   -7.5310  116.1430 N.am  183  GLY183     -0.1957
     31  CA       -27.5100   -7.1440  116.1530 C.3   183  GLY183      0.1869
     32  C        -27.6340   -5.6350  116.2850 C.2   183  GLY183      0.2309
     33  O        -28.2950   -4.9810  115.4830 O.2   183  GLY183     -0.2863
     34  N        -27.4010   -3.3400  113.4540 N.3   186  ILE186     -0.1231
     35  CA       -28.5540   -3.2270  112.5950 C.3   186  ILE186      0.1692
     36  C        -29.6400   -2.5230  113.3650 C.2   186  ILE186      0.2591
     37  O        -30.1600   -1.5210  112.9030 O.2   186  ILE186     -0.2718
     38  CB       -28.9860   -4.6070  112.0650 C.3   186  ILE186      0.0266
     39  CG1      -28.1690   -4.9480  110.8270 C.3   186  ILE186      0.0019
     40  CG2      -30.4730   -4.6810  111.7290 C.3   186  ILE186      0.0020
     41  CD1      -26.7010   -4.6120  110.9370 C.3   186  ILE186      0.0001
     42  N        -29.9680   -3.0620  114.5330 N.am  187  GLN187     -0.1979
     43  CA       -31.0140   -2.5000  115.3700 C.3   187  GLN187      0.1601
     44  C        -30.8520   -0.9960  115.4430 C.2   187  GLN187      0.2287
     45  O        -31.7060   -0.2460  114.9910 O.2   187  GLN187     -0.2864
     46  CB       -31.0090   -3.1300  116.7650 C.3   187  GLN187      0.0394
     47  CG       -31.2490   -4.6340  116.7760 C.3   187  GLN187      0.0908
     48  CD       -32.2620   -5.0890  117.8180 C.2   187  GLN187      0.2608
     49  OE1      -32.9590   -6.0850  117.6290 O.2   187  GLN187     -0.2717
     50  NE2      -32.3330   -4.3760  118.9260 N.am  187  GLN187     -0.0878
     51  N        -31.3280    0.8130  111.9100 N.3   190  VAL190     -0.1231
     52  CA       -32.6320    1.0770  111.3450 C.3   190  VAL190      0.1692
     53  C        -33.5510    1.6320  112.4120 C.2   190  VAL190      0.2592
     54  O        -34.3160    2.5490  112.1830 O.2   190  VAL190     -0.2718
     55  CB       -33.2420   -0.1830  110.7640 C.3   190  VAL190      0.0266
     56  CG1      -34.4960    0.1700  109.9950 C.3   190  VAL190      0.0020
     57  CG2      -32.2360   -0.8590  109.8590 C.3   190  VAL190      0.0020
     58  N        -33.4660    1.0410  113.5850 N.am  191  THR191     -0.1953
     59  CA       -34.2930    1.4040  114.7220 C.3   191  THR191      0.1897
     60  C        -33.9890    2.7780  115.2490 C.2   191  THR191      0.2313
     61  O        -34.8900    3.5230  115.6180 O.2   191  THR191     -0.2863
     62  CB       -34.1930    0.3490  115.8540 C.3   191  THR191      0.1794
     63  OG1      -34.8720   -0.8420  115.4580 O.3   191  THR191     -0.2208
     64  CG2      -34.8100    0.8260  117.1480 C.3   191  THR191      0.0378
     65  N        -34.7290   -0.2540  122.3170 N.3   198  ASN198     -0.1225
     66  CA       -35.3100   -0.9850  121.2220 C.3   198  ASN198      0.1785
     67  C        -35.9950   -2.2120  121.7580 C.2   198  ASN198      0.2597
     68  O        -37.0250   -2.6280  121.2610 O.2   198  ASN198     -0.2718
     69  CB       -34.2260   -1.3990  120.2500 C.3   198  ASN198      0.1169
     70  CG       -34.7670   -2.2010  119.1080 C.2   198  ASN198      0.2627
     71  OD1      -35.4560   -3.1920  119.3060 O.2   198  ASN198     -0.2716
     72  ND2      -34.4650   -1.7710  117.8990 N.am  198  ASN198     -0.0877
     73  N        -35.4000   -2.7990  122.7750 N.am  199  LEU199     -0.1980
     74  CA       -35.9340   -4.0060  123.3560 C.3   199  LEU199      0.1596
     75  C        -37.3270   -3.8070  123.8970 C.2   199  LEU199      0.2287
     76  O        -38.1790   -4.6810  123.7730 O.2   199  LEU199     -0.2864
     77  CB       -35.0360   -4.4570  124.5000 C.3   199  LEU199      0.0297
     78  CG       -35.6240   -5.5570  125.3700 C.3   199  LEU199      0.0022
     79  CD1      -35.8540   -6.7870  124.5200 C.3   199  LEU199      0.0001
     80  CD2      -34.7210   -5.8700  126.5440 C.3   199  LEU199      0.0001
     81  N        -40.5020   -4.0970  121.4940 N.3   202  HIS202     -0.1241
     82  CA       -40.8770   -5.4740  121.2320 C.3   202  HIS202      0.1621
     83  C        -41.6180   -5.8810  122.5030 C.2   202  HIS202      0.2264
     84  O        -42.6580   -6.5290  122.4630 O.2   202  HIS202     -0.2867
     85  CB       -39.5860   -6.2600  121.0130 C.3   202  HIS202      0.0745
     86  CG       -39.7590   -7.7170  120.7190 C.ar  202  HIS202      0.0817
     87  ND1      -40.4860   -8.1980  119.6530 N.ar  202  HIS202     -0.2268
     88  CD2      -39.2090   -8.8000  121.3150 C.ar  202  HIS202      0.1154
     89  CE1      -40.4160   -9.5180  119.6360 C.ar  202  HIS202      0.1986
     90  NE2      -39.6400   -9.9060  120.6310 N.ar  202  HIS202     -0.2212
     91  N        -44.2290   -5.0460  117.2550 N.3   209  ASN209     -0.1225
     92  CA       -42.7880   -5.0550  117.0600 C.3   209  ASN209      0.1785
     93  C        -42.2110   -6.1220  116.1510 C.2   209  ASN209      0.2597
     94  O        -42.8670   -7.0970  115.8300 O.2   209  ASN209     -0.2718
     95  CB       -42.0570   -5.0380  118.3960 C.3   209  ASN209      0.1169
     96  CG       -41.8830   -3.6380  118.9300 C.2   209  ASN209      0.2627
     97  OD1      -42.8520   -2.9330  119.2070 O.2   209  ASN209     -0.2716
     98  ND2      -40.6420   -3.2280  119.0840 N.am  209  ASN209     -0.0877
     99  N        -40.9720   -5.8700  115.7450 N.am  210  ASN210     -0.1960
    100  CA       -40.1380   -6.7120  114.8890 C.3   210  ASN210      0.1819
    101  C        -39.8000   -6.0770  113.5590 C.2   210  ASN210      0.2621
    102  O        -40.3050   -5.0070  113.2180 O.2   210  ASN210     -0.2715
    103  CB       -40.6490   -8.1380  114.7180 C.3   210  ASN210      0.1195
    104  CG       -41.7250   -8.2470  113.6750 C.2   210  ASN210      0.2630
    105  OD1      -41.5390   -7.8580  112.5230 O.2   210  ASN210     -0.2716
    106  ND2      -42.8650   -8.7890  114.0720 N.am  210  ASN210     -0.0877
    107  N        -38.9460   -6.7580  112.8110 N.am  211  VAL211     -0.1977
    108  CA       -38.4750   -6.2490  111.5420 C.3   211  VAL211      0.1596
    109  C        -39.5380   -6.0250  110.4960 C.2   211  VAL211      0.2287
    110  O        -39.5610   -4.9910  109.8420 O.2   211  VAL211     -0.2864
    111  CB       -37.4590   -7.2220  110.9420 C.3   211  VAL211      0.0276
    112  CG1      -36.8920   -6.6620  109.6520 C.3   211  VAL211      0.0022
    113  CG2      -36.3420   -7.4860  111.9390 C.3   211  VAL211      0.0022
    114  N        -42.5270   -5.6150  111.0710 N.3   213  THR213     -0.1203
    115  CA       -43.2620   -4.5630  111.7250 C.3   213  THR213      0.1994
    116  C        -42.4990   -3.2740  111.6340 C.2   213  THR213      0.2618
    117  O        -43.0350   -2.2050  111.3670 O.2   213  THR213     -0.2717
    118  CB       -43.3700   -4.8890  113.2240 C.3   213  THR213      0.1784
    119  OG1      -42.1010   -4.7070  113.8670 O.3   213  THR213     -0.2211
    120  CG2      -43.8100   -6.3140  113.4210 C.3   213  THR213      0.0376
    121  N        -41.2050   -3.4170  111.8470 N.am  214  SER214     -0.1951
    122  CA       -40.3270   -2.2880  111.8770 C.3   214  SER214      0.1924
    123  C        -40.4740   -1.5790  110.5570 C.2   214  SER214      0.2314
    124  O        -40.5140   -0.3580  110.5140 O.2   214  SER214     -0.2863
    125  CB       -38.8980   -2.7800  112.0870 C.3   214  SER214      0.2116
    126  OG       -37.9560   -1.9430  111.4480 O.3   214  SER214     -0.2180
@<TRIPOS>BOND
     1   112   111    1
     2   110   109    2
     3    57    55    1
     4    56    55    1
     5   109   108    1
     6   124   123    2
     7   123   122    1
     8    55    52    1
     9    39    41    1
    10    39    38    1
    11   111   108    1
    12   111   113    1
    13   114   115    1
    14    52    51    1
    15    52    53    1
    16   117   116    2
    17   126   125    1
    18   108   107    1
    19   116   115    1
    20   116   121   am
    21   115   118    1
    22    40    38    1
    23   121   122    1
    24   122   125    1
    25    38    35    1
    26    54    53    2
    27    28    27    1
    28    53    58   am
    29   105   104    2
    30    35    36    1
    31    35    34    1
    32    29    27    1
    33   107   101   am
    34    37    36    2
    35   102   101    2
    36   118   120    1
    37   118   119    1
    38    27    26    1
    39    36    42   am
    40   101   100    1
    41    58    59    1
    42   104   106   am
    43   104   103    1
    44    25    24    2
    45    42    43    1
    46    26    23    1
    47   103   100    1
    48    59    60    1
    49    59    62    1
    50   100    99    1
    51    45    44    2
    52    60    61    2
    53    24    23    1
    54    24    30   am
    55    23    22    1
    56    43    44    1
    57    43    46    1
    58    63    62    1
    59    33    32    2
    60    99    93   am
    61    94    93    2
    62    62    64    1
    63    15    14    1
    64    30    31    1
    65    93    92    1
    66    31    32    1
    67    16    14    1
    68    46    47    1
    69    47    48    1
    70    14    13    1
    71    92    91    1
    72    92    95    1
    73    12    11    2
    74    49    48    2
    75    10    13    1
    76    10    11    1
    77    10     9    1
    78    48    50   am
    79    72    70   am
    80    11    17   am
    81    95    96    1
    82    20    19    2
    83    96    98   am
    84    96    97    2
    85    70    71    2
    86    70    69    1
    87    19    18    1
    88    17    18    1
    89    89    87   ar
    90    89    90   ar
    91    87    86   ar
    92    18    21    1
    93    69    66    1
    94    90    88   ar
    95    86    85    1
    96    86    88   ar
    97    85    82    1
    98    66    67    1
    99    66    65    1
   100    82    81    1
   101    82    83    1
   102    68    67    2
   103     4     3    2
   104     1     2    1
   105    67    73   am
   106     2     3    1
   107     2     5    1
   108    84    83    2
   109     7     6    1
   110    73    74    1
   111     5     6    1
   112    74    75    1
   113    74    77    1
   114     6     8    1
   115    76    75    2
   116    77    78    1
   117    79    78    1
   118    78    80    1
