@<TRIPOS>MOLECULE
tmp/4y28N01.pdb
 151 149 0 0 0
SMALL
GASTEIGER

@<TRIPOS>ATOM
      1  N         58.3760   19.6930   81.8950 N.3    39  TRP39      -0.1241
      2  CA        57.9240   20.8780   81.2050 C.3    39  TRP39       0.1605
      3  C         57.2280   21.8000   82.1430 C.2    39  TRP39       0.2264
      4  O         57.4630   22.9840   82.1420 O.2    39  TRP39      -0.2867
      5  CB        56.9630   20.4890   80.1060 C.3    39  TRP39       0.0550
      6  CG        56.4990   21.6120   79.2820 C.ar   39  TRP39       0.0003
      7  CD1       55.2790   22.1920   79.3100 C.ar   39  TRP39       0.0946
      8  CD2       57.2380   22.2790   78.2780 C.ar   39  TRP39       0.0152
      9  NE1       55.2100   23.1870   78.3840 N.ar   39  TRP39      -0.2442
     10  CE2       56.4110   23.2600   77.7370 C.ar   39  TRP39       0.0810
     11  CE3       58.5270   22.1400   77.7820 C.ar   39  TRP39       0.0012
     12  CZ2       56.8270   24.0940   76.7350 C.ar   39  TRP39       0.0191
     13  CZ3       58.9340   22.9630   76.7950 C.ar   39  TRP39       0.0001
     14  CH2       58.0970   23.9310   76.2800 C.ar   39  TRP39       0.0015
     15  N         59.4170   23.7290   84.5200 N.3    42  GLN42      -0.1231
     16  CA        59.9760   24.9130   83.8880 C.3    42  GLN42       0.1698
     17  C         58.9220   25.9930   83.7480 C.2    42  GLN42       0.2592
     18  O         59.1700   27.1700   83.9840 O.2    42  GLN42      -0.2718
     19  CB        60.5870   24.5630   82.5470 C.3    42  GLN42       0.0381
     20  CG        61.7630   23.6280   82.6810 C.3    42  GLN42       0.0905
     21  CD        62.9580   24.3140   83.2760 C.2    42  GLN42       0.2608
     22  OE1       63.1430   25.4970   83.0880 O.2    42  GLN42      -0.2717
     23  NE2       63.7780   23.5720   83.9900 N.am   42  GLN42      -0.0878
     24  N         57.7290   25.5870   83.3770 N.am   43  ALA43      -0.1980
     25  CA        56.6640   26.5330   83.2000 C.3    43  ALA43       0.1597
     26  C         56.3230   27.2260   84.4800 C.2    43  ALA43       0.2287
     27  O         56.0980   28.4090   84.4820 O.2    43  ALA43      -0.2864
     28  CB        55.4410   25.8380   82.6550 C.3    43  ALA43       0.0319
     29  N         58.9100   30.1260   85.2050 N.3    46  VAL46      -0.1231
     30  CA        58.6930   31.3520   84.4710 C.3    46  VAL46       0.1692
     31  C         57.3680   32.0500   84.7240 C.2    46  VAL46       0.2592
     32  O         57.3330   33.2650   84.8420 O.2    46  VAL46      -0.2718
     33  CB        58.8390   31.0890   82.9860 C.3    46  VAL46       0.0266
     34  CG1       58.9410   32.3960   82.2470 C.3    46  VAL46       0.0020
     35  CG2       60.0760   30.2670   82.7410 C.3    46  VAL46       0.0020
     36  N         56.2760   31.3050   84.8180 N.am   47  ASN47      -0.1974
     37  CA        54.9990   31.9370   85.0830 C.3    47  ASN47       0.1688
     38  C         55.1540   32.5840   86.4370 C.2    47  ASN47       0.2292
     39  O         54.6920   33.6850   86.6590 O.2    47  ASN47      -0.2864
     40  CB        53.8410   30.9400   85.0550 C.3    47  ASN47       0.1181
     41  CG        53.2370   30.7820   83.6740 C.2    47  ASN47       0.2629
     42  OD1       52.3560   31.5290   83.2660 O.2    47  ASN47      -0.2716
     43  ND2       53.7120   29.8000   82.9500 N.am   47  ASN47      -0.0877
     44  N         57.6390   35.9110   86.1420 N.3    50  TRP50      -0.1241
     45  CA        57.0540   37.1130   85.5820 C.3    50  TRP50       0.1605
     46  C         56.0520   37.6850   86.5550 C.2    50  TRP50       0.2264
     47  O         55.9610   38.8840   86.7260 O.2    50  TRP50      -0.2867
     48  CB        56.4270   36.8640   84.2290 C.3    50  TRP50       0.0550
     49  CG        57.4210   36.8080   83.1350 C.ar   50  TRP50       0.0003
     50  CD1       57.6550   35.7680   82.3090 C.ar   50  TRP50       0.0946
     51  CD2       58.3310   37.8340   82.7480 C.ar   50  TRP50       0.0152
     52  NE1       58.6470   36.0740   81.4270 N.ar   50  TRP50      -0.2442
     53  CE2       59.0820   37.3420   81.6820 C.ar   50  TRP50       0.0810
     54  CE3       58.5870   39.1160   83.2040 C.ar   50  TRP50       0.0012
     55  CZ2       60.0630   38.0840   81.0680 C.ar   50  TRP50       0.0191
     56  CZ3       59.5550   39.8440   82.5890 C.ar   50  TRP50       0.0001
     57  CH2       60.2810   39.3330   81.5350 C.ar   50  TRP50       0.0015
     58  N         59.6890   44.6870   71.5900 N.3    94  GLU94      -0.1231
     59  CA        59.5350   43.7410   72.6730 C.3    94  GLU94       0.1699
     60  C         59.5040   42.3450   72.1260 C.2    94  GLU94       0.2592
     61  O         59.9990   41.4050   72.7280 O.2    94  GLU94      -0.2718
     62  CB        58.2560   44.0180   73.4410 C.3    94  GLU94       0.0402
     63  CG        57.9650   42.9890   74.5070 C.3    94  GLU94       0.1161
     64  CD        56.6420   43.2130   75.1830 C.2    94  GLU94       0.3649
     65  OE1       56.3540   42.5210   76.1630 O.co2  94  GLU94      -0.2457
     66  OE2       55.8870   44.0820   74.7430 O.co2  94  GLU94      -0.2457
     67  N         58.8660   42.2310   70.9780 N.am   95  PHE95      -0.1976
     68  CA        58.6970   40.9620   70.3310 C.3    95  PHE95       0.1639
     69  C         59.9890   40.4120   69.7890 C.2    95  PHE95       0.2290
     70  O         60.3020   39.2510   69.9900 O.2    95  PHE95      -0.2864
     71  CB        57.6990   41.1070   69.2060 C.3    95  PHE95       0.0560
     72  CG        57.5100   39.8580   68.4170 C.ar   95  PHE95      -0.0200
     73  CD1       58.4190   39.5000   67.4500 C.ar   95  PHE95      -0.0042
     74  CD2       56.4250   39.0410   68.6440 C.ar   95  PHE95      -0.0042
     75  CE1       58.2480   38.3490   66.7180 C.ar   95  PHE95      -0.0003
     76  CE2       56.2500   37.8870   67.9180 C.ar   95  PHE95      -0.0003
     77  CZ        57.1630   37.5420   66.9530 C.ar   95  PHE95      -0.0000
     78  N         62.1490   39.4380   72.8740 N.3    98  SER98      -0.1202
     79  CA        61.5860   38.3280   73.6260 C.3    98  SER98       0.2020
     80  C         61.6400   37.0870   72.7650 C.2    98  SER98       0.2618
     81  O         61.8700   35.9850   73.2480 O.2    98  SER98      -0.2717
     82  CB        60.1930   38.6310   74.1840 C.3    98  SER98       0.2103
     83  OG        60.2760   39.1550   75.5060 O.3    98  SER98      -0.2182
     84  N         61.4250   37.2680   71.4750 N.am   99  HIS99      -0.1975
     85  CA        61.4670   36.1380   70.5840 C.3    99  HIS99       0.1656
     86  C         62.8480   35.5280   70.6100 C.2    99  HIS99       0.2291
     87  O         62.9790   34.3300   70.6760 O.2    99  HIS99      -0.2864
     88  CB        61.1420   36.5780   69.1700 C.3    99  HIS99       0.0771
     89  CG        60.9270   35.4450   68.2230 C.ar   99  HIS99       0.0820
     90  ND1       61.9660   34.7500   67.6500 N.ar   99  HIS99      -0.2267
     91  CD2       59.7920   34.8910   67.7410 C.ar   99  HIS99       0.1154
     92  CE1       61.4800   33.8170   66.8540 C.ar   99  HIS99       0.1986
     93  NE2       60.1640   33.8800   66.8920 N.ar   99  HIS99      -0.2212
     94  N         64.0990   33.7230   74.0440 N.3   102  GLU102     -0.1286
     95  CA        63.3680   32.5530   74.4660 C.3   102  GLU102      0.1396
     96  C         63.3840   31.2690   73.7150 C.3   102  GLU102      0.2435
     97  O         62.8210   30.4380   73.9280 O.3   102  GLU102     -0.2020
     98  CB        61.9210   32.9580   74.7760 C.3   102  GLU102      0.0350
     99  CG        61.3840   32.3490   76.0570 C.3   102  GLU102      0.1157
    100  CD        60.0840   32.9720   76.5050 C.2   102  GLU102      0.3649
    101  OE1       59.6280   33.9220   75.8570 O.co2 102  GLU102     -0.2457
    102  OE2       59.5120   32.5080   77.5070 O.co2 102  GLU102     -0.2457
    103  N         63.0760   31.7580   72.4000 N.3   103  ILE103     -0.1815
    104  CA        63.1760   30.7200   71.3200 C.3   103  ILE103      0.1397
    105  C         64.6240   30.3030   71.7560 C.2   103  ILE103      0.2245
    106  O         65.4580   29.8390   71.0020 O.2   103  ILE103     -0.2868
    107  CB        63.1860   31.2710   69.8980 C.3   103  ILE103      0.0237
    108  CG1       63.3330   30.1220   68.9230 C.3   103  ILE103      0.0018
    109  CG2       64.3430   32.2260   69.6790 C.3   103  ILE103      0.0019
    110  CD1       62.4020   28.9730   69.2060 C.3   103  ILE103      0.0001
    111  N         65.6660   29.8720   75.6700 N.3   105  ARG105     -0.1231
    112  CA        65.7540   28.9710   76.7950 C.3   105  ARG105      0.1694
    113  C         65.1340   27.6470   76.3760 C.2   105  ARG105      0.2592
    114  O         65.3600   26.6270   77.0050 O.2   105  ARG105     -0.2718
    115  CB        65.0430   29.5350   78.0160 C.3   105  ARG105      0.0321
    116  CG        63.8770   30.4390   77.6960 C.3   105  ARG105      0.0489
    117  CD        63.2600   30.9590   78.9730 C.3   105  ARG105      0.2205
    118  NE        62.2670   30.0420   79.5010 N.pl3 105  ARG105     -0.0865
    119  CZ        60.9750   30.1280   79.2250 C.cat 105  ARG105      0.5346
    120  NH1       60.5340   31.0900   78.4300 N.pl3 105  ARG105      0.1354
    121  NH2       60.1260   29.2570   79.7440 N.pl3 105  ARG105      0.1354
    122  N         64.3390   27.6810   75.3130 N.am  106  TRP106     -0.1976
    123  CA        63.6600   26.5140   74.7990 C.3   106  TRP106      0.1640
    124  C         64.6650   25.4850   74.3800 C.2   106  TRP106      0.2290
    125  O         64.4890   24.3040   74.6170 O.2   106  TRP106     -0.2864
    126  CB        62.8260   26.9120   73.5920 C.3   106  TRP106      0.0576
    127  CG        61.9300   25.8450   73.1080 C.ar  106  TRP106      0.0006
    128  CD1       61.2420   24.9630   73.8620 C.ar  106  TRP106      0.0946
    129  CD2       61.5940   25.5630   71.7550 C.ar  106  TRP106      0.0152
    130  NE1       60.5070   24.1340   73.0680 N.ar  106  TRP106     -0.2442
    131  CE2       60.7080   24.4850   71.7640 C.ar  106  TRP106      0.0810
    132  CE3       61.9620   26.1160   70.5350 C.ar  106  TRP106      0.0012
    133  CZ2       60.1850   23.9490   70.6080 C.ar  106  TRP106      0.0191
    134  CZ3       61.4450   25.5810   69.3900 C.ar  106  TRP106      0.0001
    135  CH2       60.5680   24.5100   69.4300 C.ar  106  TRP106      0.0015
    136  N         66.0040   23.6180   77.1750 N.3   109  ILE109     -0.1245
    137  CA        65.0390   22.6860   77.7140 C.3   109  ILE109      0.1561
    138  C         65.0370   21.3650   76.9840 C.2   109  ILE109      0.2260
    139  O         64.9350   20.3320   77.6180 O.2   109  ILE109     -0.2867
    140  CB        63.6200   23.2320   77.6920 C.3   109  ILE109      0.0252
    141  CG1       63.5400   24.5090   78.4940 C.3   109  ILE109      0.0019
    142  CG2       62.6790   22.2360   78.3240 C.3   109  ILE109      0.0019
    143  CD1       62.1340   25.0250   78.5990 C.3   109  ILE109      0.0001
    144  N         46.4150   37.0000   90.0850 N.3   165  LEU165     -0.1245
    145  CA        45.0750   36.5930   89.7720 C.3   165  LEU165      0.1561
    146  C         44.1790   37.5190   90.5290 C.2   165  LEU165      0.2260
    147  O         43.1540   37.9300   90.0450 O.2   165  LEU165     -0.2867
    148  CB        44.8340   35.1620   90.1990 C.3   165  LEU165      0.0270
    149  CG        43.4400   34.6470   89.8940 C.3   165  LEU165      0.0019
    150  CD1       43.1760   34.7110   88.4120 C.3   165  LEU165      0.0001
    151  CD2       43.3040   33.2280   90.3860 C.3   165  LEU165      0.0001
@<TRIPOS>BOND
     1    75    77   ar
     2    75    73   ar
     3    92    93   ar
     4    92    90   ar
     5    93    91   ar
     6    77    76   ar
     7    73    72   ar
     8    90    89   ar
     9    91    89   ar
    10    76    74   ar
    11    89    88    1
    12    72    74   ar
    13    72    71    1
    14   108   110    1
    15   108   107    1
    16    88    85    1
    17    71    68    1
    18   134   135   ar
    19   134   132   ar
    20   135   133   ar
    21   109   107    1
    22    69    70    2
    23    69    68    1
    24   107   104    1
    25    68    67    1
    26   132   129   ar
    27    85    86    1
    28    85    84    1
    29   133   131   ar
    30    86    87    2
    31    67    60   am
    32   106   105    2
    33   104   105    1
    34   104   103    1
    35    84    80   am
    36    58    59    1
    37   129   131   ar
    38   129   127   ar
    39   131   130   ar
    40    60    59    1
    41    60    61    2
    42   103    96    1
    43    59    62    1
    44    80    81    2
    45    80    79    1
    46    78    79    1
    47   130   128   ar
    48   127   126    1
    49   127   128   ar
    50    62    63    1
    51   126   123    1
    52    79    82    1
    53    96    97    1
    54    96    95    1
    55    94    95    1
    56    82    83    1
    57   124   125    2
    58   124   123    1
    59    95    98    1
    60    63    64    1
    61    66    64   ar
    62    98    99    1
    63   123   122    1
    64    64    65   ar
    65   122   113   am
    66   111   112    1
    67   101   100   ar
    68    99   100    1
    69    14    12   ar
    70    14    13   ar
    71   113   112    1
    72   113   114    2
    73   100   102   ar
    74    12    10   ar
    75    13    11   ar
    76   112   115    1
    77   138   139    2
    78   138   137    1
    79   136   137    1
    80   140   137    1
    81   140   142    1
    82   140   141    1
    83   116   115    1
    84   116   117    1
    85    10     8   ar
    86    10     9   ar
    87    11     8   ar
    88     8     6   ar
    89     9     7   ar
    90   120   119    1
    91   141   143    1
    92   117   118    1
    93   119   118    2
    94   119   121    1
    95     6     7   ar
    96     6     5    1
    97     5     2    1
    98    55    57   ar
    99    55    53   ar
   100     2     1    1
   101     2     3    1
   102    52    53   ar
   103    52    50   ar
   104    57    56   ar
   105    53    51   ar
   106     4     3    2
   107    34    33    1
   108    50    49   ar
   109    19    20    1
   110    19    16    1
   111    56    54   ar
   112    28    25    1
   113    20    21    1
   114    35    33    1
   115    51    49   ar
   116    51    54   ar
   117    43    41   am
   118    33    30    1
   119    22    21    2
   120    49    48    1
   121    25    24    1
   122    25    26    1
   123    42    41    2
   124    21    23   am
   125    24    17   am
   126    41    40    1
   127    17    16    1
   128    17    18    2
   129    16    15    1
   130    48    45    1
   131    30    31    1
   132    30    29    1
   133    26    27    2
   134    31    36   am
   135    31    32    2
   136    36    37    1
   137    40    37    1
   138    37    38    1
   139    45    44    1
   140    45    46    1
   141    38    39    2
   142    46    47    2
   143   150   149    1
   144   145   144    1
   145   145   148    1
   146   145   146    1
   147   149   148    1
   148   149   151    1
   149   147   146    2
