@<TRIPOS>MOLECULE
tmp/4y28A28.pdb
 118 116 0 0 0
SMALL
GASTEIGER

@<TRIPOS>ATOM
      1  N        -37.9220    3.5550   82.6080 N.3   267  PHE267     -0.1241
      2  CA       -37.4980    3.0700   81.3070 C.3   267  PHE267      0.1605
      3  C        -37.7680    4.1550   80.2770 C.2   267  PHE267      0.2264
      4  O        -38.2000    3.8740   79.1590 O.2   267  PHE267     -0.2867
      5  CB       -38.2470    1.7890   80.9480 C.3   267  PHE267      0.0534
      6  CG       -37.4140    0.7740   80.2280 C.ar  267  PHE267     -0.0203
      7  CD1      -37.2650    0.8310   78.8540 C.ar  267  PHE267     -0.0042
      8  CD2      -36.7990   -0.2500   80.9240 C.ar  267  PHE267     -0.0042
      9  CE1      -36.5080   -0.1080   78.1900 C.ar  267  PHE267     -0.0003
     10  CE2      -36.0420   -1.1910   80.2640 C.ar  267  PHE267     -0.0003
     11  CZ       -35.9030   -1.1220   78.8960 C.ar  267  PHE267     -0.0000
     12  N        -20.9960    3.3530   71.6560 N.3   359  HIS359     -0.1241
     13  CA       -22.1530    3.4880   72.5290 C.3   359  HIS359      0.1621
     14  C        -22.1400    4.7920   73.3220 C.2   359  HIS359      0.2264
     15  O        -23.1960    5.3180   73.6730 O.2   359  HIS359     -0.2867
     16  CB       -22.2420    2.2920   73.4780 C.3   359  HIS359      0.0745
     17  CG       -22.8030    1.0630   72.8370 C.ar  359  HIS359      0.0817
     18  ND1      -23.0160   -0.1110   73.5270 N.ar  359  HIS359     -0.2268
     19  CD2      -23.2010    0.8290   71.5640 C.ar  359  HIS359      0.1154
     20  CE1      -23.5190   -1.0160   72.7060 C.ar  359  HIS359      0.1986
     21  NE2      -23.6390   -0.4710   71.5080 N.ar  359  HIS359     -0.2212
     22  N        -25.1390    7.4740   72.6860 N.3   363  MET363     -0.1245
     23  CA       -25.9470    7.5230   73.8960 C.3   363  MET363      0.1570
     24  C        -25.1520    8.1930   75.0150 C.2   363  MET363      0.2261
     25  O        -24.7040    7.5200   75.9430 O.2   363  MET363     -0.2867
     26  CB       -26.3870    6.1150   74.3080 C.3   363  MET363      0.0387
     27  CG       -27.2700    5.4120   73.2800 C.3   363  MET363      0.0595
     28  SD       -27.4200    3.6280   73.5450 S.3   363  MET363     -0.1393
     29  CE       -25.7110    3.1360   73.3570 C.3   363  MET363      0.0692
     30  N        -33.3850    0.4120   57.1930 N.3   475  TRP475     -0.1227
     31  CA       -34.5790   -0.2760   57.6740 C.3   475  TRP475      0.1737
     32  C        -34.5050   -0.5110   59.1770 C.2   475  TRP475      0.2595
     33  O        -35.4780   -0.2850   59.8990 O.2   475  TRP475     -0.2718
     34  CB       -34.7640   -1.6050   56.9410 C.3   475  TRP475      0.0564
     35  CG       -36.0030   -2.3400   57.3420 C.ar  475  TRP475      0.0003
     36  CD1      -37.2480   -2.2040   56.8010 C.ar  475  TRP475      0.0946
     37  CD2      -36.1190   -3.3260   58.3730 C.ar  475  TRP475      0.0152
     38  NE1      -38.1320   -3.0450   57.4320 N.ar  475  TRP475     -0.2442
     39  CE2      -37.4630   -3.7460   58.4010 C.ar  475  TRP475      0.0810
     40  CE3      -35.2160   -3.8960   59.2760 C.ar  475  TRP475      0.0012
     41  CZ2      -37.9270   -4.7080   59.2950 C.ar  475  TRP475      0.0191
     42  CZ3      -35.6780   -4.8500   60.1620 C.ar  475  TRP475      0.0001
     43  CH2      -37.0210   -5.2470   60.1660 C.ar  475  TRP475      0.0015
     44  N        -33.3440   -0.9670   59.6390 N.am  476  ILE476     -0.1980
     45  CA       -33.0900   -1.1300   61.0650 C.3   476  ILE476      0.1595
     46  C        -33.2630    0.1860   61.8040 C.2   476  ILE476      0.2287
     47  O        -33.9420    0.2510   62.8280 O.2   476  ILE476     -0.2864
     48  CB       -31.6730   -1.6520   61.3330 C.3   476  ILE476      0.0276
     49  CG1      -31.5340   -3.0880   60.8460 C.3   476  ILE476      0.0022
     50  CG2      -31.3410   -1.5610   62.8160 C.3   476  ILE476      0.0022
     51  CD1      -30.3320   -3.7670   61.4050 C.3   476  ILE476      0.0001
     52  N        -36.6340    0.9120   62.2950 N.3   479  THR479     -0.1203
     53  CA       -37.2480   -0.0340   63.2210 C.3   479  THR479      0.1994
     54  C        -37.0710    0.4110   64.6720 C.2   479  THR479      0.2617
     55  O        -37.9830    0.2740   65.4880 O.2   479  THR479     -0.2717
     56  CB       -36.6690   -1.4540   63.0460 C.3   479  THR479      0.1784
     57  OG1      -36.8990   -1.9020   61.7050 O.3   479  THR479     -0.2211
     58  CG2      -37.3250   -2.4300   64.0120 C.3   479  THR479      0.0376
     59  N        -35.8980    0.9520   64.9890 N.am  480  HIS480     -0.1975
     60  CA       -35.6310    1.4500   66.3340 C.3   480  HIS480      0.1656
     61  C        -36.4220    2.7240   66.6050 C.2   480  HIS480      0.2291
     62  O        -36.6730    3.0770   67.7570 O.2   480  HIS480     -0.2864
     63  CB       -34.1370    1.7100   66.5370 C.3   480  HIS480      0.0771
     64  CG       -33.2870    0.4830   66.4370 C.ar  480  HIS480      0.0820
     65  ND1      -32.1860    0.2740   67.2390 N.ar  480  HIS480     -0.2267
     66  CD2      -33.3700   -0.5970   65.6240 C.ar  480  HIS480      0.1154
     67  CE1      -31.6290   -0.8830   66.9270 C.ar  480  HIS480      0.1986
     68  NE2      -32.3270   -1.4290   65.9480 N.ar  480  HIS480     -0.2212
     69  N        -39.7880    1.6210   67.6060 N.3   483  ALA483     -0.1231
     70  CA       -39.6550    0.6840   68.7170 C.3   483  ALA483      0.1679
     71  C        -40.4620    1.0860   69.9640 C.2   483  ALA483      0.2434
     72  O        -41.2010    0.2590   70.4970 O.2   483  ALA483     -0.2733
     73  CB       -38.1840    0.5000   69.0760 C.3   483  ALA483      0.0304
     74  N        -40.3320    2.3430   70.4390 N.am  484  PRO484     -0.2729
     75  CA       -41.0730    2.6490   71.6700 C.3   484  PRO484      0.1401
     76  C        -42.5810    2.6940   71.4520 C.2   484  PRO484      0.2269
     77  O        -43.0410    3.2310   70.4450 O.2   484  PRO484     -0.2865
     78  CB       -40.5470    4.0360   72.0690 C.3   484  PRO484      0.0296
     79  CG       -39.3230    4.2540   71.2420 C.3   484  PRO484      0.0237
     80  CD       -39.5550    3.5070   69.9810 C.3   484  PRO484      0.0939
     81  N        -43.0970   -1.8520   69.7610 N.3   487  THR487     -0.1203
     82  CA       -42.3710   -3.0410   70.1790 C.3   487  THR487      0.1994
     83  C        -42.1360   -3.0480   71.6830 C.2   487  THR487      0.2617
     84  O        -42.4600   -4.0180   72.3640 O.2   487  THR487     -0.2717
     85  CB       -41.0170   -3.1590   69.4780 C.3   487  THR487      0.1784
     86  OG1      -41.2160   -3.3840   68.0770 O.3   487  THR487     -0.2211
     87  CG2      -40.2650   -4.3180   70.0530 C.3   487  THR487      0.0376
     88  N        -41.5560   -1.9660   72.1900 N.am  488  ALA488     -0.1979
     89  CA       -41.3030   -1.8310   73.6180 C.3   488  ALA488      0.1597
     90  C        -42.1970   -0.7510   74.2170 C.2   488  ALA488      0.2287
     91  O        -41.8140    0.4180   74.2680 O.2   488  ALA488     -0.2864
     92  CB       -39.8370   -1.5130   73.8720 C.3   488  ALA488      0.0319
     93  N        -40.8570    1.5670   76.9480 N.3   491  ALA491     -0.1245
     94  CA       -39.9700    2.6450   76.5270 C.3   491  ALA491      0.1562
     95  C        -40.7830    3.8490   76.0650 C.2   491  ALA491      0.2260
     96  O        -41.6390    3.7280   75.1890 O.2   491  ALA491     -0.2867
     97  CB       -39.0420    2.1700   75.4230 C.3   491  ALA491      0.0290
     98  N        -34.3460    4.6710   71.8190 N.3   495  THR495     -0.1218
     99  CA       -33.1130    4.2350   72.4580 C.3   495  THR495      0.1862
    100  C        -32.0340    5.3020   72.3050 C.2   495  THR495      0.2287
    101  O        -31.3910    5.7000   73.2770 O.2   495  THR495     -0.2866
    102  CB       -32.6220    2.8980   71.8610 C.3   495  THR495      0.1770
    103  OG1      -33.4930    1.8390   72.2770 O.3   495  THR495     -0.2211
    104  CG2      -31.2010    2.5840   72.3070 C.3   495  THR495      0.0375
    105  N        -31.8760    7.5210   66.1400 N.3   499  TRP499     -0.1241
    106  CA       -33.0300    6.7820   65.6430 C.3   499  TRP499      0.1605
    107  C        -34.3150    7.5790   65.8330 C.2   499  TRP499      0.2264
    108  O        -35.3980    7.1130   65.4870 O.2   499  TRP499     -0.2867
    109  CB       -33.1460    5.4350   66.3550 C.3   499  TRP499      0.0550
    110  CG       -32.0110    4.5160   66.0700 C.ar  499  TRP499      0.0003
    111  CD1      -31.4040    4.3170   64.8690 C.ar  499  TRP499      0.0946
    112  CD2      -31.3280    3.6800   67.0090 C.ar  499  TRP499      0.0152
    113  NE1      -30.3910    3.4000   64.9950 N.ar  499  TRP499     -0.2442
    114  CE2      -30.3230    2.9940   66.3000 C.ar  499  TRP499      0.0810
    115  CE3      -31.4720    3.4410   68.3760 C.ar  499  TRP499      0.0012
    116  CZ2      -29.4660    2.0880   66.9130 C.ar  499  TRP499      0.0191
    117  CZ3      -30.6210    2.5410   68.9810 C.ar  499  TRP499      0.0001
    118  CH2      -29.6310    1.8750   68.2510 C.ar  499  TRP499      0.0015
@<TRIPOS>BOND
     1    36    35   ar
     2    36    38   ar
     3    34    35    1
     4    34    31    1
     5    30    31    1
     6    35    37   ar
     7    38    39   ar
     8    31    32    1
     9    37    39   ar
    10    37    40   ar
    11    39    41   ar
    12    32    44   am
    13    32    33    2
    14    40    42   ar
    15    41    43   ar
    16    44    45    1
    17    42    43   ar
    18    49    48    1
    19    49    51    1
    20    45    48    1
    21    45    46    1
    22    48    50    1
    23    57    56    1
    24    46    47    2
    25    52    53    1
    26    56    53    1
    27    56    58    1
    28    53    54    1
    29    54    59   am
    30    54    55    2
    31   111   113   ar
    32   111   110   ar
    33    59    60    1
    34   113   114   ar
    35   108   107    2
    36    66    68   ar
    37    66    64   ar
    38   106   107    1
    39   106   105    1
    40   106   109    1
    41    68    67   ar
    42   110   109    1
    43   110   112   ar
    44   114   116   ar
    45   114   112   ar
    46    60    63    1
    47    60    61    1
    48    64    63    1
    49    64    65   ar
    50    61    62    2
    51   116   118   ar
    52    67    65   ar
    53   112   115   ar
    54    69    70    1
    55    86    85    1
    56   118   117   ar
    57   115   117   ar
    58    70    73    1
    59    70    71    1
    60    85    87    1
    61    85    82    1
    62    81    82    1
    63    71    74   am
    64    71    72    2
    65    80    74    1
    66    80    79    1
    67    82    83    1
    68    74    75    1
    69    77    76    2
    70    79    78    1
    71    76    75    1
    72    21    19   ar
    73    21    20   ar
    74    19    17   ar
    75    12    13    1
    76    75    78    1
    77    83    88   am
    78    83    84    2
    79    98    99    1
    80   102   103    1
    81   102   104    1
    82   102    99    1
    83    88    89    1
    84   100    99    1
    85   100   101    2
    86    13    14    1
    87    13    16    1
    88    22    23    1
    89    20    18   ar
    90    17    16    1
    91    17    18   ar
    92    27    28    1
    93    27    26    1
    94    14    15    2
    95    29    28    1
    96    89    92    1
    97    89    90    1
    98    23    26    1
    99    23    24    1
   100    90    91    2
   101    24    25    2
   102    96    95    2
   103    97    94    1
   104    95    94    1
   105    94    93    1
   106     9     7   ar
   107     9    11   ar
   108     7     6   ar
   109    11    10   ar
   110     4     3    2
   111     6     8   ar
   112     6     5    1
   113    10     8   ar
   114     3     2    1
   115     5     2    1
   116     2     1    1
