@<TRIPOS>MOLECULE
tmp/4y28L03.pdb
 78 71 0 0 0
SMALL
GASTEIGER

@<TRIPOS>ATOM
      1  N        -50.4040  -11.5590   97.2440 N.3     4  SER4       -0.1202
      2  CA       -49.0410  -11.5590   96.7380 C.3     4  SER4        0.2020
      3  C        -48.1190  -12.3910   97.6310 C.2     4  SER4        0.2619
      4  O        -47.3050  -13.1870   97.1490 O.2     4  SER4       -0.2717
      5  CB       -48.5470  -10.1110   96.6610 C.3     4  SER4        0.2103
      6  OG       -47.1400  -10.0180   96.7850 O.3     4  SER4       -0.2182
      7  N        -48.2640  -12.2170   98.9360 N.am    5  SER5       -0.1951
      8  CA       -47.4530  -12.9560   99.8870 C.3     5  SER5        0.1924
      9  C        -47.7440  -14.4400   99.7750 C.2     5  SER5        0.2314
     10  O        -46.8330  -15.2630   99.8190 O.2     5  SER5       -0.2863
     11  CB       -47.7420  -12.4960  101.3120 C.3     5  SER5        0.2116
     12  OG       -48.9840  -13.0090  101.7530 O.3     5  SER5       -0.2180
     13  N        -46.0060  -15.8100   96.7890 N.3     8  VAL8       -0.1231
     14  CA       -44.5760  -15.9830   96.9930 C.3     8  VAL8        0.1692
     15  C        -44.3010  -17.2200   97.8410 C.2     8  VAL8        0.2591
     16  O        -43.3690  -17.9850   97.5690 O.2     8  VAL8       -0.2718
     17  CB       -43.9420  -14.7490   97.6510 C.3     8  VAL8        0.0266
     18  CG1      -42.4550  -14.6990   97.3380 C.3     8  VAL8        0.0020
     19  CG2      -44.6180  -13.4880   97.1460 C.3     8  VAL8        0.0020
     20  N        -45.1190  -17.4150   98.8710 N.am    9  ILE9       -0.1980
     21  CA       -44.9470  -18.5640   99.7500 C.3     9  ILE9        0.1595
     22  C        -45.1690  -19.8520   98.9650 C.2     9  ILE9        0.2287
     23  O        -44.4670  -20.8340   99.1590 O.2     9  ILE9       -0.2864
     24  CB       -45.8210  -18.4680  101.0290 C.3     9  ILE9        0.0276
     25  CG1      -46.0400  -19.8420  101.6730 C.3     9  ILE9        0.0022
     26  CG2      -47.1440  -17.7880  100.7360 C.3     9  ILE9        0.0022
     27  CD1      -47.1660  -19.8800  102.6790 C.3     9  ILE9        0.0001
     28  N        -42.1200  -20.5860   96.9860 N.3    12  ALA12      -0.1231
     29  CA       -41.0370  -21.0840   97.8110 C.3    12  ALA12       0.1694
     30  C        -41.2800  -22.5320   98.1880 C.2    12  ALA12       0.2592
     31  O        -40.3670  -23.3550   98.1680 O.2    12  ALA12      -0.2718
     32  CB       -40.8870  -20.2330   99.0570 C.3    12  ALA12       0.0304
     33  N        -42.5230  -22.8420   98.5270 N.am   13  SER13      -0.1952
     34  CA       -42.8740  -24.1880   98.9310 C.3    13  SER13       0.1924
     35  C        -42.6580  -25.1660   97.8020 C.2    13  SER13       0.2314
     36  O        -42.1080  -26.2460   97.9970 O.2    13  SER13      -0.2863
     37  CB       -44.3300  -24.2320   99.3800 C.3    13  SER13       0.2116
     38  OG       -44.7330  -25.5650   99.6150 O.3    13  SER13      -0.2180
     39  N        -38.9710  -25.8290   97.4970 N.3    16  LEU16      -0.1245
     40  CA       -38.3960  -26.6590   98.5500 C.3    16  LEU16       0.1561
     41  C        -38.9260  -28.0760   98.4450 C.2    16  LEU16       0.2260
     42  O        -38.2410  -29.0420   98.7730 O.2    16  LEU16      -0.2867
     43  CB       -38.7250  -26.0830   99.9200 C.3    16  LEU16       0.0270
     44  CG       -38.7730  -24.5590   99.9900 C.3    16  LEU16       0.0019
     45  CD1      -38.6370  -24.0960  101.4310 C.3    16  LEU16       0.0001
     46  CD2      -37.6760  -23.9570   99.1280 C.3    16  LEU16       0.0001
     47  N        -31.5640  -23.0240  100.2270 N.3    38  LEU38      -0.1245
     48  CA       -31.3340  -21.6790   99.7780 C.3    38  LEU38       0.1561
     49  C        -31.6650  -21.4690   98.3260 C.2    38  LEU38       0.2260
     50  O        -32.3340  -20.5040   97.9890 O.2    38  LEU38      -0.2867
     51  CB       -29.8750  -21.3520   99.9880 C.3    38  LEU38       0.0270
     52  CG       -29.4400  -21.6250  101.4170 C.3    38  LEU38       0.0019
     53  CD1      -28.0010  -22.0930  101.4830 C.3    38  LEU38       0.0001
     54  CD2      -29.6440  -20.3900  102.2720 C.3    38  LEU38       0.0001
     55  N        -34.3130  -19.4450   96.8490 N.3    42  THR42      -0.1218
     56  CA       -34.0390  -18.3550   95.9290 C.3    42  THR42       0.1862
     57  C        -34.7870  -18.5420   94.6230 C.2    42  THR42       0.2287
     58  O        -35.2960  -17.5890   94.0470 O.2    42  THR42      -0.2866
     59  CB       -32.5460  -18.2670   95.6100 C.3    42  THR42       0.1770
     60  OG1      -32.0700  -19.5680   95.2520 O.3    42  THR42      -0.2211
     61  CG2      -31.7780  -17.7640   96.8150 C.3    42  THR42       0.0375
     62  N        -38.2520  -17.6730   95.1780 N.3    45  HIS45      -0.1241
     63  CA       -38.4460  -16.2410   95.2540 C.3    45  HIS45       0.1621
     64  C        -38.4860  -15.6630   93.8560 C.2    45  HIS45       0.2264
     65  O        -39.3520  -14.8560   93.5340 O.2    45  HIS45      -0.2867
     66  CB       -37.3020  -15.5850   96.0280 C.3    45  HIS45       0.0745
     67  CG       -37.2910  -15.9040   97.4900 C.ar   45  HIS45       0.0817
     68  ND1      -38.3060  -15.5290   98.3420 N.ar   45  HIS45      -0.2268
     69  CD2      -36.3740  -16.5410   98.2560 C.ar   45  HIS45       0.1154
     70  CE1      -38.0230  -15.9330   99.5670 C.ar   45  HIS45       0.1986
     71  NE2      -36.8560  -16.5500   99.5420 N.ar   45  HIS45      -0.2212
     72  N        -41.6620  -13.8110   92.1510 N.3    49  VAL49      -0.1245
     73  CA       -41.6080  -12.4430   91.6830 C.3    49  VAL49       0.1561
     74  C        -42.0380  -12.3620   90.2310 C.2    49  VAL49       0.2260
     75  O        -42.8150  -11.4860   89.8550 O.2    49  VAL49      -0.2867
     76  CB       -40.1970  -11.8570   91.8310 C.3    49  VAL49       0.0252
     77  CG1      -40.2070  -10.3810   91.4770 C.3    49  VAL49       0.0019
     78  CG2      -39.6860  -12.0710   93.2460 C.3    49  VAL49       0.0019
@<TRIPOS>BOND
     1    75    74    2
     2    74    73    1
     3    77    76    1
     4    73    76    1
     5    73    72    1
     6    76    78    1
     7    65    64    2
     8    64    63    1
     9    58    57    2
    10    57    56    1
    11    62    63    1
    12    60    59    1
    13    63    66    1
    14    59    56    1
    15    59    61    1
    16    56    55    1
    17    66    67    1
    18     5     2    1
    19     5     6    1
    20     2     1    1
    21     2     3    1
    22    13    14    1
    23    28    29    1
    24    14    17    1
    25    14    15    1
    26    19    17    1
    27     4     3    2
    28    18    17    1
    29    67    69   ar
    30    67    68   ar
    31    39    40    1
    32    16    15    2
    33     3     7   am
    34    35    36    2
    35    35    34    1
    36    29    30    1
    37    29    32    1
    38    15    20   am
    39    50    49    2
    40    31    30    2
    41    30    33   am
    42    69    71   ar
    43    49    48    1
    44    68    70   ar
    45    41    40    1
    46    41    42    2
    47    33    34    1
    48    40    43    1
    49    20    21    1
    50    34    37    1
    51     7     8    1
    52    22    23    2
    53    22    21    1
    54    46    44    1
    55    37    38    1
    56    71    70   ar
    57    21    24    1
    58     9    10    2
    59     9     8    1
    60    48    51    1
    61    48    47    1
    62     8    11    1
    63    43    44    1
    64    51    52    1
    65    44    45    1
    66    26    24    1
    67    24    25    1
    68    11    12    1
    69    52    53    1
    70    52    54    1
    71    25    27    1
