@<TRIPOS>MOLECULE
tmp/4y28N02.pdb
 99 98 0 0 0
SMALL
GASTEIGER

@<TRIPOS>ATOM
      1  N         57.6390   35.9110   86.1420 N.3    50  TRP50      -0.1241
      2  CA        57.0540   37.1130   85.5820 C.3    50  TRP50       0.1605
      3  C         56.0520   37.6850   86.5550 C.2    50  TRP50       0.2264
      4  O         55.9610   38.8840   86.7260 O.2    50  TRP50      -0.2867
      5  CB        56.4270   36.8640   84.2290 C.3    50  TRP50       0.0550
      6  CG        57.4210   36.8080   83.1350 C.ar   50  TRP50       0.0003
      7  CD1       57.6550   35.7680   82.3090 C.ar   50  TRP50       0.0946
      8  CD2       58.3310   37.8340   82.7480 C.ar   50  TRP50       0.0152
      9  NE1       58.6470   36.0740   81.4270 N.ar   50  TRP50      -0.2442
     10  CE2       59.0820   37.3420   81.6820 C.ar   50  TRP50       0.0810
     11  CE3       58.5870   39.1160   83.2040 C.ar   50  TRP50       0.0012
     12  CZ2       60.0630   38.0840   81.0680 C.ar   50  TRP50       0.0191
     13  CZ3       59.5550   39.8440   82.5890 C.ar   50  TRP50       0.0001
     14  CH2       60.2810   39.3330   81.5350 C.ar   50  TRP50       0.0015
     15  N         48.6720   50.9420   87.0630 N.3    75  TRP75      -0.1241
     16  CA        49.0560   49.9220   86.1080 C.3    75  TRP75       0.1605
     17  C         48.0950   49.7330   84.9550 C.2    75  TRP75       0.2264
     18  O         48.5060   49.6700   83.8030 O.2    75  TRP75      -0.2867
     19  CB        49.3070   48.5990   86.8100 C.3    75  TRP75       0.0550
     20  CG        48.1220   47.9850   87.4110 C.ar   75  TRP75       0.0003
     21  CD1       47.6580   48.1790   88.6600 C.ar   75  TRP75       0.0946
     22  CD2       47.2620   47.0330   86.8050 C.ar   75  TRP75       0.0152
     23  NE1       46.5500   47.4170   88.8730 N.ar   75  TRP75      -0.2442
     24  CE2       46.2870   46.7010   87.7420 C.ar   75  TRP75       0.0810
     25  CE3       47.2200   46.4310   85.5570 C.ar   75  TRP75       0.0012
     26  CZ2       45.2840   45.8030   87.4740 C.ar   75  TRP75       0.0191
     27  CZ3       46.2220   45.5430   85.2960 C.ar   75  TRP75       0.0001
     28  CH2       45.2670   45.2380   86.2430 C.ar   75  TRP75       0.0015
     29  N         48.9680   52.5470   82.3060 N.3    78  ALA78      -0.1231
     30  CA        50.2380   52.9630   81.7610 C.3    78  ALA78       0.1694
     31  C         50.1500   52.9870   80.2620 C.2    78  ALA78       0.2592
     32  O         50.9050   53.6710   79.5970 O.2    78  ALA78      -0.2718
     33  CB        51.3290   52.0230   82.2040 C.3    78  ALA78       0.0304
     34  N         49.2230   52.2090   79.7420 N.am   79  GLY79      -0.1957
     35  CA        49.0400   52.0600   78.3210 C.3    79  GLY79       0.1869
     36  C         48.6770   53.2150   77.4300 C.2    79  GLY79       0.2309
     37  O         49.1630   53.2710   76.3110 O.2    79  GLY79      -0.2863
     38  N         54.4620   58.3720   75.8180 N.3    83  TYR83      -0.1227
     39  CA        55.7500   57.6880   75.7580 C.3    83  TYR83       0.1736
     40  C         56.5180   58.1000   74.5410 C.2    83  TYR83       0.2595
     41  O         55.9210   58.4070   73.5190 O.2    83  TYR83      -0.2718
     42  CB        55.5880   56.1910   75.8060 C.3    83  TYR83       0.0548
     43  CG        54.9420   55.7510   77.0710 C.ar   83  TYR83      -0.0200
     44  CD1       53.5940   55.8740   77.2330 C.ar   83  TYR83      -0.0009
     45  CD2       55.6800   55.2370   78.1090 C.ar   83  TYR83      -0.0009
     46  CE1       52.9770   55.4860   78.3920 C.ar   83  TYR83       0.0417
     47  CE2       55.0760   54.8380   79.2750 C.ar   83  TYR83       0.0417
     48  CZ        53.7240   54.9660   79.4070 C.ar   83  TYR83       0.1957
     49  OH        53.0880   54.5790   80.5530 O.3    83  TYR83      -0.2866
     50  N         57.8420   58.1020   74.6290 N.am   84  PHE84      -0.1976
     51  CA        58.6190   58.4740   73.4730 C.3    84  PHE84       0.1639
     52  C         58.4530   57.2430   72.6340 C.2    84  PHE84       0.2290
     53  O         58.7430   56.1750   73.1180 O.2    84  PHE84      -0.2864
     54  CB        60.0710   58.7420   73.8640 C.3    84  PHE84       0.0560
     55  CG        60.9510   57.5260   73.9110 C.ar   84  PHE84      -0.0200
     56  CD1       61.3190   56.9040   72.7480 C.ar   84  PHE84      -0.0042
     57  CD2       61.3890   57.0140   75.1040 C.ar   84  PHE84      -0.0042
     58  CE1       62.1280   55.7990   72.7710 C.ar   84  PHE84      -0.0003
     59  CE2       62.2020   55.9110   75.1390 C.ar   84  PHE84      -0.0003
     60  CZ        62.5720   55.3010   73.9710 C.ar   84  PHE84      -0.0000
     61  N         57.2090   49.8340   70.3290 N.3    90  LEU90      -0.1245
     62  CA        57.6780   49.1440   71.5100 C.3    90  LEU90       0.1561
     63  C         57.3960   47.6770   71.4180 C.2    90  LEU90       0.2260
     64  O         58.2000   46.8460   71.8010 O.2    90  LEU90      -0.2867
     65  CB        56.9500   49.6860   72.7140 C.3    90  LEU90       0.0270
     66  CG        57.2550   51.1280   73.0560 C.3    90  LEU90       0.0019
     67  CD1       56.0570   51.7360   73.7400 C.3    90  LEU90       0.0001
     68  CD2       58.4700   51.1820   73.9560 C.3    90  LEU90       0.0001
     69  N         59.4960   45.7560   69.1130 N.3    93  ILE93      -0.1231
     70  CA        60.7990   45.6720   69.7140 C.3    93  ILE93       0.1692
     71  C         60.7330   44.6230   70.7830 C.2    93  ILE93       0.2591
     72  O         61.6000   43.7740   70.8820 O.2    93  ILE93      -0.2718
     73  CB        61.2220   47.0020   70.3370 C.3    93  ILE93       0.0266
     74  CG1       61.3740   48.0570   69.2520 C.3    93  ILE93       0.0019
     75  CG2       62.5160   46.8280   71.1070 C.3    93  ILE93       0.0020
     76  CD1       62.1640   49.2680   69.6790 C.3    93  ILE93       0.0001
     77  N         59.6890   44.6870   71.5900 N.am   94  GLU94      -0.1979
     78  CA        59.5350   43.7410   72.6730 C.3    94  GLU94       0.1602
     79  C         59.5040   42.3450   72.1260 C.2    94  GLU94       0.2287
     80  O         59.9990   41.4050   72.7280 O.2    94  GLU94      -0.2864
     81  CB        58.2560   44.0180   73.4410 C.3    94  GLU94       0.0415
     82  CG        57.9650   42.9890   74.5070 C.3    94  GLU94       0.1163
     83  CD        56.6420   43.2130   75.1830 C.2    94  GLU94       0.3649
     84  OE1       56.3540   42.5210   76.1630 O.co2  94  GLU94      -0.2457
     85  OE2       55.8870   44.0820   74.7430 O.co2  94  GLU94      -0.2457
     86  N         63.0590   41.0490   70.6740 N.3    97  LEU97      -0.1231
     87  CA        63.9330   40.6280   71.7500 C.3    97  LEU97       0.1693
     88  C         63.4270   39.4250   72.5190 C.2    97  LEU97       0.2592
     89  O         64.1710   38.4900   72.7710 O.2    97  LEU97      -0.2718
     90  CB        64.1890   41.7870   72.6990 C.3    97  LEU97       0.0284
     91  CG        64.8280   42.9780   72.0020 C.3    97  LEU97       0.0019
     92  CD1       64.8780   44.1600   72.9470 C.3    97  LEU97       0.0001
     93  CD2       66.2160   42.6220   71.5050 C.3    97  LEU97       0.0001
     94  N         62.1490   39.4380   72.8740 N.am   98  SER98      -0.1952
     95  CA        61.5860   38.3280   73.6260 C.3    98  SER98       0.1924
     96  C         61.6400   37.0870   72.7650 C.2    98  SER98       0.2314
     97  O         61.8700   35.9850   73.2480 O.2    98  SER98      -0.2863
     98  CB        60.1930   38.6310   74.1840 C.3    98  SER98       0.2116
     99  OG        60.2760   39.1550   75.5060 O.3    98  SER98      -0.2180
@<TRIPOS>BOND
     1    69    70    1
     2    74    76    1
     3    74    73    1
     4    70    73    1
     5    70    71    1
     6    61    62    1
     7    73    75    1
     8    86    87    1
     9    71    72    2
    10    71    77   am
    11    63    62    1
    12    63    64    2
    13    93    91    1
    14    62    65    1
    15    77    78    1
    16    87    88    1
    17    87    90    1
    18    91    90    1
    19    91    92    1
    20    79    78    1
    21    79    80    2
    22    88    89    2
    23    88    94   am
    24    52    53    2
    25    52    51    1
    26    78    81    1
    27    65    66    1
    28    56    58   ar
    29    56    55   ar
    30    96    97    2
    31    96    95    1
    32    58    60   ar
    33    94    95    1
    34    66    67    1
    35    66    68    1
    36    81    82    1
    37    51    54    1
    38    51    50    1
    39    41    40    2
    40    95    98    1
    41    54    55    1
    42    55    57   ar
    43    60    59   ar
    44    98    99    1
    45    82    83    1
    46    40    50   am
    47    40    39    1
    48    85    83   ar
    49    57    59   ar
    50    83    84   ar
    51    39    42    1
    52    39    38    1
    53    42    43    1
    54    37    36    2
    55    43    44   ar
    56    43    45   ar
    57    44    46   ar
    58    36    35    1
    59    45    47   ar
    60    35    34    1
    61    46    48   ar
    62    47    48   ar
    63    48    49    1
    64    32    31    2
    65    34    31   am
    66    31    30    1
    67    12    14   ar
    68    12    10   ar
    69     9    10   ar
    70     9     7   ar
    71    14    13   ar
    72    10     8   ar
    73    30    33    1
    74    30    29    1
    75     7     6   ar
    76    13    11   ar
    77     8     6   ar
    78     8    11   ar
    79     6     5    1
    80    18    17    2
    81     5     2    1
    82    17    16    1
    83    27    25   ar
    84    27    28   ar
    85    25    22   ar
    86     2     1    1
    87     2     3    1
    88    16    19    1
    89    16    15    1
    90    28    26   ar
    91     3     4    2
    92    22    20   ar
    93    22    24   ar
    94    19    20    1
    95    20    21   ar
    96    26    24   ar
    97    24    23   ar
    98    21    23   ar
