@<TRIPOS>MOLECULE
tmp/4y28N08.pdb
 96 91 0 0 0
SMALL
GASTEIGER

@<TRIPOS>ATOM
      1  N         55.7550   17.8490  102.5750 N.3     3  GLY3       -0.1225
      2  CA        54.6370   18.6450  103.0160 C.3     3  GLY3        0.1811
      3  C         53.3900   18.1550  102.3410 C.2     3  GLY3        0.2280
      4  O         53.4130   17.8760  101.1580 O.2     3  GLY3       -0.2866
      5  N         49.7710   18.9220  100.9680 N.3     5  TRP5       -0.1241
      6  CA        48.8810   20.0060  100.6310 C.3     5  TRP5        0.1605
      7  C         47.5960   19.6560  101.2920 C.2     5  TRP5        0.2264
      8  O         46.7810   20.5110  101.5800 O.2     5  TRP5       -0.2867
      9  CB        48.6990   20.1260   99.1270 C.3     5  TRP5        0.0550
     10  CG        47.8260   19.1030   98.5160 C.ar    5  TRP5        0.0003
     11  CD1       48.1920   17.8860   98.0680 C.ar    5  TRP5        0.0946
     12  CD2       46.4290   19.2150   98.2880 C.ar    5  TRP5        0.0152
     13  NE1       47.1090   17.2260   97.5720 N.ar    5  TRP5       -0.2442
     14  CE2       46.0100   18.0290   97.6950 C.ar    5  TRP5        0.0810
     15  CE3       45.4880   20.2080   98.5310 C.ar    5  TRP5        0.0012
     16  CZ2       44.6980   17.8080   97.3390 C.ar    5  TRP5        0.0191
     17  CZ3       44.1920   19.9860   98.1720 C.ar    5  TRP5        0.0001
     18  CH2       43.8070   18.8000   97.5870 C.ar    5  TRP5        0.0015
     19  N         59.6500   22.6450   96.4010 N.3    21  GLY21      -0.1210
     20  CA        58.2480   22.9960   96.4720 C.3    21  GLY21       0.1956
     21  C         57.2770   21.8870   96.1710 C.2    21  GLY21       0.2612
     22  O         56.2570   22.1070   95.5460 O.2    21  GLY21      -0.2717
     23  N         57.5930   20.6940   96.6400 N.am   22  ASP22      -0.1959
     24  CA        56.7540   19.5430   96.4110 C.3    22  ASP22       0.1840
     25  C         55.9560   19.2170   97.6460 C.2    22  ASP22       0.2622
     26  O         56.5020   18.8840   98.6770 O.2    22  ASP22      -0.2715
     27  CB        57.6510   18.3660   96.0460 C.3    22  ASP22       0.1450
     28  CG        56.8940   17.0820   95.8230 C.2    22  ASP22       0.3671
     29  OD1       55.7050   16.9920   96.1580 O.co2  22  ASP22      -0.2456
     30  OD2       57.5080   16.1390   95.3030 O.co2  22  ASP22      -0.2456
     31  N         54.6450   19.3080   97.5200 N.am   23  ASN23      -0.1972
     32  CA        53.7440   18.9970   98.6110 C.3    23  ASN23       0.1688
     33  C         52.7050   17.9850   98.2050 C.2    23  ASN23       0.2292
     34  O         51.6170   17.9640   98.7490 O.2    23  ASN23      -0.2864
     35  CB        53.0800   20.2460   99.1540 C.3    23  ASN23       0.1181
     36  CG        54.0580   21.3510   99.3740 C.2    23  ASN23       0.2629
     37  OD1       54.2560   21.7940  100.4870 O.2    23  ASN23      -0.2716
     38  ND2       54.6950   21.7870   98.3090 N.am   23  ASN23      -0.0877
     39  N         63.4420   26.5440   96.9940 N.3   151  GLU151     -0.1231
     40  CA        62.1250   26.3900   97.5570 C.3   151  GLU151      0.1699
     41  C         61.5040   27.7490   97.7400 C.2   151  GLU151      0.2592
     42  O         60.3540   27.9640   97.3990 O.2   151  GLU151     -0.2718
     43  CB        62.1990   25.6770   98.9110 C.3   151  GLU151      0.0402
     44  CG        62.5070   24.1920   98.8300 C.3   151  GLU151      0.1161
     45  CD        62.2690   23.4430  100.1270 C.2   151  GLU151      0.3649
     46  OE1       63.0360   23.6260  101.0800 O.co2 151  GLU151     -0.2457
     47  OE2       61.3250   22.6430  100.1860 O.co2 151  GLU151     -0.2457
     48  N         62.2990   28.7030   98.1810 N.am  152  LYS152     -0.1980
     49  CA        61.8120   30.0560   98.3660 C.3   152  LYS152      0.1596
     50  C         61.3740   30.7720   97.1140 C.2   152  LYS152      0.2287
     51  O         60.4340   31.5350   97.1450 O.2   152  LYS152     -0.2864
     52  CB        62.8320   30.8920   99.1270 C.3   152  LYS152      0.0298
     53  CG        63.2770   30.2490  100.4140 C.3   152  LYS152      0.0038
     54  CD        62.2950   30.4900  101.5160 C.3   152  LYS152      0.0206
     55  CE        62.7360   29.9470  102.8680 C.3   152  LYS152      0.1093
     56  NZ        63.0380   28.5210  102.8890 N.3   152  LYS152     -0.1314
     57  N         60.0760   29.4760   94.4220 N.3   154  ILE154     -0.1231
     58  CA        58.8110   28.9280   94.0040 C.3   154  ILE154      0.1692
     59  C         57.6610   29.4160   94.8350 C.2   154  ILE154      0.2591
     60  O         56.6090   29.7550   94.3210 O.2   154  ILE154     -0.2718
     61  CB        58.8380   27.3940   94.0610 C.3   154  ILE154      0.0266
     62  CG1       59.9270   26.8590   93.1390 C.3   154  ILE154      0.0019
     63  CG2       57.4910   26.8160   93.6680 C.3   154  ILE154      0.0020
     64  CD1       59.8620   25.3720   92.9160 C.3   154  ILE154      0.0001
     65  N         57.8700   29.4650   96.1330 N.am  155  ALA155     -0.1980
     66  CA        56.8140   29.8820   97.0110 C.3   155  ALA155      0.1597
     67  C         56.4170   31.2830   96.6770 C.2   155  ALA155      0.2287
     68  O         55.2420   31.6030   96.6260 O.2   155  ALA155     -0.2864
     69  CB        57.2800   29.8000   98.4410 C.3   155  ALA155      0.0319
     70  N         54.4860   31.2440   93.4550 N.3   158  ARG158     -0.1231
     71  CA        53.1560   30.7320   93.6140 C.3   158  ARG158      0.1694
     72  C         52.3330   31.7960   94.2550 C.2   158  ARG158      0.2591
     73  O         51.2080   32.0340   93.8710 O.2   158  ARG158     -0.2718
     74  CB        53.1820   29.4780   94.4540 C.3   158  ARG158      0.0321
     75  CG        53.8170   28.3370   93.7050 C.3   158  ARG158      0.0489
     76  CD        53.7360   27.0420   94.4610 C.3   158  ARG158      0.2205
     77  NE        54.4350   26.0050   93.7340 N.pl3 158  ARG158     -0.0865
     78  CZ        54.6700   24.8050   94.2220 C.cat 158  ARG158      0.5346
     79  NH1       54.2680   24.4940   95.4280 N.pl3 158  ARG158      0.1354
     80  NH2       55.3090   23.9210   93.5010 N.pl3 158  ARG158      0.1354
     81  N         52.9030   32.4530   95.2430 N.am  159  LEU159     -0.1980
     82  CA        52.1870   33.5100   95.9200 C.3   159  LEU159      0.1596
     83  C         51.9110   34.6700   94.9990 C.2   159  LEU159      0.2287
     84  O         50.8510   35.2660   95.0310 O.2   159  LEU159     -0.2864
     85  CB        52.9490   33.9920   97.1330 C.3   159  LEU159      0.0297
     86  CG        52.1680   35.0420   97.9070 C.3   159  LEU159      0.0022
     87  CD1       50.8370   34.4900   98.3650 C.3   159  LEU159      0.0001
     88  CD2       52.9620   35.5360   99.0940 C.3   159  LEU159      0.0001
     89  N         48.7410   34.3710   92.7660 N.3   162  LEU162     -0.1245
     90  CA        47.4720   34.3690   93.3790 C.3   162  LEU162      0.1561
     91  C         47.2020   35.8540   93.4680 C.2   162  LEU162      0.2260
     92  O         46.1090   36.2890   93.2250 O.2   162  LEU162     -0.2867
     93  CB        47.4910   33.6930   94.7260 C.3   162  LEU162      0.0270
     94  CG        47.3910   32.1760   94.6680 C.3   162  LEU162      0.0019
     95  CD1       46.8350   31.7100   95.9900 C.3   162  LEU162      0.0001
     96  CD2       46.4750   31.7080   93.5600 C.3   162  LEU162      0.0001
@<TRIPOS>BOND
     1    89    90    1
     2    64    62    1
     3    62    61    1
     4    92    91    2
     5    90    91    1
     6    90    93    1
     7    70    71    1
     8    80    78    1
     9    96    94    1
    10    71    72    1
    11    71    74    1
    12    63    61    1
    13    75    74    1
    14    75    76    1
    15    77    78    2
    16    77    76    1
    17    73    72    2
    18    58    61    1
    19    58    57    1
    20    58    59    1
    21    78    79    1
    22    72    81   am
    23    60    59    2
    24    94    93    1
    25    94    95    1
    26    59    65   am
    27    83    84    2
    28    83    82    1
    29    81    82    1
    30    30    28   ar
    31    22    21    2
    32    28    27    1
    33    28    29   ar
    34    82    85    1
    35    27    24    1
    36    65    66    1
    37    21    20    1
    38    21    23   am
    39    19    20    1
    40    24    23    1
    41    24    25    1
    42    68    67    2
    43    67    66    1
    44    39    40    1
    45    66    69    1
    46    50    51    2
    47    50    49    1
    48    85    86    1
    49    16    18   ar
    50    16    14   ar
    51    42    41    2
    52    31    25   am
    53    31    32    1
    54    40    41    1
    55    40    43    1
    56    13    14   ar
    57    13    11   ar
    58    18    17   ar
    59    25    26    2
    60    14    12   ar
    61    41    48   am
    62    86    87    1
    63    86    88    1
    64    11    10   ar
    65    17    15   ar
    66    48    49    1
    67    33    32    1
    68    33    34    2
    69    12    10   ar
    70    12    15   ar
    71    38    36   am
    72    49    52    1
    73    10     9    1
    74    32    35    1
    75    44    43    1
    76    44    45    1
    77    52    53    1
    78     9     6    1
    79    35    36    1
    80    36    37    2
    81    45    47   ar
    82    45    46   ar
    83    53    54    1
    84     6     5    1
    85     6     7    1
    86     4     3    2
    87     7     8    2
    88    54    55    1
    89     3     2    1
    90     1     2    1
    91    55    56    1
