@<TRIPOS>MOLECULE
tmp/4y28N03.pdb
 104 103 0 0 0
SMALL
GASTEIGER

@<TRIPOS>ATOM
      1  N         63.8870   36.3450   70.5550 N.3   100  TYR100     -0.1241
      2  CA        65.2420   35.8080   70.5850 C.3   100  TYR100      0.1605
      3  C         65.6910   35.1660   71.8900 C.2   100  TYR100      0.2264
      4  O         66.2990   34.1130   71.8970 O.2   100  TYR100     -0.2867
      5  CB        66.2660   36.8850   70.2010 C.3   100  TYR100      0.0534
      6  CG        67.6970   36.4030   70.3000 C.ar  100  TYR100     -0.0201
      7  CD1       68.3050   36.2450   71.5290 C.ar  100  TYR100     -0.0009
      8  CD2       68.4190   36.0690   69.1750 C.ar  100  TYR100     -0.0009
      9  CE1       69.5960   35.7850   71.6310 C.ar  100  TYR100      0.0417
     10  CE2       69.7140   35.6100   69.2700 C.ar  100  TYR100      0.0417
     11  CZ        70.2940   35.4720   70.5000 C.ar  100  TYR100      0.1957
     12  OH        71.5800   35.0150   70.6010 O.3   100  TYR100     -0.2866
     13  N         64.7740   30.6720   73.1660 N.3   104  ARG104     -0.1245
     14  CA        66.1440   30.6500   73.4630 C.3   104  ARG104      0.1563
     15  C         66.4090   29.6960   74.5930 C.2   104  ARG104      0.2260
     16  O         67.2530   28.8240   74.4940 O.2   104  ARG104     -0.2867
     17  CB        66.7880   32.0010   73.6840 C.3   104  ARG104      0.0307
     18  CG        68.2690   31.8940   74.0170 C.3   104  ARG104      0.0489
     19  CD        69.1670   31.6810   72.8060 C.3   104  ARG104      0.2205
     20  NE        70.5250   31.3390   73.2230 N.pl3 104  ARG104     -0.0865
     21  CZ        71.5890   31.3220   72.4250 C.cat 104  ARG104      0.5346
     22  NH1       71.4750   31.6380   71.1450 N.pl3 104  ARG104      0.1354
     23  NH2       72.7720   30.9860   72.9110 N.pl3 104  ARG104      0.1354
     24  N         78.3820   30.3480   72.5970 N.3   117  GLN117     -0.1231
     25  CA        78.0090   31.4620   71.7050 C.3   117  GLN117      0.1698
     26  C         77.7290   32.7570   72.4340 C.2   117  GLN117      0.2592
     27  O         76.6880   33.3720   72.2680 O.2   117  GLN117     -0.2718
     28  CB        76.8510   31.0910   70.7770 C.3   117  GLN117      0.0381
     29  CG        76.3650   32.2040   69.8560 C.3   117  GLN117      0.0905
     30  CD        77.3570   33.3360   69.6560 C.2   117  GLN117      0.2608
     31  OE1       77.0460   34.4750   69.9600 O.2   117  GLN117     -0.2717
     32  NE2       78.5330   33.0330   69.1380 N.am  117  GLN117     -0.0878
     33  N         78.6680   33.1520   73.2690 N.am  118  ASP118     -0.1960
     34  CA        78.5010   34.3560   74.0570 C.3   118  ASP118      0.1825
     35  C         79.8590   35.0110   74.1400 C.2   118  ASP118      0.2464
     36  O         80.7770   34.4580   74.7420 O.2   118  ASP118     -0.2730
     37  CB        78.0340   34.0140   75.4750 C.3   118  ASP118      0.1450
     38  CG        77.3830   32.6360   75.5840 C.2   118  ASP118      0.3671
     39  OD1       78.1480   31.6580   75.7050 O.co2 118  ASP118     -0.2456
     40  OD2       76.1390   32.5440   75.5390 O.co2 118  ASP118     -0.2456
     41  N         80.0390   36.2240   73.4980 N.am  119  PRO119     -0.2715
     42  CA        78.8510   36.7770   72.8340 C.3   119  PRO119      0.1536
     43  C         78.8990   36.1320   71.4860 C.2   119  PRO119      0.2598
     44  O         79.0390   34.9160   71.4710 O.2   119  PRO119     -0.2715
     45  CB        79.1930   38.2520   72.7110 C.3   119  PRO119      0.0310
     46  CG        80.6250   38.2440   72.3270 C.3   119  PRO119      0.0237
     47  CD        81.2330   37.1200   73.1150 C.3   119  PRO119      0.0939
     48  N         78.8160   36.8740   70.3870 N.am  120  ILE120     -0.1978
     49  CA        78.8910   36.2400   69.0790 C.3   120  ILE120      0.1596
     50  C         80.2380   35.5380   69.0540 C.2   120  ILE120      0.2287
     51  O         80.3400   34.4080   68.5830 O.2   120  ILE120     -0.2864
     52  CB        78.7880   37.2620   67.9460 C.3   120  ILE120      0.0276
     53  CG1       77.3530   37.7460   67.8180 C.3   120  ILE120      0.0022
     54  CG2       79.2160   36.6400   66.6310 C.3   120  ILE120      0.0022
     55  CD1       76.7220   38.0950   69.1390 C.3   120  ILE120      0.0001
     56  N         83.2000   33.6970   75.8610 N.3   124  TYR124     -0.1227
     57  CA        82.4440   33.5260   77.1030 C.3   124  TYR124      0.1736
     58  C         81.3220   32.4960   77.1200 C.2   124  TYR124      0.2596
     59  O         80.5550   32.3700   76.1750 O.2   124  TYR124     -0.2718
     60  CB        81.9520   34.8880   77.5880 C.3   124  TYR124      0.0548
     61  CG        82.9740   35.9690   77.3360 C.ar  124  TYR124     -0.0200
     62  CD1       84.2680   35.8390   77.8060 C.ar  124  TYR124     -0.0009
     63  CD2       82.6620   37.0890   76.5890 C.ar  124  TYR124     -0.0009
     64  CE1       85.2180   36.8080   77.5640 C.ar  124  TYR124      0.0417
     65  CE2       83.6040   38.0650   76.3420 C.ar  124  TYR124      0.0417
     66  CZ        84.8800   37.9200   76.8330 C.ar  124  TYR124      0.1957
     67  OH        85.8240   38.8900   76.5950 O.3   124  TYR124     -0.2866
     68  N         81.2520   31.7510   78.2150 N.am  125  SER125     -0.1938
     69  CA        80.2470   30.7160   78.3650 C.3   125  SER125      0.2055
     70  C         79.6160   30.6540   79.7530 C.2   125  SER125      0.2642
     71  O         80.0250   31.3560   80.6670 O.2   125  SER125     -0.2714
     72  CB        80.8510   29.3630   78.0120 C.3   125  SER125      0.2130
     73  OG        80.0370   28.3080   78.4830 O.3   125  SER125     -0.2179
     74  N         78.6130   29.7910   79.8790 N.am  126  LEU126     -0.1977
     75  CA        77.8640   29.5790   81.0960 C.3   126  LEU126      0.1596
     76  C         78.2030   28.2130   81.6090 C.2   126  LEU126      0.2287
     77  O         78.0090   27.2210   80.9170 O.2   126  LEU126     -0.2864
     78  CB        76.3800   29.6180   80.8000 C.3   126  LEU126      0.0297
     79  CG        75.6870   30.9250   81.1080 C.3   126  LEU126      0.0022
     80  CD1       76.5520   32.0680   80.6280 C.3   126  LEU126      0.0001
     81  CD2       74.3280   30.9520   80.4480 C.3   126  LEU126      0.0001
     82  N         76.5030   31.6760   85.5970 N.3   136  GLY136     -0.1210
     83  CA        77.2970   32.7230   85.0210 C.3   136  GLY136      0.1956
     84  C         76.7420   34.0820   85.2930 C.2   136  GLY136      0.2612
     85  O         76.1730   34.3420   86.3400 O.2   136  GLY136     -0.2717
     86  N         76.9210   34.9510   84.3200 N.am  137  ILE137     -0.1965
     87  CA        76.5070   36.3200   84.4350 C.3   137  ILE137      0.1727
     88  C         75.1080   36.4150   84.9810 C.2   137  ILE137      0.2616
     89  O         74.7310   37.4270   85.5410 O.2   137  ILE137     -0.2715
     90  CB        76.6060   37.0430   83.0960 C.3   137  ILE137      0.0290
     91  CG1       76.1560   38.4920   83.2550 C.3   137  ILE137      0.0022
     92  CG2       75.7860   36.3120   82.0550 C.3   137  ILE137      0.0023
     93  CD1       76.8250   39.4530   82.3000 C.3   137  ILE137      0.0001
     94  N         74.3390   35.3560   84.8310 N.am  138  PHE138     -0.1974
     95  CA        72.9850   35.3780   85.3360 C.3   138  PHE138      0.1639
     96  C         72.9980   35.5340   86.8190 C.2   138  PHE138      0.2290
     97  O         72.1380   36.1850   87.3810 O.2   138  PHE138     -0.2864
     98  CB        72.1950   34.1810   84.8860 C.3   138  PHE138      0.0560
     99  CG        71.6870   34.3300   83.5040 C.ar  138  PHE138     -0.0200
    100  CD1       70.5560   35.0600   83.2610 C.ar  138  PHE138     -0.0042
    101  CD2       72.3840   33.8020   82.4470 C.ar  138  PHE138     -0.0042
    102  CE1       70.1010   35.2250   81.9810 C.ar  138  PHE138     -0.0003
    103  CE2       71.9350   33.9590   81.1620 C.ar  138  PHE138     -0.0003
    104  CZ        70.7920   34.6730   80.9280 C.ar  138  PHE138     -0.0000
@<TRIPOS>BOND
     1    54    52    1
     2    53    52    1
     3    53    55    1
     4    52    49    1
     5    51    50    2
     6    50    49    1
     7    49    48    1
     8    32    30   am
     9     8    10   ar
    10     8     6   ar
    11    10    11   ar
    12    30    29    1
    13    30    31    2
    14    29    28    1
    15     5     6    1
    16     5     2    1
    17     6     7   ar
    18    48    43   am
    19    11    12    1
    20    11     9   ar
    21     1     2    1
    22     2     3    1
    23    28    25    1
    24    22    21    1
    25    44    43    2
    26    43    42    1
    27     7     9   ar
    28    25    26    1
    29    25    24    1
    30     3     4    2
    31    27    26    2
    32    46    45    1
    33    46    47    1
    34    21    23    1
    35    21    20    2
    36    26    33   am
    37    45    42    1
    38    19    20    1
    39    19    18    1
    40    42    41    1
    41    47    41    1
    42    13    14    1
    43    33    34    1
    44    14    17    1
    45    14    15    1
    46    41    35   am
    47    17    18    1
    48    34    35    1
    49    34    37    1
    50    35    36    2
    51    16    15    2
    52    37    38    1
    53    40    38   ar
    54    38    39   ar
    55    56    57    1
    56    59    58    2
    57    65    63   ar
    58    65    66   ar
    59    63    61   ar
    60    67    66    1
    61    66    64   ar
    62    57    58    1
    63    57    60    1
    64    58    68   am
    65    61    60    1
    66    61    62   ar
    67    64    62   ar
    68    72    69    1
    69    72    73    1
    70    68    69    1
    71    69    70    1
    72    70    74   am
    73    70    71    2
    74    74    75    1
    75    81    79    1
    76    80    79    1
    77    78    75    1
    78    78    79    1
    79    77    76    2
    80   104   103   ar
    81   104   102   ar
    82    75    76    1
    83   103   101   ar
    84   102   100   ar
    85    92    90    1
    86    93    91    1
    87   101    99   ar
    88    90    91    1
    89    90    87    1
    90   100    99   ar
    91    99    98    1
    92    86    87    1
    93    86    84   am
    94    87    88    1
    95    94    88   am
    96    94    95    1
    97    98    95    1
    98    88    89    2
    99    83    84    1
   100    83    82    1
   101    84    85    2
   102    95    96    1
   103    96    97    2
