@<TRIPOS>MOLECULE
tmp/4y28M13.pdb
 128 122 0 0 0
SMALL
GASTEIGER

@<TRIPOS>ATOM
      1  N         17.3470   12.3820  121.8290 N.3   169  LEU169     -0.1245
      2  CA        16.2390   13.1140  122.4050 C.3   169  LEU169      0.1561
      3  C         16.2380   14.5410  121.9310 C.2   169  LEU169      0.2260
      4  O         15.2060   15.1120  121.6430 O.2   169  LEU169     -0.2867
      5  CB        16.3220   13.1090  123.9110 C.3   169  LEU169      0.0270
      6  CG        15.2220   13.9530  124.5300 C.3   169  LEU169      0.0019
      7  CD1       13.8830   13.5410  123.9580 C.3   169  LEU169      0.0001
      8  CD2       15.2360   13.8160  126.0350 C.3   169  LEU169      0.0001
      9  N         14.8170   14.9650  118.2520 N.3   172  LEU172     -0.1231
     10  CA        13.3810   14.9960  118.1030 C.3   172  LEU172      0.1693
     11  C         12.9060   16.3300  118.5770 C.2   172  LEU172      0.2591
     12  O         12.0050   16.9260  118.0140 O.2   172  LEU172     -0.2718
     13  CB        12.7390   13.9100  118.9400 C.3   172  LEU172      0.0284
     14  CG        13.4280   12.5710  118.7980 C.3   172  LEU172      0.0019
     15  CD1       12.6180   11.5000  119.4900 C.3   172  LEU172      0.0001
     16  CD2       13.5480   12.2600  117.3280 C.3   172  LEU172      0.0001
     17  N         13.5230   16.7920  119.6430 N.am  173  ALA173     -0.1980
     18  CA        13.1550   18.0530  120.2260 C.3   173  ALA173      0.1597
     19  C         13.2000   19.1790  119.2280 C.2   173  ALA173      0.2287
     20  O         12.2270   19.8870  119.0230 O.2   173  ALA173     -0.2864
     21  CB        14.0740   18.3620  121.3820 C.3   173  ALA173      0.0319
     22  N         13.3270   19.1210  116.0570 N.3   175  MET175     -0.1230
     23  CA        12.3890   18.9870  114.9640 C.3   175  MET175      0.1702
     24  C         11.0040   19.3120  115.4450 C.2   175  MET175      0.2592
     25  O         10.2180   19.9440  114.7620 O.2   175  MET175     -0.2718
     26  CB        12.4780   17.6470  114.2880 C.3   175  MET175      0.0401
     27  CG        12.5530   17.7970  112.7860 C.3   175  MET175      0.0596
     28  SD        14.1590   18.3750  112.2290 S.3   175  MET175     -0.1393
     29  CE        14.2860   19.9330  113.0610 C.3   175  MET175      0.0692
     30  N         10.7120   18.8840  116.6500 N.am  176  GLY176     -0.1957
     31  CA         9.4140   19.1240  117.2110 C.3   176  GLY176      0.1869
     32  C          9.1640   20.5990  117.3340 C.2   176  GLY176      0.2309
     33  O          8.0870   21.0530  117.0330 O.2   176  GLY176     -0.2863
     34  N          8.3580   22.2290  113.7750 N.3   179  PHE179     -0.1227
     35  CA         7.0130   21.8970  113.3580 C.3   179  PHE179      0.1736
     36  C          6.0180   22.5690  114.2680 C.2   179  PHE179      0.2595
     37  O          4.9570   23.0040  113.8500 O.2   179  PHE179     -0.2718
     38  CB         6.7940   20.3910  113.3420 C.3   179  PHE179      0.0547
     39  CG         7.2410   19.7330  112.0770 C.ar  179  PHE179     -0.0202
     40  CD1        6.3900   19.6350  111.0040 C.ar  179  PHE179     -0.0042
     41  CD2        8.5100   19.2130  111.9650 C.ar  179  PHE179     -0.0042
     42  CE1        6.7990   19.0300  109.8390 C.ar  179  PHE179     -0.0003
     43  CE2        8.9270   18.6080  110.8050 C.ar  179  PHE179     -0.0003
     44  CZ         8.0710   18.5170  109.7400 C.ar  179  PHE179     -0.0000
     45  N          6.3750   22.6430  115.5360 N.am  180  GLN180     -0.1979
     46  CA         5.4850   23.2060  116.5150 C.3   180  GLN180      0.1601
     47  C          5.1600   24.6350  116.1340 C.2   180  GLN180      0.2287
     48  O          4.0130   25.0550  116.2280 O.2   180  GLN180     -0.2864
     49  CB         6.1700   23.1910  117.8820 C.3   180  GLN180      0.0394
     50  CG         5.3240   22.6870  119.0390 C.3   180  GLN180      0.0908
     51  CD         5.8170   21.3620  119.5730 C.2   180  GLN180      0.2608
     52  OE1        6.9420   20.9670  119.3120 O.2   180  GLN180     -0.2717
     53  NE2        4.9790   20.6760  120.3270 N.am  180  GLN180     -0.0878
     54  N          2.7490   24.8060  112.8670 N.3   183  TYR183     -0.1227
     55  CA         1.4030   24.3430  113.0910 C.3   183  TYR183      0.1736
     56  C          0.7220   25.2680  114.0600 C.2   183  TYR183      0.2596
     57  O         -0.4840   25.4570  114.0060 O.2   183  TYR183     -0.2718
     58  CB         1.4200   22.9240  113.6350 C.3   183  TYR183      0.0548
     59  CG         0.0670   22.2680  113.6630 C.ar  183  TYR183     -0.0200
     60  CD1       -0.7800   22.4390  114.7400 C.ar  183  TYR183     -0.0009
     61  CD2       -0.3600   21.4750  112.6130 C.ar  183  TYR183     -0.0009
     62  CE1       -2.0160   21.8410  114.7700 C.ar  183  TYR183      0.0417
     63  CE2       -1.5930   20.8710  112.6350 C.ar  183  TYR183      0.0417
     64  CZ        -2.4150   21.0590  113.7150 C.ar  183  TYR183      0.1957
     65  OH        -3.6460   20.4620  113.7450 O.3   183  TYR183     -0.2866
     66  N          1.5020   25.8520  114.9550 N.am  184  THR184     -0.1953
     67  CA         0.9360   26.7640  115.9260 C.3   184  THR184      0.1897
     68  C          1.2630   28.2320  115.7830 C.2   184  THR184      0.2313
     69  O          0.5850   29.0660  116.3640 O.2   184  THR184     -0.2863
     70  CB         1.3580   26.3330  117.3210 C.3   184  THR184      0.1794
     71  OG1        0.8560   25.0210  117.5600 O.3   184  THR184     -0.2208
     72  CG2        0.7660   27.2630  118.3370 C.3   184  THR184      0.0378
     73  N          3.6450   26.8800  123.8230 N.3   191  ASN191     -0.1225
     74  CA         2.9670   25.6550  123.4810 C.3   191  ASN191      0.1785
     75  C          3.0100   24.8040  124.7120 C.2   191  ASN191      0.2597
     76  O          2.0400   24.1600  125.0750 O.2   191  ASN191     -0.2718
     77  CB         3.7130   24.9270  122.3680 C.3   191  ASN191      0.1169
     78  CG         3.9300   25.7860  121.1550 C.2   191  ASN191      0.2627
     79  OD1        5.0240   25.8530  120.6170 O.2   191  ASN191     -0.2716
     80  ND2        2.8830   26.4490  120.7170 N.am  191  ASN191     -0.0877
     81  N          4.1520   24.8260  125.3720 N.am  192  LEU192     -0.1980
     82  CA         4.3010   24.0140  126.5460 C.3   192  LEU192      0.1596
     83  C          3.3280   24.4080  127.6180 C.2   192  LEU192      0.2287
     84  O          2.6580   23.5650  128.1910 O.2   192  LEU192     -0.2864
     85  CB         5.7000   24.1950  127.1010 C.3   192  LEU192      0.0297
     86  CG         6.1890   23.1000  128.0450 C.3   192  LEU192      0.0022
     87  CD1        7.2420   23.6580  128.9850 C.3   192  LEU192      0.0001
     88  CD2        5.0490   22.4850  128.8360 C.3   192  LEU192      0.0001
     89  N          0.5800   26.2310  127.2980 N.3   194  ALA194     -0.1231
     90  CA        -0.7630   26.0460  126.8330 C.3   194  ALA194      0.1694
     91  C         -1.1830   24.6170  127.0700 C.2   194  ALA194      0.2592
     92  O         -2.2780   24.3550  127.5420 O.2   194  ALA194     -0.2718
     93  CB        -0.8310   26.3720  125.3640 C.3   194  ALA194      0.0304
     94  N         -0.3030   23.6850  126.7500 N.am  195  HIS195     -0.1976
     95  CA        -0.6170   22.2770  126.9190 C.3   195  HIS195      0.1656
     96  C         -0.9480   21.9350  128.3470 C.2   195  HIS195      0.2291
     97  O         -1.8840   21.2060  128.6110 O.2   195  HIS195     -0.2864
     98  CB         0.5330   21.3970  126.4280 C.3   195  HIS195      0.0771
     99  CG         0.2470   19.9300  126.5050 C.ar  195  HIS195      0.0820
    100  ND1       -0.8920   19.3690  125.9780 N.ar  195  HIS195     -0.2267
    101  CD2        0.9570   18.9100  127.0340 C.ar  195  HIS195      0.1154
    102  CE1       -0.8760   18.0660  126.1870 C.ar  195  HIS195      0.1986
    103  NE2        0.2360   17.7620  126.8260 N.ar  195  HIS195     -0.2212
    104  N         -5.5840   20.8040  124.4900 N.3   202  ALA202     -0.1231
    105  CA        -4.4990   21.4910  123.8240 C.3   202  ALA202      0.1694
    106  C         -3.4990   20.5830  123.1180 C.2   202  ALA202      0.2593
    107  O         -2.4730   20.2460  123.6770 O.2   202  ALA202     -0.2718
    108  CB        -3.7940   22.3910  124.8130 C.3   202  ALA202      0.0304
    109  N         -3.7950   20.2010  121.8830 N.am  203  THR203     -0.1939
    110  CA        -2.9170   19.3680  121.1290 C.3   203  THR203      0.2028
    111  C         -2.9050   19.8140  119.7160 C.2   203  THR203      0.2642
    112  O         -3.4940   20.7980  119.3430 O.2   203  THR203     -0.2714
    113  CB        -3.4470   17.9370  121.1150 C.3   203  THR203      0.1808
    114  OG1       -4.6410   17.8640  120.3240 O.3   203  THR203     -0.2208
    115  CG2       -3.7770   17.5210  122.5040 C.3   203  THR203      0.0379
    116  N         -2.2570   19.0000  118.9190 N.am  204  ILE204     -0.1977
    117  CA        -2.1740   19.1980  117.5130 C.3   204  ILE204      0.1596
    118  C         -3.5860   19.3860  117.0400 C.2   204  ILE204      0.2287
    119  O         -3.8460   20.1540  116.1340 O.2   204  ILE204     -0.2864
    120  CB        -1.6340   17.9310  116.8560 C.3   204  ILE204      0.0276
    121  CG1       -0.4720   17.3750  117.6740 C.3   204  ILE204      0.0022
    122  CG2       -1.1850   18.2210  115.4420 C.3   204  ILE204      0.0022
    123  CD1        0.4040   16.3850  116.9450 C.3   204  ILE204      0.0001
    124  N         -6.1980   20.6820  118.6670 N.3   206  ALA206     -0.1245
    125  CA        -6.7580   21.9680  119.0590 C.3   206  ALA206      0.1562
    126  C         -6.8420   22.9120  117.8830 C.2   206  ALA206      0.2260
    127  O         -7.7750   23.6880  117.7530 O.2   206  ALA206     -0.2867
    128  CB        -5.9210   22.5840  120.1620 C.3   206  ALA206      0.0290
@<TRIPOS>BOND
     1    44    42   ar
     2    44    43   ar
     3    42    40   ar
     4    43    41   ar
     5    40    39   ar
     6    41    39   ar
     7    39    38    1
     8    28    27    1
     9    28    29    1
    10    61    63   ar
    11    61    59   ar
    12    63    64   ar
    13    27    26    1
    14    54    55    1
    15    55    58    1
    16    55    56    1
    17    38    35    1
    18    35    34    1
    19    35    36    1
    20    58    59    1
    21    59    60   ar
    22    64    65    1
    23    64    62   ar
    24    37    36    2
    25    57    56    2
    26    56    66   am
    27    36    45   am
    28    26    23    1
    29    60    62   ar
    30    25    24    2
    31    66    67    1
    32    23    24    1
    33    23    22    1
    34   122   120    1
    35    24    30   am
    36    45    46    1
    37    68    67    1
    38    68    69    2
    39    67    70    1
    40    47    48    2
    41    47    46    1
    42   119   118    2
    43    46    49    1
    44    30    31    1
    45   120   117    1
    46   120   121    1
    47   123   121    1
    48    33    32    2
    49   118   117    1
    50    31    32    1
    51    70    71    1
    52    70    72    1
    53    16    14    1
    54   117   116    1
    55   127   126    2
    56    49    50    1
    57   126   125    1
    58    12    11    2
    59    10     9    1
    60    10    11    1
    61    10    13    1
    62    11    17   am
    63   124   125    1
    64    14    13    1
    65    14    15    1
    66   116   111   am
    67    20    19    2
    68    50    51    1
    69   125   128    1
    70    19    18    1
    71    52    51    2
    72   112   111    2
    73    51    53   am
    74    17    18    1
    75   111   110    1
    76    18    21    1
    77   114   113    1
    78    79    78    2
    79    80    78   am
    80   113   110    1
    81   113   115    1
    82   110   109    1
    83    78    77    1
    84     4     3    2
    85     1     2    1
    86   109   106   am
    87     3     2    1
    88    77    74    1
    89     2     5    1
    90   106   107    2
    91   106   105    1
    92    74    73    1
    93    74    75    1
    94   105   104    1
    95   105   108    1
    96     5     6    1
    97     7     6    1
    98     6     8    1
    99    75    76    2
   100    75    81   am
   101    93    90    1
   102    81    82    1
   103   100   102   ar
   104   100    99   ar
   105   102   103   ar
   106    98    99    1
   107    98    95    1
   108    99   101   ar
   109    82    85    1
   110    82    83    1
   111    94    95    1
   112    94    91   am
   113   103   101   ar
   114    90    91    1
   115    90    89    1
   116    95    96    1
   117    91    92    2
   118    85    86    1
   119    83    84    2
   120    86    88    1
   121    86    87    1
   122    96    97    2
