@<TRIPOS>MOLECULE
tmp/4y28P02.pdb
 204 198 0 0 0
SMALL
GASTEIGER

@<TRIPOS>ATOM
      1  N         -7.2480  -18.4560  118.0570 N.3    43  TYR43      -0.1241
      2  CA        -6.8990  -17.3780  118.9510 C.3    43  TYR43       0.1605
      3  C         -7.8080  -16.1980  118.7230 C.2    43  TYR43       0.2264
      4  O         -8.2660  -15.5630  119.6540 O.2    43  TYR43      -0.2867
      5  CB        -5.4690  -16.9650  118.6850 C.3    43  TYR43       0.0534
      6  CG        -4.8880  -15.9980  119.6700 C.ar   43  TYR43      -0.0201
      7  CD1       -5.6840  -15.2730  120.5180 C.ar   43  TYR43      -0.0009
      8  CD2       -3.5360  -15.7890  119.7170 C.ar   43  TYR43      -0.0009
      9  CE1       -5.1350  -14.3820  121.4070 C.ar   43  TYR43       0.0417
     10  CE2       -2.9840  -14.9030  120.5960 C.ar   43  TYR43       0.0417
     11  CZ        -3.7860  -14.2030  121.4360 C.ar   43  TYR43       0.1957
     12  OH        -3.2050  -13.3220  122.3030 O.3    43  TYR43      -0.2866
     13  N        -10.2120  -13.8840  121.0310 N.3    47  ILE47      -0.1245
     14  CA        -9.9480  -12.4720  121.2870 C.3    47  ILE47       0.1561
     15  C        -11.1660  -11.6770  120.8810 C.2    47  ILE47       0.2260
     16  O        -11.6470  -10.8110  121.6180 O.2    47  ILE47      -0.2867
     17  CB        -8.7010  -11.9750  120.5040 C.3    47  ILE47       0.0252
     18  CG1       -7.4090  -12.4140  121.2030 C.3    47  ILE47       0.0019
     19  CG2       -8.6920  -10.4610  120.2630 C.3    47  ILE47       0.0019
     20  CD1       -6.7500  -11.3910  122.1150 C.3    47  ILE47       0.0001
     21  N        -13.7230  -12.2480  123.4020 N.3    50  ARG50      -0.1231
     22  CA       -13.5420  -11.6310  124.6760 C.3    50  ARG50       0.1694
     23  C        -13.8890  -10.1890  124.5390 C.2    50  ARG50       0.2592
     24  O        -14.6460   -9.6630  125.3330 O.2    50  ARG50      -0.2718
     25  CB       -12.0810  -11.6760  125.1000 C.3    50  ARG50       0.0321
     26  CG       -11.4640  -13.0480  125.2230 C.3    50  ARG50       0.0489
     27  CD       -10.1110  -12.9320  125.8980 C.3    50  ARG50       0.2205
     28  NE        -9.3550  -14.1590  125.7800 N.pl3  50  ARG50      -0.0865
     29  CZ        -9.4160  -15.1510  126.6490 C.cat  50  ARG50       0.5346
     30  NH1      -10.2070  -15.0640  127.7100 N.pl3  50  ARG50       0.1354
     31  NH2       -8.6900  -16.2350  126.4510 N.pl3  50  ARG50       0.1354
     32  N        -13.3610   -9.5430  123.5120 N.am   51  PHE51      -0.1976
     33  CA       -13.6390   -8.1360  123.3520 C.3    51  PHE51       0.1639
     34  C        -15.1180   -7.9400  123.1300 C.2    51  PHE51       0.2290
     35  O        -15.7100   -7.0760  123.7170 O.2    51  PHE51      -0.2864
     36  CB       -12.8540   -7.5570  122.1910 C.3    51  PHE51       0.0560
     37  CG       -11.5660   -6.9110  122.5920 C.ar   51  PHE51      -0.0200
     38  CD1      -11.5540   -5.8980  123.5140 C.ar   51  PHE51      -0.0042
     39  CD2      -10.3740   -7.3000  122.0220 C.ar   51  PHE51      -0.0042
     40  CE1      -10.3780   -5.2950  123.8780 C.ar   51  PHE51      -0.0003
     41  CE2       -9.1940   -6.6980  122.3830 C.ar   51  PHE51      -0.0003
     42  CZ        -9.1970   -5.6950  123.3140 C.ar   51  PHE51      -0.0000
     43  N        -17.1210   -8.4900  126.1970 N.3    54  LEU54      -0.1245
     44  CA       -17.0780   -7.3030  127.0070 C.3    54  LEU54       0.1561
     45  C        -17.8940   -6.1360  126.4890 C.2    54  LEU54       0.2260
     46  O        -18.5920   -5.4780  127.2330 O.2    54  LEU54      -0.2867
     47  CB       -15.6240   -6.8860  127.1270 C.3    54  LEU54       0.0270
     48  CG       -15.2410   -6.0250  128.3090 C.3    54  LEU54       0.0019
     49  CD1      -13.7410   -6.0860  128.5140 C.3    54  LEU54       0.0001
     50  CD2      -15.6980   -4.6050  128.0540 C.3    54  LEU54       0.0001
     51  N         -2.1310    3.7040  124.8500 N.3   107  LEU107     -0.1231
     52  CA        -2.1540    2.7220  125.9120 C.3   107  LEU107      0.1693
     53  C         -2.2800    1.3160  125.3830 C.2   107  LEU107      0.2591
     54  O         -1.5790    0.4200  125.8060 O.2   107  LEU107     -0.2718
     55  CB        -3.2910    3.0230  126.8540 C.3   107  LEU107      0.0284
     56  CG        -3.0800    4.1540  127.8470 C.3   107  LEU107      0.0019
     57  CD1       -4.3870    4.4730  128.5350 C.3   107  LEU107      0.0001
     58  CD2       -2.0340    3.7850  128.8710 C.3   107  LEU107      0.0001
     59  N         -3.1730    1.1420  124.4280 N.am  108  MET108     -0.1979
     60  CA        -3.4260   -0.1450  123.8230 C.3   108  MET108      0.1605
     61  C         -2.1990   -0.6560  123.1100 C.2   108  MET108      0.2287
     62  O         -1.9110   -1.8410  123.0920 O.2   108  MET108     -0.2864
     63  CB        -4.5190    0.0180  122.8050 C.3   108  MET108      0.0413
     64  CG        -5.3960   -1.1880  122.6900 C.3   108  MET108      0.0598
     65  SD        -6.4200   -1.2020  124.1410 S.3   108  MET108     -0.1393
     66  CE        -7.6800   -2.3140  123.5590 C.3   108  MET108      0.0692
     67  N          0.7050   -0.5780  123.8560 N.3   110  PHE110     -0.1227
     68  CA         1.5920   -1.3470  124.6950 C.3   110  PHE110      0.1736
     69  C          1.0760   -2.7220  125.0270 C.2   110  PHE110      0.2595
     70  O          1.8010   -3.6950  124.9110 O.2   110  PHE110     -0.2718
     71  CB         1.8780   -0.5990  125.9740 C.3   110  PHE110      0.0547
     72  CG         3.0310    0.3240  125.8720 C.ar  110  PHE110     -0.0202
     73  CD1        4.2940   -0.1190  126.1300 C.ar  110  PHE110     -0.0042
     74  CD2        2.8480    1.6230  125.5100 C.ar  110  PHE110     -0.0042
     75  CE1        5.3640    0.7220  126.0370 C.ar  110  PHE110     -0.0003
     76  CE2        3.9110    2.4770  125.4140 C.ar  110  PHE110     -0.0003
     77  CZ         5.1730    2.0260  125.6790 C.ar  110  PHE110     -0.0000
     78  N         -0.1700   -2.8120  125.4540 N.am  111  ALA111     -0.1966
     79  CA        -0.7140   -4.1110  125.8100 C.3   111  ALA111      0.1728
     80  C         -0.8970   -5.0170  124.6220 C.2   111  ALA111      0.2616
     81  O         -0.5590   -6.1850  124.6610 O.2   111  ALA111     -0.2715
     82  CB        -2.0140   -3.9640  126.5690 C.3   111  ALA111      0.0334
     83  N         -1.4420   -4.4710  123.5550 N.am  112  GLU112     -0.1977
     84  CA        -1.6700   -5.2640  122.3810 C.3   112  GLU112      0.1602
     85  C         -0.3970   -5.7400  121.7450 C.2   112  GLU112      0.2287
     86  O         -0.2920   -6.8830  121.3370 O.2   112  GLU112     -0.2864
     87  CB        -2.4730   -4.4740  121.3780 C.3   112  GLU112      0.0415
     88  CG        -3.9480   -4.5030  121.6660 C.3   112  GLU112      0.1163
     89  CD        -4.5080   -5.8810  121.5050 C.2   112  GLU112      0.3649
     90  OE1       -5.6520   -6.0130  121.0390 O.co2 112  GLU112     -0.2457
     91  OE2       -3.7920   -6.8380  121.8290 O.co2 112  GLU112     -0.2457
     92  N          2.5070   -6.2980  123.0610 N.3   114  ARG114     -0.1231
     93  CA         3.1360   -7.3430  123.8300 C.3   114  ARG114      0.1694
     94  C          2.4320   -8.6530  123.6260 C.2   114  ARG114      0.2591
     95  O          3.0710   -9.6740  123.4460 O.2   114  ARG114     -0.2718
     96  CB         3.1390   -6.9790  125.3000 C.3   114  ARG114      0.0321
     97  CG         3.8980   -5.7080  125.6040 C.3   114  ARG114      0.0489
     98  CD         4.1820   -5.6310  127.0870 C.3   114  ARG114      0.2205
     99  NE         5.4440   -6.2570  127.4270 N.pl3 114  ARG114     -0.0865
    100  CZ         6.3530   -5.6920  128.2040 C.cat 114  ARG114      0.5346
    101  NH1        6.1250   -4.5040  128.7460 N.pl3 114  ARG114      0.1354
    102  NH2        7.4810   -6.3260  128.4590 N.pl3 114  ARG114      0.1354
    103  N          1.1130   -8.6260  123.6320 N.am  115  ARG115     -0.1980
    104  CA         0.3780   -9.8520  123.4540 C.3   115  ARG115      0.1597
    105  C          0.8390  -10.5460  122.2020 C.2   115  ARG115      0.2287
    106  O          0.9450  -11.7670  122.1760 O.2   115  ARG115     -0.2864
    107  CB        -1.1190   -9.6140  123.3800 C.3   115  ARG115      0.0334
    108  CG        -1.8830  -10.8640  122.9860 C.3   115  ARG115      0.0492
    109  CD        -3.3500  -10.7200  123.2830 C.3   115  ARG115      0.2205
    110  NE        -3.8860   -9.5610  122.6080 N.pl3 115  ARG115     -0.0865
    111  CZ        -4.4200   -9.6020  121.4020 C.cat 115  ARG115      0.5346
    112  NH1       -4.8840   -8.5020  120.8520 N.pl3 115  ARG115      0.1354
    113  NH2       -4.4850  -10.7430  120.7480 N.pl3 115  ARG115      0.1354
    114  N          3.7760  -12.5830  122.5650 N.3   118  ASP118     -0.1239
    115  CA         3.5380  -13.8590  123.1980 C.3   118  ASP118      0.1674
    116  C          3.2850  -14.8630  122.1170 C.2   118  ASP118      0.2266
    117  O          3.6240  -16.0160  122.2540 O.2   118  ASP118     -0.2867
    118  CB         2.3970  -13.8360  124.2060 C.3   118  ASP118      0.1410
    119  CG         2.4090  -15.0470  125.1120 C.2   118  ASP118      0.3668
    120  OD1        3.3570  -15.8370  125.0230 O.co2 118  ASP118     -0.2456
    121  OD2        1.4790  -15.2230  125.9120 O.co2 118  ASP118     -0.2456
    122  N          8.0060  -12.0450  126.1180 N.3   125  MET125     -0.1245
    123  CA         7.4750  -10.8860  126.7900 C.3   125  MET125      0.1570
    124  C          7.8510  -10.9060  128.2270 C.2   125  MET125      0.2261
    125  O          8.2390   -9.8920  128.7830 O.2   125  MET125     -0.2867
    126  CB         5.9780  -10.7930  126.6100 C.3   125  MET125      0.0387
    127  CG         5.6350  -10.1480  125.2850 C.3   125  MET125      0.0595
    128  SD         6.7010   -8.7370  124.9430 S.3   125  MET125     -0.1393
    129  CE         8.1900   -9.5240  124.3520 C.3   125  MET125      0.0692
    130  N          6.2470   -7.4210  136.6970 N.3   133  LEU133     -0.1245
    131  CA         5.1900   -7.8380  135.8050 C.3   133  LEU133      0.1561
    132  C          5.7930   -8.5180  134.6340 C.2   133  LEU133      0.2260
    133  O          5.1320   -9.2980  133.9750 O.2   133  LEU133     -0.2867
    134  CB         4.3150   -6.6660  135.3710 C.3   133  LEU133      0.0270
    135  CG         4.6620   -5.9120  134.0900 C.3   133  LEU133      0.0019
    136  CD1        3.9400   -6.5450  132.8980 C.3   133  LEU133      0.0001
    137  CD2        4.2760   -4.4530  134.2650 C.3   133  LEU133      0.0001
    138  N          4.7230  -11.4100  132.9500 N.3   137  PHE137     -0.1227
    139  CA         4.7410  -11.7030  131.5240 C.3   137  PHE137      0.1736
    140  C          5.3930  -13.0400  131.2000 C.2   137  PHE137      0.2596
    141  O          6.1250  -13.6010  132.0000 O.2   137  PHE137     -0.2718
    142  CB         5.4470  -10.5860  130.7550 C.3   137  PHE137      0.0547
    143  CG         4.4830   -9.5930  130.0980 C.ar  137  PHE137     -0.0202
    144  CD1        3.9420   -9.8710  128.8730 C.ar  137  PHE137     -0.0042
    145  CD2        4.0720   -8.4570  130.7680 C.ar  137  PHE137     -0.0042
    146  CE1        2.9860   -9.0320  128.3290 C.ar  137  PHE137     -0.0003
    147  CE2        3.2550   -7.5480  130.1550 C.ar  137  PHE137     -0.0003
    148  CZ         2.6760   -7.8190  128.9350 C.ar  137  PHE137     -0.0000
    149  N          5.1110  -13.5420  130.0120 N.am  138  GLY138     -0.1942
    150  CA         5.6810  -14.7860  129.5610 C.3   138  GLY138      0.2014
    151  C          4.9020  -15.9320  130.1070 C.2   138  GLY138      0.2639
    152  O          5.1300  -17.0770  129.7590 O.2   138  GLY138     -0.2714
    153  N          3.9630  -15.6120  130.9680 N.am  139  GLY139     -0.1954
    154  CA         3.1830  -16.6520  131.5740 C.3   139  GLY139      0.1869
    155  C          2.4670  -17.5430  130.5960 C.2   139  GLY139      0.2309
    156  O          2.0200  -17.1230  129.5370 O.2   139  GLY139     -0.2863
    157  N         -0.4950  -18.8860  124.0050 N.3   143  PRO143     -0.2102
    158  CA        -0.8310  -17.4640  123.9270 C.3   143  PRO143      0.1504
    159  C         -2.2610  -17.1230  124.1950 C.2   143  PRO143      0.2575
    160  O         -2.5560  -16.1140  124.8080 O.2   143  PRO143     -0.2718
    161  CB        -0.5410  -17.1300  122.4730 C.3   143  PRO143      0.0282
    162  CG        -0.8700  -18.3740  121.7560 C.3   143  PRO143      0.0208
    163  CD        -0.1100  -19.3260  122.5910 C.3   143  PRO143      0.0893
    164  N         -3.1460  -17.9820  123.7330 N.am  144  ALA144     -0.1980
    165  CA        -4.5580  -17.7710  123.9330 C.3   144  ALA144      0.1597
    166  C         -4.8220  -17.5270  125.4100 C.2   144  ALA144      0.2287
    167  O         -5.4840  -16.5720  125.7850 O.2   144  ALA144     -0.2864
    168  CB        -5.3320  -18.9730  123.4310 C.3   144  ALA144      0.0319
    169  N         -2.8270  -16.7040  128.5330 N.3   146  PRO146     -0.2116
    170  CA        -1.4650  -16.4850  129.0250 C.3   146  PRO146      0.1372
    171  C         -1.3140  -17.0830  130.3790 C.2   146  PRO146      0.2244
    172  O         -0.2210  -17.0780  130.9290 O.2   146  PRO146     -0.2868
    173  CB        -1.3620  -14.9770  129.1310 C.3   146  PRO146      0.0268
    174  CG        -2.7130  -14.5800  129.5510 C.3   146  PRO146      0.0207
    175  CD        -3.5460  -15.3550  128.5900 C.3   146  PRO146      0.0892
    176  N         -1.3720  -12.0580  137.7870 N.3   150  PHE150     -0.1227
    177  CA        -1.7170  -11.4840  136.4820 C.3   150  PHE150      0.1736
    178  C         -3.0020  -11.8370  135.8110 C.2   150  PHE150      0.2592
    179  O         -4.0560  -11.7190  136.4060 O.2   150  PHE150     -0.2718
    180  CB        -0.5530  -11.3700  135.5310 C.3   150  PHE150      0.0547
    181  CG         0.2510  -10.1590  135.7690 C.ar  150  PHE150     -0.0202
    182  CD1       -0.2280   -8.9250  135.4180 C.ar  150  PHE150     -0.0042
    183  CD2        1.4690  -10.2540  136.3890 C.ar  150  PHE150     -0.0042
    184  CE1        0.5180   -7.7980  135.6570 C.ar  150  PHE150     -0.0003
    185  CE2        2.2190   -9.1410  136.6380 C.ar  150  PHE150     -0.0003
    186  CZ         1.7460   -7.9120  136.2660 C.ar  150  PHE150     -0.0000
    187  N         -2.9310  -12.2600  134.5530 N.am  151  PHE151     -0.2029
    188  CA        -4.1320  -12.6470  133.8320 C.3   151  PHE151      0.1325
    189  C         -4.8420  -13.6720  134.7260 C.3   151  PHE151      0.2039
    190  O         -6.0360  -13.3900  134.9470 O.3   151  PHE151     -0.2185
    191  CB        -3.8400  -12.9800  132.3700 C.3   151  PHE151      0.0507
    192  CG        -3.0090  -11.9210  131.6900 C.ar  151  PHE151     -0.0204
    193  CD1       -3.6050  -10.8340  131.0920 C.ar  151  PHE151     -0.0042
    194  CD2       -1.6260  -11.9850  131.7050 C.ar  151  PHE151     -0.0042
    195  CE1       -2.8410   -9.8540  130.4840 C.ar  151  PHE151     -0.0003
    196  CE2       -0.8550  -11.0060  131.1090 C.ar  151  PHE151     -0.0003
    197  CZ        -1.4640   -9.9400  130.4940 C.ar  151  PHE151     -0.0000
    198  N         -5.1500  -14.4190  138.6000 N.3   153  PRO153     -0.2116
    199  CA        -4.7230  -14.4640  140.0060 C.3   153  PRO153      0.1372
    200  C         -5.2480  -15.6720  140.7560 C.2   153  PRO153      0.2244
    201  O         -4.5660  -16.2400  141.5950 O.2   153  PRO153     -0.2868
    202  CB        -5.3270  -13.2050  140.6070 C.3   153  PRO153      0.0268
    203  CG        -5.4350  -12.2710  139.4770 C.3   153  PRO153      0.0207
    204  CD        -6.0100  -13.1670  138.4500 C.3   153  PRO153      0.0892
@<TRIPOS>BOND
     1     1     2    1
     2     5     2    1
     3     5     6    1
     4     3     2    1
     5     3     4    2
     6     6     8   ar
     7     6     7   ar
     8     8    10   ar
     9    19    17    1
    10    17    18    1
    11    17    14    1
    12     7     9   ar
    13    10    11   ar
    14   113   111    1
    15   112   111    1
    16    15    14    1
    17    15    16    2
    18    13    14    1
    19    90    89   ar
    20    18    20    1
    21    86    85    2
    22    87    88    1
    23    87    84    1
    24   111   110    2
    25     9    11   ar
    26    11    12    1
    27    89    88    1
    28    89    91   ar
    29    85    84    1
    30   162   161    1
    31   162   163    1
    32    39    41   ar
    33    39    37   ar
    34   116   117    2
    35   116   115    1
    36   106   105    2
    37    36    37    1
    38    36    33    1
    39   105   104    1
    40    84    83    1
    41    41    42   ar
    42   161   158    1
    43   114   115    1
    44   163   157    1
    45    37    38   ar
    46   110   109    1
    47    64    63    1
    48    64    65    1
    49    63    60    1
    50   108   109    1
    51   108   107    1
    52    92    93    1
    53    62    61    2
    54    61    60    1
    55    34    33    1
    56    34    35    2
    57   115   118    1
    58    42    40   ar
    59    33    32    1
    60   107   104    1
    61    21    22    1
    62   168   165    1
    63    95    94    2
    64   104   103    1
    65    32    23   am
    66    38    40   ar
    67    83    80   am
    68    66    65    1
    69    94   103   am
    70    94    93    1
    71   164   165    1
    72   164   159   am
    73    60    59    1
    74    93    96    1
    75    67    68    1
    76   158   157    1
    77   158   159    1
    78   165   166    1
    79   159   160    2
    80   118   119    1
    81   129   128    1
    82    59    53   am
    83    23    22    1
    84    23    24    2
    85    80    81    2
    86    80    79    1
    87    22    25    1
    88    68    69    1
    89    68    71    1
    90    51    52    1
    91    70    69    2
    92   128   127    1
    93   120   119   ar
    94    69    78   am
    95    25    26    1
    96   119   121   ar
    97    26    27    1
    98   127   126    1
    99    96    97    1
   100    53    54    2
   101    53    52    1
   102   166   167    2
   103    76    74   ar
   104    76    77   ar
   105    78    79    1
   106    74    72   ar
   107    97    98    1
   108    77    75   ar
   109    28    27    1
   110    28    29    2
   111    79    82    1
   112    72    71    1
   113    72    73   ar
   114    52    55    1
   115    75    73   ar
   116   122   123    1
   117    43    44    1
   118    31    29    1
   119    45    44    1
   120    45    46    2
   121   126   123    1
   122    29    30    1
   123   123   124    1
   124    55    56    1
   125    44    47    1
   126    98    99    1
   127    47    48    1
   128    99   100    2
   129    56    57    1
   130    56    58    1
   131    50    48    1
   132   100   102    1
   133   100   101    1
   134   124   125    2
   135    48    49    1
   136   146   144   ar
   137   146   148   ar
   138   169   175    1
   139   169   170    1
   140   175   174    1
   141   144   143   ar
   142   148   147   ar
   143   170   173    1
   144   170   171    1
   145   173   174    1
   146   156   155    2
   147   150   149    1
   148   150   151    1
   149   152   151    2
   150   149   140   am
   151   143   142    1
   152   143   145   ar
   153   151   153   am
   154   147   145   ar
   155   171   172    2
   156   195   197   ar
   157   195   193   ar
   158   197   196   ar
   159   155   154    1
   160   142   139    1
   161   153   154    1
   162   193   192   ar
   163   196   194   ar
   164   140   139    1
   165   140   141    2
   166   139   138    1
   167   192   194   ar
   168   192   191    1
   169   191   188    1
   170   136   135    1
   171   188   187    1
   172   188   189    1
   173   133   132    2
   174   135   137    1
   175   135   134    1
   176   187   178   am
   177   132   131    1
   178   189   190    1
   179   134   131    1
   180   182   184   ar
   181   182   181   ar
   182   180   181    1
   183   180   177    1
   184   184   186   ar
   185   181   183   ar
   186   131   130    1
   187   178   179    2
   188   178   177    1
   189   186   185   ar
   190   183   185   ar
   191   177   176    1
   192   204   198    1
   193   204   203    1
   194   198   199    1
   195   203   202    1
   196   199   202    1
   197   199   200    1
   198   200   201    2
