@<TRIPOS>MOLECULE
tmp/4y28B27.pdb
 118 112 0 0 0
SMALL
GASTEIGER

@<TRIPOS>ATOM
      1  N         13.2280  -18.0720   26.5220 N.3     4  LEU4       -0.1245
      2  CA        13.5280  -16.7870   27.1520 C.3     4  LEU4        0.1561
      3  C         13.8170  -16.9520   28.6380 C.2     4  LEU4        0.2260
      4  O         13.1450  -17.7210   29.3210 O.2     4  LEU4       -0.2867
      5  CB        12.3720  -15.7930   26.9610 C.3     4  LEU4        0.0270
      6  CG        12.4970  -14.4430   27.6970 C.3     4  LEU4        0.0019
      7  CD1       13.2090  -13.3770   26.8570 C.3     4  LEU4        0.0001
      8  CD2       11.1660  -13.9240   28.2070 C.3     4  LEU4        0.0001
      9  N         17.1760  -16.2930   26.5780 N.3     6  ARG6       -0.1231
     10  CA        18.1620  -17.2130   26.0450 C.3     6  ARG6        0.1694
     11  C         19.5670  -16.6300   26.0190 C.2     6  ARG6        0.2592
     12  O         20.4730  -17.2110   25.4220 O.2     6  ARG6       -0.2718
     13  CB        17.7570  -17.6670   24.6470 C.3     6  ARG6        0.0321
     14  CG        17.6330  -16.5510   23.6450 C.3     6  ARG6        0.0489
     15  CD        18.2750  -16.9850   22.3540 C.3     6  ARG6        0.2205
     16  NE        17.8180  -18.3160   21.9790 N.pl3   6  ARG6       -0.0865
     17  CZ        16.9180  -18.5540   21.0340 C.cat   6  ARG6        0.5346
     18  NH1       16.3860  -17.5490   20.3500 N.pl3   6  ARG6        0.1354
     19  NH2       16.5600  -19.7990   20.7630 N.pl3   6  ARG6        0.1354
     20  N         19.7540  -15.4870   26.6720 N.am    7  PHE7       -0.1976
     21  CA        21.1040  -15.0220   26.9560 C.3     7  PHE7        0.1639
     22  C         21.5650  -15.6390   28.2700 C.2     7  PHE7        0.2290
     23  O         22.6790  -15.3940   28.7300 O.2     7  PHE7       -0.2864
     24  CB        21.1860  -13.4910   27.0090 C.3     7  PHE7        0.0560
     25  CG        20.1170  -12.8380   27.8450 C.ar    7  PHE7       -0.0200
     26  CD1       20.2470  -12.7330   29.2240 C.ar    7  PHE7       -0.0042
     27  CD2       18.9960  -12.2930   27.2380 C.ar    7  PHE7       -0.0042
     28  CE1       19.2630  -12.1140   29.9800 C.ar    7  PHE7       -0.0003
     29  CE2       18.0140  -11.6750   27.9830 C.ar    7  PHE7       -0.0003
     30  CZ        18.1460  -11.5830   29.3560 C.ar    7  PHE7       -0.0000
     31  N         14.3570  -12.0990   33.5070 N.3    23  GLY23      -0.1210
     32  CA        14.7480  -12.0950   32.1110 C.3    23  GLY23       0.1956
     33  C         14.7100  -10.7010   31.5230 C.2    23  GLY23       0.2611
     34  O         15.3780  -10.4040   30.5310 O.2    23  GLY23      -0.2717
     35  N         13.9270   -9.8370   32.1540 N.am   24  ILE24      -0.1979
     36  CA        13.7500   -8.4810   31.6720 C.3    24  ILE24       0.1595
     37  C         14.7650   -7.5330   32.3100 C.2    24  ILE24       0.2287
     38  O         15.2670   -6.6220   31.6540 O.2    24  ILE24      -0.2864
     39  CB        12.3160   -7.9910   31.9460 C.3    24  ILE24       0.0276
     40  CG1       11.3100   -8.9890   31.3680 C.3    24  ILE24       0.0022
     41  CG2       12.0920   -6.6040   31.3580 C.3    24  ILE24       0.0022
     42  CD1        9.8640   -8.6380   31.6370 C.3    24  ILE24       0.0001
     43  N         18.5540   -7.9680   30.7500 N.3    27  ALA27      -0.1231
     44  CA        18.6960   -7.9750   29.2970 C.3    27  ALA27       0.1694
     45  C         19.8400   -7.0840   28.8030 C.2    27  ALA27       0.2592
     46  O         20.3850   -7.3140   27.7220 O.2    27  ALA27      -0.2718
     47  CB        17.3850   -7.5570   28.6430 C.3    27  ALA27       0.0304
     48  N         20.2060   -6.0740   29.5870 N.am   28  HIS28      -0.1976
     49  CA        21.2860   -5.1710   29.1920 C.3    28  HIS28       0.1656
     50  C         22.5800   -5.4440   29.9450 C.2    28  HIS28       0.2291
     51  O         23.6170   -4.8710   29.6190 O.2    28  HIS28      -0.2864
     52  CB        20.8860   -3.7110   29.4030 C.3    28  HIS28       0.0771
     53  CG        19.7180   -3.2800   28.5790 C.ar   28  HIS28       0.0820
     54  ND1       19.0860   -2.0690   28.7660 N.ar   28  HIS28      -0.2267
     55  CD2       19.0640   -3.8930   27.5650 C.ar   28  HIS28       0.1154
     56  CE1       18.0950   -1.9550   27.9030 C.ar   28  HIS28       0.1986
     57  NE2       18.0590   -3.0490   27.1630 N.ar   28  HIS28      -0.2212
     58  N         25.0960   -7.2450   29.7510 N.3    30  PHE30      -0.1241
     59  CA        25.7550   -8.1000   28.7670 C.3    30  PHE30       0.1605
     60  C         26.8390   -9.0080   29.3460 C.2    30  PHE30       0.2264
     61  O         27.0410  -10.1220   28.8660 O.2    30  PHE30      -0.2867
     62  CB        26.3580   -7.2330   27.6620 C.3    30  PHE30       0.0534
     63  CG        25.3440   -6.4090   26.9190 C.ar   30  PHE30      -0.0203
     64  CD1       24.0780   -6.9110   26.6670 C.ar   30  PHE30      -0.0042
     65  CD2       25.6520   -5.1320   26.4810 C.ar   30  PHE30      -0.0042
     66  CE1       23.1400   -6.1560   25.9860 C.ar   30  PHE30      -0.0003
     67  CE2       24.7170   -4.3720   25.8000 C.ar   30  PHE30      -0.0003
     68  CZ        23.4600   -4.8850   25.5520 C.ar   30  PHE30      -0.0000
     69  N         25.6590  -12.3350   30.6110 N.3    33  HIS33      -0.1241
     70  CA        25.0390  -13.2030   29.6130 C.3    33  HIS33       0.1621
     71  C         25.9110  -14.4180   29.3050 C.2    33  HIS33       0.2264
     72  O         27.1190  -14.4040   29.5360 O.2    33  HIS33      -0.2867
     73  CB        24.7530  -12.4340   28.3230 C.3    33  HIS33       0.0745
     74  CG        23.7070  -11.3740   28.4700 C.ar   33  HIS33       0.0817
     75  ND1       23.1820  -10.6940   27.3920 N.ar   33  HIS33      -0.2268
     76  CD2       23.0890  -10.8740   29.5660 C.ar   33  HIS33       0.1154
     77  CE1       22.2860   -9.8210   27.8170 C.ar   33  HIS33       0.1986
     78  NE2       22.2110   -9.9090   29.1330 N.ar   33  HIS33      -0.2212
     79  N         28.0070   -5.1190   21.2970 N.3    44  ASN44      -0.1240
     80  CA        26.6350   -4.9380   21.7580 C.3    44  ASN44       0.1653
     81  C         26.3870   -3.5210   22.2630 C.2    44  ASN44       0.2266
     82  O         25.3590   -2.9180   21.9550 O.2    44  ASN44      -0.2867
     83  CB        26.3010   -5.9450   22.8600 C.3    44  ASN44       0.1155
     84  CG        25.9770   -7.3200   22.3120 C.2    44  ASN44       0.2627
     85  OD1       26.1740   -7.5940   21.1280 O.2    44  ASN44      -0.2716
     86  ND2       25.4780   -8.1950   23.1760 N.am   44  ASN44      -0.0877
     87  N         26.4270   -0.9910   19.3650 N.3    47  ALA47      -0.1231
     88  CA        25.1640   -1.0920   18.6400 C.3    47  ALA47       0.1694
     89  C         24.0150   -0.4450   19.4140 C.2    47  ALA47       0.2592
     90  O         23.1740    0.2430   18.8330 O.2    47  ALA47      -0.2718
     91  CB        24.8450   -2.5460   18.3420 C.3    47  ALA47       0.0304
     92  N         23.9810   -0.6790   20.7220 N.am   48  SER48      -0.1952
     93  CA        22.9590   -0.0940   21.5830 C.3    48  SER48       0.1924
     94  C         23.0170    1.4240   21.5360 C.2    48  SER48       0.2314
     95  O         21.9950    2.1090   21.6040 O.2    48  SER48      -0.2863
     96  CB        23.1350   -0.5760   23.0230 C.3    48  SER48       0.2116
     97  OG        22.8910   -1.9650   23.1310 O.3    48  SER48      -0.2180
     98  N         21.2530    2.6690   18.6440 N.3    51  GLY51      -0.1210
     99  CA        19.8410    2.4860   18.9170 C.3    51  GLY51       0.1956
    100  C         19.3200    3.6140   19.7820 C.2    51  GLY51       0.2611
    101  O         18.2230    4.1270   19.5590 O.2    51  GLY51      -0.2717
    102  N         20.1240    4.0080   20.7670 N.am   52  GLN52      -0.1979
    103  CA        19.7740    5.1080   21.6570 C.3    52  GLN52       0.1601
    104  C         19.6800    6.4390   20.9090 C.2    52  GLN52       0.2287
    105  O         18.7240    7.1960   21.0940 O.2    52  GLN52      -0.2864
    106  CB        20.7910    5.2230   22.7940 C.3    52  GLN52       0.0394
    107  CG        20.7100    6.5350   23.5680 C.3    52  GLN52       0.0908
    108  CD        19.4640    6.6480   24.4320 C.2    52  GLN52       0.2608
    109  OE1       19.5280    6.4770   25.6470 O.2    52  GLN52      -0.2717
    110  NE2       18.3280    6.9490   23.8100 N.am   52  GLN52      -0.0878
    111  N         16.5620    6.6800   18.8550 N.3    55  ILE55      -0.1245
    112  CA        15.3840    6.9930   19.6490 C.3    55  ILE55       0.1561
    113  C         15.3430    8.4800   19.9910 C.2    55  ILE55       0.2260
    114  O         14.2910    9.1140   19.9080 O.2    55  ILE55      -0.2867
    115  CB        15.3470    6.1470   20.9340 C.3    55  ILE55       0.0252
    116  CG1       15.1650    4.6710   20.5720 C.3    55  ILE55       0.0019
    117  CG2       14.2300    6.6090   21.8580 C.3    55  ILE55       0.0019
    118  CD1       15.3400    3.7180   21.7350 C.3    55  ILE55       0.0001
@<TRIPOS>BOND
     1    91    88    1
     2    88    87    1
     3    88    89    1
     4    98    99    1
     5    90    89    2
     6   111   112    1
     7    99   100    1
     8    89    92   am
     9   101   100    2
    10   112   113    1
    11   112   115    1
    12   100   102   am
    13   114   113    2
    14    18    17    1
    15   116   115    1
    16   116   118    1
    17    92    93    1
    18    19    17    1
    19   102   103    1
    20   104   105    2
    21   104   103    1
    22   115   117    1
    23    17    16    2
    24    85    84    2
    25    79    80    1
    26    94    93    1
    27    94    95    2
    28    93    96    1
    29   103   106    1
    30    80    81    1
    31    80    83    1
    32    82    81    2
    33    16    15    1
    34    84    83    1
    35    84    86   am
    36    15    14    1
    37   106   107    1
    38    96    97    1
    39   107   108    1
    40    14    13    1
    41   110   108   am
    42   108   109    2
    43    13    10    1
    44    12    11    2
    45    68    67   ar
    46    68    66   ar
    47    67    65   ar
    48    66    64   ar
    49    11    10    1
    50    11    20   am
    51    10     9    1
    52    65    63   ar
    53     1     2    1
    54    64    63   ar
    55    20    21    1
    56     7     6    1
    57    63    62    1
    58    21    24    1
    59    21    22    1
    60     5     2    1
    61     5     6    1
    62    24    25    1
    63     2     3    1
    64    57    55   ar
    65    57    56   ar
    66    27    25   ar
    67    27    29   ar
    68    75    77   ar
    69    75    74   ar
    70    55    53   ar
    71    62    59    1
    72     6     8    1
    73    46    45    2
    74    77    78   ar
    75    25    26   ar
    76    56    54   ar
    77    29    30   ar
    78    22    23    2
    79    73    74    1
    80    73    70    1
    81    74    76   ar
    82    53    54   ar
    83    53    52    1
    84     3     4    2
    85    47    44    1
    86    59    60    1
    87    59    58    1
    88    45    44    1
    89    45    48   am
    90    61    60    2
    91    78    76   ar
    92    49    52    1
    93    49    48    1
    94    49    50    1
    95    26    28   ar
    96    44    43    1
    97    71    72    2
    98    71    70    1
    99    30    28   ar
   100    70    69    1
   101    51    50    2
   102    34    33    2
   103    41    39    1
   104    40    42    1
   105    40    39    1
   106    33    32    1
   107    33    35   am
   108    38    37    2
   109    36    39    1
   110    36    35    1
   111    36    37    1
   112    32    31    1
