@<TRIPOS>MOLECULE
tmp/4y28O04.pdb
 179 172 0 0 0
SMALL
GASTEIGER

@<TRIPOS>ATOM
      1  N         70.8090   23.9960   42.4760 N.3    39  GLU39      -0.1245
      2  CA        70.8860   24.7300   41.2410 C.3    39  GLU39       0.1567
      3  C         69.9370   25.9060   41.2800 C.2    39  GLU39       0.2260
      4  O         70.3080   27.0120   40.9410 O.2    39  GLU39      -0.2867
      5  CB        70.5030   23.8140   40.0850 C.3    39  GLU39       0.0388
      6  CG        70.2420   24.5130   38.7680 C.3    39  GLU39       0.1160
      7  CD        69.7290   23.5710   37.6980 C.2    39  GLU39       0.3649
      8  OE1       69.4580   22.4090   38.0110 O.co2  39  GLU39      -0.2457
      9  OE2       69.5810   23.9840   36.5380 O.co2  39  GLU39      -0.2457
     10  N         70.2630   30.1760   41.0020 N.3    43  ILE43      -0.1245
     11  CA        69.6290   30.9340   39.9560 C.3    43  ILE43       0.1561
     12  C         68.8490   32.0610   40.5460 C.2    43  ILE43       0.2260
     13  O         68.9100   33.1860   40.0970 O.2    43  ILE43      -0.2867
     14  CB        68.5600   30.1030   39.2540 C.3    43  ILE43       0.0252
     15  CG1       69.1450   28.8030   38.7450 C.3    43  ILE43       0.0019
     16  CG2       67.9030   30.8920   38.1280 C.3    43  ILE43       0.0019
     17  CD1       69.8150   28.9160   37.3960 C.3    43  ILE43       0.0001
     18  N         71.1350   34.6220   41.8090 N.3    46  ARG46      -0.1231
     19  CA        71.8540   35.4160   40.8370 C.3    46  ARG46       0.1694
     20  C         70.9820   36.5480   40.3870 C.2    46  ARG46       0.2592
     21  O         71.4250   37.6900   40.3610 O.2    46  ARG46      -0.2718
     22  CB        72.2440   34.5760   39.6270 C.3    46  ARG46       0.0321
     23  CG        73.3230   33.5310   39.8640 C.3    46  ARG46       0.0489
     24  CD        74.6280   34.1610   40.3200 C.3    46  ARG46       0.2205
     25  NE        75.8460   33.4730   39.8820 N.pl3  46  ARG46      -0.0865
     26  CZ        75.9590   32.1790   39.6110 C.cat  46  ARG46       0.5346
     27  NH1       74.9430   31.3480   39.7460 N.pl3  46  ARG46       0.1354
     28  NH2       77.1300   31.7130   39.2320 N.pl3  46  ARG46       0.1354
     29  N         69.7290   36.2630   40.0840 N.am   47  TRP47      -0.1976
     30  CA        68.8570   37.3230   39.6610 C.3    47  TRP47       0.1640
     31  C         68.8120   38.3610   40.7440 C.2    47  TRP47       0.2290
     32  O         69.1530   39.5100   40.5280 O.2    47  TRP47      -0.2864
     33  CB        67.4590   36.8160   39.4200 C.3    47  TRP47       0.0576
     34  CG        67.3430   35.9990   38.2230 C.ar   47  TRP47       0.0006
     35  CD1       67.2510   34.6590   38.1700 C.ar   47  TRP47       0.0946
     36  CD2       67.3110   36.4580   36.8790 C.ar   47  TRP47       0.0152
     37  NE1       67.1570   34.2420   36.8750 N.ar   47  TRP47      -0.2442
     38  CE2       67.1900   35.3350   36.0610 C.ar   47  TRP47       0.0810
     39  CE3       67.3770   37.7130   36.2880 C.ar   47  TRP47       0.0012
     40  CZ2       67.1300   35.4200   34.6960 C.ar   47  TRP47       0.0191
     41  CZ3       67.3190   37.7960   34.9350 C.ar   47  TRP47       0.0001
     42  CH2       67.1980   36.6590   34.1490 C.ar   47  TRP47       0.0015
     43  N         71.2740   40.8320   40.9920 N.3    50  LEU50      -0.1245
     44  CA        71.0840   41.8230   39.9610 C.3    50  LEU50       0.1561
     45  C         69.9450   42.8060   40.1910 C.2    50  LEU50       0.2260
     46  O         70.0720   43.9840   39.9270 O.2    50  LEU50      -0.2867
     47  CB        70.8770   41.1430   38.6250 C.3    50  LEU50       0.0270
     48  CG        72.0750   40.3410   38.1620 C.3    50  LEU50       0.0019
     49  CD1       71.8780   39.9470   36.7130 C.3    50  LEU50       0.0001
     50  CD2       73.3240   41.1770   38.3180 C.3    50  LEU50       0.0001
     51  N         65.2100   35.6420   25.8290 N.3   103  ILE103     -0.1245
     52  CA        65.3060   34.8930   27.0690 C.3   103  ILE103      0.1561
     53  C         65.1970   33.3990   26.8960 C.2   103  ILE103      0.2260
     54  O         66.0820   32.6520   27.2950 O.2   103  ILE103     -0.2867
     55  CB        64.2010   35.3340   28.0430 C.3   103  ILE103      0.0252
     56  CG1       64.3760   36.8000   28.4040 C.3   103  ILE103      0.0019
     57  CG2       64.2280   34.5120   29.3230 C.3   103  ILE103      0.0019
     58  CD1       65.5650   37.0590   29.2920 C.3   103  ILE103      0.0001
     59  N         65.6400   31.4890   24.6590 N.3   105  PHE105     -0.1227
     60  CA        66.7940   30.8480   24.0900 C.3   105  PHE105      0.1736
     61  C         67.9030   30.6540   25.0920 C.2   105  PHE105      0.2595
     62  O         68.4940   29.5910   25.1590 O.2   105  PHE105     -0.2718
     63  CB        67.3220   31.6400   22.9100 C.3   105  PHE105      0.0547
     64  CG        68.5300   31.0320   22.2820 C.ar  105  PHE105     -0.0202
     65  CD1       69.7820   31.3560   22.7270 C.ar  105  PHE105     -0.0042
     66  CD2       68.4030   30.1340   21.2590 C.ar  105  PHE105     -0.0042
     67  CE1       70.8930   30.7940   22.1590 C.ar  105  PHE105     -0.0003
     68  CE2       69.5070   29.5680   20.6800 C.ar  105  PHE105     -0.0003
     69  CZ        70.7550   29.8970   21.1320 C.ar  105  PHE105     -0.0000
     70  N         68.1880   31.6760   25.8770 N.am  106  VAL106     -0.1966
     71  CA        69.2780   31.5590   26.8250 C.3   106  VAL106      0.1727
     72  C         69.0450   30.5120   27.8800 C.2   106  VAL106      0.2616
     73  O         69.9260   29.7260   28.1840 O.2   106  VAL106     -0.2715
     74  CB        69.5540   32.8850   27.5230 C.3   106  VAL106      0.0290
     75  CG1       70.6120   32.6920   28.5890 C.3   106  VAL106      0.0023
     76  CG2       69.9980   33.9150   26.5070 C.3   106  VAL106      0.0023
     77  N         67.8590   30.5070   28.4540 N.am  107  GLU107     -0.1977
     78  CA        67.5660   29.5260   29.4710 C.3   107  GLU107      0.1602
     79  C         67.4320   28.1150   29.0020 C.2   107  GLU107      0.2287
     80  O         67.9210   27.1990   29.6330 O.2   107  GLU107     -0.2864
     81  CB        66.3780   29.9250   30.2820 C.3   107  GLU107      0.0415
     82  CG        66.8330   30.5130   31.5820 C.3   107  GLU107      0.1163
     83  CD        65.6760   30.8980   32.4130 C.2   107  GLU107      0.3649
     84  OE1       64.6940   31.3750   31.8120 O.co2 107  GLU107     -0.2457
     85  OE2       65.7730   30.7310   33.6370 O.co2 107  GLU107     -0.2457
     86  N         68.8570   26.8700   26.8110 N.3   109  GLN109     -0.1231
     87  CA        70.2030   26.4430   26.5850 C.3   109  GLN109      0.1698
     88  C         70.6360   25.7490   27.8460 C.2   109  GLN109      0.2592
     89  O         71.3650   24.7770   27.8130 O.2   109  GLN109     -0.2718
     90  CB        71.0780   27.6470   26.3160 C.3   109  GLN109      0.0381
     91  CG        70.8710   28.2260   24.9360 C.3   109  GLN109      0.0905
     92  CD        71.4410   27.3370   23.8640 C.2   109  GLN109      0.2608
     93  OE1       71.4160   27.6780   22.6930 O.2   109  GLN109     -0.2717
     94  NE2       71.9510   26.1860   24.2600 N.am  109  GLN109     -0.0878
     95  N         70.1830   26.2530   28.9750 N.am  110  ARG110     -0.1980
     96  CA        70.5260   25.6340   30.2300 C.3   110  ARG110      0.1597
     97  C         69.9300   24.2490   30.2490 C.2   110  ARG110      0.2287
     98  O         70.5440   23.3080   30.7100 O.2   110  ARG110     -0.2864
     99  CB        69.9650   26.4440   31.3910 C.3   110  ARG110      0.0334
    100  CG        70.7650   27.6840   31.7450 C.3   110  ARG110      0.0492
    101  CD        69.9200   28.6560   32.5350 C.3   110  ARG110      0.2205
    102  NE        69.4310   28.0800   33.7730 N.pl3 110  ARG110     -0.0865
    103  CZ        68.3960   28.5600   34.4450 C.cat 110  ARG110      0.5346
    104  NH1       67.7400   29.6150   33.9910 N.pl3 110  ARG110      0.1354
    105  NH2       68.0140   27.9890   35.5670 N.pl3 110  ARG110      0.1354
    106  N         69.8550   21.7940   28.6980 N.3   112  MET112     -0.1230
    107  CA        70.5320   20.8960   27.8070 C.3   112  MET112      0.1702
    108  C         71.8140   20.5780   28.5450 C.2   112  MET112      0.2592
    109  O         72.8850   20.5020   27.9450 O.2   112  MET112     -0.2718
    110  CB        70.8010   21.5360   26.4480 C.3   112  MET112      0.0401
    111  CG        71.9470   22.5320   26.4300 C.3   112  MET112      0.0596
    112  SD        72.7350   22.7120   24.8230 S.3   112  MET112     -0.1393
    113  CE        73.4480   21.0850   24.6060 C.3   112  MET112      0.0692
    114  N         71.7120   20.3990   29.8540 N.am  113  GLU113     -0.1979
    115  CA        72.9070   20.1390   30.6130 C.3   113  GLU113      0.1602
    116  C         72.8900   18.9160   31.4690 C.2   113  GLU113      0.2287
    117  O         71.8760   18.5290   32.0220 O.2   113  GLU113     -0.2864
    118  CB        73.3000   21.3390   31.4490 C.3   113  GLU113      0.0415
    119  CG        74.7240   21.2360   31.9320 C.3   113  GLU113      0.1163
    120  CD        75.6550   20.8520   30.8180 C.2   113  GLU113      0.3649
    121  OE1       75.3110   21.1210   29.6590 O.co2 113  GLU113     -0.2457
    122  OE2       76.7120   20.2660   31.0990 O.co2 113  GLU113     -0.2457
    123  N         74.2430   20.2690   35.4890 N.3   117  GLU117     -0.1231
    124  CA        74.1300   21.6190   34.9300 C.3   117  GLU117      0.1699
    125  C         75.4850   22.2710   35.0810 C.2   117  GLU117      0.2592
    126  O         75.6320   23.4090   35.5290 O.2   117  GLU117     -0.2718
    127  CB        73.0150   22.4030   35.6090 C.3   117  GLU117      0.0402
    128  CG        71.7710   21.5670   35.9160 C.3   117  GLU117      0.1161
    129  CD        70.8310   21.3560   34.7350 C.2   117  GLU117      0.3649
    130  OE1       69.7510   21.9870   34.7170 O.co2 117  GLU117     -0.2457
    131  OE2       71.1540   20.5490   33.8390 O.co2 117  GLU117     -0.2457
    132  N         76.4780   21.4700   34.7340 N.am  118  LYS118     -0.1980
    133  CA        77.8660   21.8360   34.8390 C.3   118  LYS118      0.1596
    134  C         78.0770   22.2580   36.2620 C.2   118  LYS118      0.2287
    135  O         78.7430   23.2300   36.5540 O.2   118  LYS118     -0.2864
    136  CB        78.2820   22.8830   33.8210 C.3   118  LYS118      0.0298
    137  CG        78.9700   22.2600   32.6060 C.3   118  LYS118      0.0038
    138  CD        80.1790   23.0700   32.1330 C.3   118  LYS118      0.0206
    139  CE        81.0810   22.2790   31.1900 C.3   118  LYS118      0.1093
    140  NZ        82.1680   23.1180   30.6020 N.3   118  LYS118     -0.1314
    141  N         76.1170   23.6680   38.0750 N.3   120  LYS120     -0.1245
    142  CA        75.5200   24.9870   38.2890 C.3   120  LYS120      0.1561
    143  C         76.5940   26.0340   38.4870 C.2   120  LYS120      0.2260
    144  O         76.3500   27.1310   38.9600 O.2   120  LYS120     -0.2867
    145  CB        74.5250   24.9980   39.4520 C.3   120  LYS120      0.0271
    146  CG        75.0630   24.5740   40.8060 C.3   120  LYS120      0.0035
    147  CD        75.0560   23.0580   40.9430 C.3   120  LYS120      0.0206
    148  CE        76.0490   22.5620   41.9850 C.3   120  LYS120      0.1093
    149  NZ        76.1570   21.0780   42.0430 N.3   120  LYS120     -0.1314
    150  N         78.9400   26.8530   35.7350 N.3   122  PRO122     -0.2116
    151  CA        79.5050   26.4850   34.4270 C.3   122  PRO122      0.1372
    152  C         80.9670   26.8230   34.1850 C.2   122  PRO122      0.2244
    153  O         81.6980   26.0010   33.6550 O.2   122  PRO122     -0.2868
    154  CB        78.6590   27.2880   33.4540 C.3   122  PRO122      0.0268
    155  CG        78.3490   28.5130   34.2020 C.3   122  PRO122      0.0207
    156  CD        77.8740   27.9100   35.4670 C.3   122  PRO122      0.0892
    157  N         83.0300   30.5810   29.3950 N.3   125  ALA125     -0.1231
    158  CA        83.3140   31.9540   29.0750 C.3   125  ALA125      0.1694
    159  C         83.0040   32.7440   30.3430 C.2   125  ALA125      0.2592
    160  O         83.5760   33.7950   30.5940 O.2   125  ALA125     -0.2718
    161  CB        82.4220   32.4130   27.9430 C.3   125  ALA125      0.0304
    162  N         82.0940   32.2200   31.1480 N.am  126  PHE126     -0.1976
    163  CA        81.6730   32.8720   32.3560 C.3   126  PHE126      0.1639
    164  C         82.7780   33.1400   33.3710 C.2   126  PHE126      0.2290
    165  O         82.7440   34.1830   33.9790 O.2   126  PHE126     -0.2864
    166  CB        80.5020   32.1070   32.9480 C.3   126  PHE126      0.0560
    167  CG        79.4130   31.8440   31.9540 C.ar  126  PHE126     -0.0200
    168  CD1       79.4430   30.7200   31.1650 C.ar  126  PHE126     -0.0042
    169  CD2       78.3850   32.7460   31.7860 C.ar  126  PHE126     -0.0042
    170  CE1       78.4490   30.4830   30.2430 C.ar  126  PHE126     -0.0003
    171  CE2       77.3900   32.5190   30.8650 C.ar  126  PHE126     -0.0003
    172  CZ        77.4210   31.3830   30.0920 C.ar  126  PHE126     -0.0000
    173  N         85.8980   34.1620   32.9660 N.3   128  PRO128     -0.2116
    174  CA        87.1150   34.5940   32.2730 C.3   128  PRO128      0.1372
    175  C         88.2830   34.8160   33.2080 C.2   128  PRO128      0.2244
    176  O         89.3410   34.2410   33.0140 O.2   128  PRO128     -0.2868
    177  CB        86.7100   35.9240   31.6390 C.3   128  PRO128      0.0268
    178  CG        85.5970   36.4130   32.4600 C.3   128  PRO128      0.0207
    179  CD        84.8200   35.1580   32.5680 C.3   128  PRO128      0.0892
@<TRIPOS>BOND
     1    68    69   ar
     2    68    66   ar
     3    69    67   ar
     4    66    64   ar
     5    67    65   ar
     6    64    65   ar
     7    64    63    1
     8    93    92    2
     9    63    60    1
    10    92    94   am
    11    92    91    1
    12    60    59    1
    13    60    61    1
    14   113   112    1
    15   112   111    1
    16    91    90    1
    17    61    62    2
    18    61    70   am
    19    51    52    1
    20    70    71    1
    21    90    87    1
    22   111   110    1
    23   110   107    1
    24    76    74    1
    25    87    86    1
    26    87    88    1
    27    71    74    1
    28    71    72    1
    29    53    52    1
    30    53    54    2
    31    52    55    1
    32    74    75    1
    33   107   108    1
    34   107   106    1
    35    89    88    2
    36    88    95   am
    37    72    73    2
    38    72    77   am
    39   161   158    1
    40   109   108    2
    41    55    56    1
    42    55    57    1
    43    56    58    1
    44    77    78    1
    45   108   114   am
    46    95    96    1
    47    79    78    1
    48    79    80    2
    49   158   157    1
    50   158   159    1
    51    78    81    1
    52   121   120   ar
    53   114   115    1
    54   172   170   ar
    55   172   171   ar
    56    96    97    1
    57    96    99    1
    58   170   168   ar
    59    97    98    2
    60    81    82    1
    61   159   160    2
    62   159   162   am
    63   140   139    1
    64   115   118    1
    65   115   116    1
    66   120   122   ar
    67   120   119    1
    68   171   169   ar
    69   162   163    1
    70   168   167   ar
    71   139   138    1
    72    99   100    1
    73   118   119    1
    74   116   117    2
    75    82    83    1
    76   177   174    1
    77   177   178    1
    78   100   101    1
    79   169   167   ar
    80    84    83   ar
    81   167   166    1
    82   138   137    1
    83   174   173    1
    84   174   175    1
    85   163   166    1
    86   163   164    1
    87    83    85   ar
    88   178   179    1
    89   101   102    1
    90   179   173    1
    91   137   136    1
    92   176   175    2
    93   164   165    2
    94   154   155    1
    95   154   151    1
    96   153   152    2
    97   102   103    2
    98   136   133    1
    99   131   129   ar
   100   104   103    1
   101    42    40   ar
   102    42    41   ar
   103   152   151    1
   104   155   156    1
   105   151   150    1
   106   103   105    1
   107    40    38   ar
   108   130   129   ar
   109   132   133    1
   110   132   125   am
   111   129   128    1
   112   133   134    1
   113   124   125    1
   114   124   123    1
   115   124   127    1
   116    41    39   ar
   117   125   126    2
   118   156   150    1
   119   127   128    1
   120    38    37   ar
   121    38    36   ar
   122   134   135    2
   123    39    36   ar
   124     9     7   ar
   125    49    48    1
   126    37    35   ar
   127    36    34   ar
   128    17    15    1
   129     7     8   ar
   130     7     6    1
   131   141   142    1
   132    16    14    1
   133    48    50    1
   134    48    47    1
   135    35    34   ar
   136    34    33    1
   137   142   143    1
   138   142   145    1
   139   143   144    2
   140    47    44    1
   141    15    14    1
   142     6     5    1
   143    28    26    1
   144    14    11    1
   145    33    30    1
   146   145   146    1
   147    26    27    1
   148    26    25    2
   149    22    23    1
   150    22    19    1
   151    30    29    1
   152    30    31    1
   153    23    24    1
   154    25    24    1
   155    46    45    2
   156    11    12    1
   157    11    10    1
   158    44    45    1
   159    44    43    1
   160    29    20   am
   161     5     2    1
   162    13    12    2
   163    21    20    2
   164    20    19    1
   165    32    31    2
   166   146   147    1
   167    19    18    1
   168     4     3    2
   169   147   148    1
   170     2     3    1
   171     2     1    1
   172   148   149    1
