@<TRIPOS>MOLECULE
tmp/4y28E10.pdb
 82 76 0 0 0
SMALL
GASTEIGER

@<TRIPOS>ATOM
      1  N         11.8870   43.5760   78.9400 N.3    49  ARG49      -0.1245
      2  CA        13.2720   43.2820   79.2860 C.3    49  ARG49       0.1563
      3  C         14.0220   42.6210   78.1290 C.2    49  ARG49       0.2260
      4  O         15.1860   42.9360   77.8670 O.2    49  ARG49      -0.2867
      5  CB        13.3220   42.3830   80.5240 C.3    49  ARG49       0.0307
      6  CG        14.7170   41.9190   80.8990 C.3    49  ARG49       0.0489
      7  CD        14.6810   40.8360   81.9670 C.3    49  ARG49       0.2205
      8  NE        16.0060   40.2820   82.2340 N.pl3  49  ARG49      -0.0865
      9  CZ        16.2720   39.4210   83.2100 C.cat  49  ARG49       0.5346
     10  NH1       15.3020   39.0170   84.0180 N.pl3  49  ARG49       0.1354
     11  NH2       17.5050   38.9640   83.3830 N.pl3  49  ARG49       0.1354
     12  N         17.1870   44.2830   76.0020 N.3    53  ASN53      -0.1240
     13  CA        18.5210   43.7500   75.9850 C.3    53  ASN53       0.1653
     14  C         19.0690   43.5940   74.5910 C.2    53  ASN53       0.2266
     15  O         20.2320   43.8560   74.3550 O.2    53  ASN53      -0.2867
     16  CB        18.5670   42.4350   76.7340 C.3    53  ASN53       0.1155
     17  CG        18.6070   42.6270   78.2190 C.2    53  ASN53       0.2627
     18  OD1       18.0180   41.8800   78.9650 O.2    53  ASN53      -0.2716
     19  ND2       19.3130   43.6330   78.6520 N.am   53  ASN53      -0.0877
     20  N         22.4240   45.3540   73.3640 N.3    57  GLN57      -0.1245
     21  CA        23.6410   44.6500   73.0020 C.3    57  GLN57       0.1566
     22  C         24.0260   44.7100   71.5540 C.2    57  GLN57       0.2260
     23  O         24.7040   43.8470   71.0510 O.2    57  GLN57      -0.2867
     24  CB        23.6930   43.2400   73.5580 C.3    57  GLN57       0.0367
     25  CG        22.4000   42.4920   73.5010 C.3    57  GLN57       0.0905
     26  CD        22.2860   41.5300   74.6400 C.2    57  GLN57       0.2608
     27  OE1       21.8390   41.8870   75.7100 O.2    57  GLN57      -0.2717
     28  NE2       22.6850   40.3030   74.4160 N.am   57  GLN57      -0.0878
     29  N         22.1300   37.2750   63.2480 N.3    69  LEU69      -0.1245
     30  CA        23.4610   37.1150   63.7910 C.3    69  LEU69       0.1561
     31  C         24.6020   37.1480   62.8130 C.2    69  LEU69       0.2260
     32  O         24.5090   36.6260   61.7300 O.2    69  LEU69      -0.2867
     33  CB        23.5320   35.8120   64.5520 C.3    69  LEU69       0.0270
     34  CG        22.5940   35.7320   65.7250 C.3    69  LEU69       0.0019
     35  CD1       22.8630   34.4810   66.5140 C.3    69  LEU69       0.0001
     36  CD2       22.8050   36.9430   66.5900 C.3    69  LEU69       0.0001
     37  N         28.2660   35.8920   62.0980 N.3    71  VAL71      -0.1245
     38  CA        29.2000   34.8590   62.4970 C.3    71  VAL71       0.1561
     39  C         30.4940   34.8760   61.6990 C.2    71  VAL71       0.2260
     40  O         31.3160   34.0010   61.7950 O.2    71  VAL71      -0.2867
     41  CB        28.5510   33.4900   62.3600 C.3    71  VAL71       0.0252
     42  CG1       27.4000   33.3770   63.3180 C.3    71  VAL71       0.0019
     43  CG2       28.0470   33.3000   60.9540 C.3    71  VAL71       0.0019
     44  N         29.9180   38.0310   70.6790 N.3    79  GLY79      -0.1210
     45  CA        28.9010   37.6120   71.6120 C.3    79  GLY79       0.1956
     46  C         27.8740   36.7860   70.8950 C.2    79  GLY79       0.2612
     47  O         27.2730   35.9000   71.4610 O.2    79  GLY79      -0.2717
     48  N         27.6300   37.1350   69.6490 N.am   80  GLU80      -0.1965
     49  CA        26.6720   36.4220   68.8370 C.3    80  GLU80       0.1733
     50  C         27.0760   34.9860   68.5410 C.2    80  GLU80       0.2616
     51  O         26.2340   34.1220   68.5160 O.2    80  GLU80      -0.2715
     52  CB        26.3840   37.1800   67.5450 C.3    80  GLU80       0.0429
     53  CG        25.6630   38.4900   67.7660 C.3    80  GLU80       0.1163
     54  CD        25.4440   39.2690   66.4960 C.2    80  GLU80       0.3649
     55  OE1       26.0080   38.8960   65.4600 O.co2  80  GLU80      -0.2457
     56  OE2       24.7000   40.2530   66.5290 O.co2  80  GLU80      -0.2457
     57  N         28.3500   34.7290   68.2800 N.am   81  PHE81      -0.1974
     58  CA        28.7700   33.3770   67.9530 C.3    81  PHE81       0.1639
     59  C         30.0260   32.8510   68.5910 C.2    81  PHE81       0.2290
     60  O         30.0180   31.8560   69.2740 O.2    81  PHE81      -0.2864
     61  CB        28.9300   33.2540   66.4500 C.3    81  PHE81       0.0560
     62  CG        29.3410   31.8900   65.9910 C.ar   81  PHE81      -0.0200
     63  CD1       28.5900   30.7900   66.3060 C.ar   81  PHE81      -0.0042
     64  CD2       30.4590   31.7150   65.2230 C.ar   81  PHE81      -0.0042
     65  CE1       28.9570   29.5380   65.8810 C.ar   81  PHE81      -0.0003
     66  CE2       30.8300   30.4670   64.7930 C.ar   81  PHE81      -0.0003
     67  CZ        30.0810   29.3760   65.1240 C.ar   81  PHE81      -0.0000
     68  N         30.2120   32.4340   72.6680 N.3    84  PRO84      -0.2116
     69  CA        29.4960   31.2840   73.2270 C.3    84  PRO84       0.1372
     70  C         30.0870   29.9680   72.7880 C.2    84  PRO84       0.2244
     71  O         30.0960   29.0100   73.5360 O.2    84  PRO84      -0.2868
     72  CB        28.0870   31.4360   72.6820 C.3    84  PRO84       0.0268
     73  CG        27.9340   32.8660   72.4340 C.3    84  PRO84       0.0207
     74  CD        29.2190   33.1820   71.7870 C.3    84  PRO84       0.0892
     75  N         32.9300   28.6100   74.5180 N.3    87  LEU87      -0.1245
     76  CA        32.4010   28.1160   75.7640 C.3    87  LEU87       0.1561
     77  C         31.9320   26.7060   75.5760 C.2    87  LEU87       0.2260
     78  O         32.1160   25.8590   76.4180 O.2    87  LEU87      -0.2867
     79  CB        31.2410   28.9710   76.1990 C.3    87  LEU87       0.0270
     80  CG        30.4470   28.4150   77.3660 C.3    87  LEU87       0.0019
     81  CD1       31.3400   28.2260   78.5650 C.3    87  LEU87       0.0001
     82  CD2       29.3280   29.3580   77.7050 C.3    87  LEU87       0.0001
@<TRIPOS>BOND
     1    43    41    1
     2    39    40    2
     3    39    38    1
     4    32    31    2
     5    37    38    1
     6    41    38    1
     7    41    42    1
     8    31    30    1
     9    29    30    1
    10    30    33    1
    11    33    34    1
    12    66    67   ar
    13    66    64   ar
    14    67    65   ar
    15    64    62   ar
    16    55    54   ar
    17    34    35    1
    18    34    36    1
    19    65    63   ar
    20    62    63   ar
    21    62    61    1
    22    61    58    1
    23    54    56   ar
    24    54    53    1
    25    52    53    1
    26    52    49    1
    27    58    57    1
    28    58    59    1
    29    57    50   am
    30    51    50    2
    31    50    49    1
    32    59    60    2
    33    49    48    1
    34    48    46   am
    35    44    45    1
    36    46    47    2
    37    46    45    1
    38    23    22    2
    39    22    21    1
    40    74    73    1
    41    74    68    1
    42    73    72    1
    43    68    69    1
    44    72    69    1
    45    70    69    1
    46    70    71    2
    47    21    20    1
    48    21    24    1
    49    25    24    1
    50    25    26    1
    51    15    14    2
    52    28    26   am
    53    75    76    1
    54    14    13    1
    55    26    27    2
    56    77    76    1
    57    77    78    2
    58    76    79    1
    59    13    12    1
    60    13    16    1
    61    79    80    1
    62    16    17    1
    63    80    82    1
    64    80    81    1
    65     4     3    2
    66     3     2    1
    67    17    19   am
    68    17    18    2
    69     1     2    1
    70     2     5    1
    71     5     6    1
    72     6     7    1
    73     7     8    1
    74     8     9    2
    75     9    11    1
    76     9    10    1
