@<TRIPOS>MOLECULE
tmp/4y28A31.pdb
 151 153 0 0 0
SMALL
GASTEIGER

@<TRIPOS>ATOM
      1  N         -9.4480  -14.2150   49.0850 N.3   432  TRP432     -0.1227
      2  CA       -10.3730  -13.8250   48.0240 C.3   432  TRP432      0.1737
      3  C        -11.3320  -12.7170   48.4550 C.2   432  TRP432      0.2595
      4  O        -11.5380  -11.7480   47.7200 O.2   432  TRP432     -0.2718
      5  CB       -11.1790  -15.0310   47.5410 C.3   432  TRP432      0.0564
      6  CG       -12.3120  -14.6380   46.6470 C.ar  432  TRP432      0.0003
      7  CD1      -12.2300  -14.2660   45.3380 C.ar  432  TRP432      0.0946
      8  CD2      -13.6990  -14.5640   47.0000 C.ar  432  TRP432      0.0152
      9  NE1      -13.4800  -13.9670   44.8520 N.ar  432  TRP432     -0.2442
     10  CE2      -14.3990  -14.1420   45.8530 C.ar  432  TRP432      0.0810
     11  CE3      -14.4150  -14.8140   48.1740 C.ar  432  TRP432      0.0012
     12  CZ2      -15.7810  -13.9680   45.8440 C.ar  432  TRP432      0.0191
     13  CZ3      -15.7870  -14.6390   48.1640 C.ar  432  TRP432      0.0001
     14  CH2      -16.4550  -14.2210   47.0060 C.ar  432  TRP432      0.0015
     15  N        -11.9210  -12.8700   49.6400 N.am  433  VAL433     -0.1980
     16  CA       -12.8850  -11.9010   50.1550 C.3   433  VAL433      0.1595
     17  C        -12.2750  -10.5020   50.2360 C.2   433  VAL433      0.2287
     18  O        -12.9190   -9.5120   49.8890 O.2   433  VAL433     -0.2864
     19  CB       -13.4060  -12.3020   51.5510 C.3   433  VAL433      0.0276
     20  CG1      -14.4870  -11.3400   52.0140 C.3   433  VAL433      0.0022
     21  CG2      -13.9440  -13.7140   51.5260 C.3   433  VAL433      0.0022
     22  N        -12.0360   -9.0300   46.8030 N.3   436  PHE436     -0.1227
     23  CA       -13.3820   -8.6260   46.4150 C.3   436  PHE436      0.1736
     24  C        -13.7900   -7.3410   47.1250 C.2   436  PHE436      0.2595
     25  O        -14.3950   -6.4570   46.5220 O.2   436  PHE436     -0.2718
     26  CB       -14.3970   -9.7290   46.7210 C.3   436  PHE436      0.0547
     27  CG       -15.8310   -9.2820   46.6010 C.ar  436  PHE436     -0.0202
     28  CD1      -16.4490   -9.2130   45.3610 C.ar  436  PHE436     -0.0042
     29  CD2      -16.5560   -8.9240   47.7280 C.ar  436  PHE436     -0.0042
     30  CE1      -17.7670   -8.7980   45.2450 C.ar  436  PHE436     -0.0003
     31  CE2      -17.8720   -8.5060   47.6190 C.ar  436  PHE436     -0.0003
     32  CZ       -18.4780   -8.4440   46.3750 C.ar  436  PHE436     -0.0000
     33  N        -13.4610   -7.2410   48.4090 N.am  437  LEU437     -0.1980
     34  CA       -13.8430   -6.0730   49.1930 C.3   437  LEU437      0.1596
     35  C        -13.0370   -4.8460   48.7830 C.2   437  LEU437      0.2287
     36  O        -13.5790   -3.7430   48.7120 O.2   437  LEU437     -0.2864
     37  CB       -13.6760   -6.3480   50.6890 C.3   437  LEU437      0.0297
     38  CG       -14.7350   -7.2720   51.2960 C.3   437  LEU437      0.0022
     39  CD1      -14.4910   -7.4850   52.7810 C.3   437  LEU437      0.0001
     40  CD2      -16.1240   -6.7070   51.0480 C.3   437  LEU437      0.0001
     41  N        -27.7620    2.9470   48.0060 N.3   469  GLN469     -0.1231
     42  CA       -28.4640    3.1920   49.2600 C.3   469  GLN469      0.1683
     43  C        -28.3570    1.9990   50.2070 C.2   469  GLN469      0.2434
     44  O        -28.8350    0.9070   49.8940 O.2   469  GLN469     -0.2733
     45  CB       -29.9360    3.5130   48.9860 C.3   469  GLN469      0.0380
     46  CG       -30.4540    4.7460   49.7050 C.3   469  GLN469      0.0905
     47  CD       -29.7930    6.0170   49.2200 C.2   469  GLN469      0.2608
     48  OE1      -29.9760    6.4270   48.0760 O.2   469  GLN469     -0.2717
     49  NE2      -29.0100    6.6430   50.0870 N.am  469  GLN469     -0.0878
     50  N        -27.7250    2.2050   51.3720 N.am  470  PRO470     -0.2718
     51  CA       -27.6030    1.1510   52.3850 C.3   470  PRO470      0.1535
     52  C        -28.9390    0.8590   53.0680 C.2   470  PRO470      0.2598
     53  O        -29.1400    1.2510   54.2160 O.2   470  PRO470     -0.2715
     54  CB       -26.5970    1.7370   53.3770 C.3   470  PRO470      0.0310
     55  CG       -26.7480    3.2120   53.2370 C.3   470  PRO470      0.0237
     56  CD       -27.0600    3.4530   51.7870 C.3   470  PRO470      0.0939
     57  N        -29.8270    0.1600   52.3680 N.am  471  VAL471     -0.1964
     58  CA       -31.2070   -0.0070   52.8170 C.3   471  VAL471      0.1727
     59  C        -31.3610   -0.8880   54.0580 C.2   471  VAL471      0.2616
     60  O        -32.3100   -0.7200   54.8220 O.2   471  VAL471     -0.2715
     61  CB       -32.0880   -0.5900   51.6880 C.3   471  VAL471      0.0290
     62  CG1      -32.0610    0.3240   50.4740 C.3   471  VAL471      0.0023
     63  CG2      -31.6310   -1.9940   51.3100 C.3   471  VAL471      0.0023
     64  N        -30.4350   -1.8210   54.2620 N.am  472  PHE472     -0.1960
     65  CA       -30.5300   -2.7420   55.3910 C.3   472  PHE472      0.1771
     66  C        -30.3140   -2.0150   56.7120 C.2   472  PHE472      0.2619
     67  O        -31.0250   -2.2560   57.6880 O.2   472  PHE472     -0.2715
     68  CB       -29.5240   -3.8840   55.2410 C.3   472  PHE472      0.0574
     69  CG       -29.7760   -4.7540   54.0450 C.ar  472  PHE472     -0.0200
     70  CD1      -31.0630   -5.1380   53.7150 C.ar  472  PHE472     -0.0042
     71  CD2      -28.7300   -5.1770   53.2460 C.ar  472  PHE472     -0.0042
     72  CE1      -31.3000   -5.9330   52.6150 C.ar  472  PHE472     -0.0003
     73  CE2      -28.9630   -5.9700   52.1430 C.ar  472  PHE472     -0.0003
     74  CZ       -30.2500   -6.3500   51.8280 C.ar  472  PHE472     -0.0000
     75  N        -29.3320   -1.1190   56.7360 N.am  473  ALA473     -0.1977
     76  CA       -29.0660   -0.3150   57.9220 C.3   473  ALA473      0.1597
     77  C        -30.1550    0.7350   58.1120 C.2   473  ALA473      0.2287
     78  O        -30.4970    1.0890   59.2410 O.2   473  ALA473     -0.2864
     79  CB       -27.7000    0.3420   57.8230 C.3   473  ALA473      0.0319
     80  N        -28.2040    8.3370   56.5440 N.3   518  LEU518     -0.1245
     81  CA       -27.3730    7.3250   55.9080 C.3   518  LEU518      0.1561
     82  C        -27.6180    7.3030   54.4030 C.2   518  LEU518      0.2260
     83  O        -28.7540    7.1550   53.9500 O.2   518  LEU518     -0.2867
     84  CB       -27.6370    5.9460   56.5150 C.3   518  LEU518      0.0270
     85  CG       -27.2380    5.7780   57.9830 C.3   518  LEU518      0.0019
     86  CD1      -27.5460    4.3720   58.4700 C.3   518  LEU518      0.0001
     87  CD2      -25.7660    6.1040   58.1830 C.3   518  LEU518      0.0001
     88  N        -22.2240    6.7890   53.0970 N.3   522  ASP522     -0.1225
     89  CA       -22.0700    5.9160   54.2550 C.3   522  ASP522      0.1805
     90  C        -21.8930    4.4680   53.8210 C.2   522  ASP522      0.2597
     91  O        -21.2370    3.6790   54.5010 O.2   522  ASP522     -0.2718
     92  CB       -23.2730    6.0520   55.1850 C.3   522  ASP522      0.1424
     93  CG       -23.6240    7.4940   55.4590 C.2   522  ASP522      0.3668
     94  OD1      -22.9980    8.1000   56.3520 O.co2 522  ASP522     -0.2456
     95  OD2      -24.5190    8.0240   54.7700 O.co2 522  ASP522     -0.2456
     96  N        -22.4860    4.1310   52.6810 N.am  523  PHE523     -0.1976
     97  CA       -22.3370    2.8070   52.0930 C.3   523  PHE523      0.1639
     98  C        -20.8730    2.5210   51.7870 C.2   523  PHE523      0.2290
     99  O        -20.3360    1.4890   52.1880 O.2   523  PHE523     -0.2864
    100  CB       -23.1770    2.6900   50.8180 C.3   523  PHE523      0.0560
    101  CG       -23.1920    1.3100   50.2180 C.ar  523  PHE523     -0.0200
    102  CD1      -22.2400    0.9320   49.2850 C.ar  523  PHE523     -0.0042
    103  CD2      -24.1680    0.3970   50.5760 C.ar  523  PHE523     -0.0042
    104  CE1      -22.2550   -0.3310   48.7300 C.ar  523  PHE523     -0.0003
    105  CE2      -24.1890   -0.8670   50.0240 C.ar  523  PHE523     -0.0003
    106  CZ       -23.2310   -1.2310   49.1000 C.ar  523  PHE523     -0.0000
    107  N        -18.4030    2.1420   54.8670 N.3   526  HIS526     -0.1226
    108  CA       -18.6220    0.9330   55.6530 C.3   526  HIS526      0.1752
    109  C        -18.0120   -0.3010   55.0010 C.2   526  HIS526      0.2596
    110  O        -17.5350   -1.2020   55.6920 O.2   526  HIS526     -0.2718
    111  CB       -20.1100    0.7010   55.8850 C.3   526  HIS526      0.0759
    112  CG       -20.6750    1.4830   57.0280 C.ar  526  HIS526      0.0818
    113  ND1      -21.0250    2.8130   56.9220 N.ar  526  HIS526     -0.2268
    114  CD2      -20.9560    1.1220   58.3030 C.ar  526  HIS526      0.1154
    115  CE1      -21.4950    3.2370   58.0810 C.ar  526  HIS526      0.1986
    116  NE2      -21.4630    2.2290   58.9360 N.ar  526  HIS526     -0.2212
    117  N        -18.0420   -0.3530   53.6730 N.am  527  HIS527     -0.1975
    118  CA       -17.4130   -1.4550   52.9560 C.3   527  HIS527      0.1656
    119  C        -15.9020   -1.3070   53.0260 C.2   527  HIS527      0.2291
    120  O        -15.1690   -2.2950   53.0120 O.2   527  HIS527     -0.2864
    121  CB       -17.8910   -1.5110   51.5080 C.3   527  HIS527      0.0771
    122  CG       -19.2590   -2.0940   51.3530 C.ar  527  HIS527      0.0820
    123  ND1      -20.3520   -1.6230   52.0470 N.ar  527  HIS527     -0.2267
    124  CD2      -19.7100   -3.1180   50.5900 C.ar  527  HIS527      0.1154
    125  CE1      -21.4190   -2.3280   51.7160 C.ar  527  HIS527      0.1986
    126  NE2      -21.0570   -3.2380   50.8310 N.ar  527  HIS527     -0.2212
    127  N        -14.5660   -0.1760   55.6960 N.3   529  HIS529     -0.1226
    128  CA       -14.3600   -0.7470   57.0230 C.3   529  HIS529      0.1752
    129  C        -14.3650   -2.2650   56.9570 C.2   529  HIS529      0.2595
    130  O        -13.4720   -2.9170   57.4960 O.2   529  HIS529     -0.2718
    131  CB       -15.4320   -0.2590   57.9950 C.3   529  HIS529      0.0759
    132  CG       -15.3720    1.2110   58.2630 C.ar  529  HIS529      0.0818
    133  ND1      -14.1910    1.9200   58.2530 N.ar  529  HIS529     -0.2268
    134  CD2      -16.3470    2.1070   58.5380 C.ar  529  HIS529      0.1154
    135  CE1      -14.4400    3.1900   58.5170 C.ar  529  HIS529      0.1986
    136  NE2      -15.7400    3.3310   58.6950 N.ar  529  HIS529     -0.2212
    137  N        -15.3750   -2.8170   56.2910 N.am  530  ALA530     -0.1980
    138  CA       -15.4730   -4.2570   56.0800 C.3   530  ALA530      0.1597
    139  C        -14.2330   -4.7800   55.3670 C.2   530  ALA530      0.2287
    140  O        -13.7660   -5.8850   55.6410 O.2   530  ALA530     -0.2864
    141  CB       -16.7230   -4.5950   55.2830 C.3   530  ALA530      0.0319
    142  N        -11.1170   -7.1300   57.3980 N.3   534  HIS534     -0.1241
    143  CA       -10.8200   -8.4710   56.8960 C.3   534  HIS534      0.1621
    144  C         -9.3340   -8.6700   56.6210 C.2   534  HIS534      0.2264
    145  O         -8.7620   -9.7000   56.9830 O.2   534  HIS534     -0.2867
    146  CB       -11.6160   -8.7620   55.6230 C.3   534  HIS534      0.0745
    147  CG       -13.0600   -9.0620   55.8690 C.ar  534  HIS534      0.0817
    148  ND1      -13.9450   -8.1150   56.3400 N.ar  534  HIS534     -0.2268
    149  CD2      -13.7730  -10.2010   55.7180 C.ar  534  HIS534      0.1154
    150  CE1      -15.1430   -8.6590   56.4650 C.ar  534  HIS534      0.1986
    151  NE2      -15.0660   -9.9230   56.0930 N.ar  534  HIS534     -0.2212
@<TRIPOS>BOND
     1     9     7   ar
     2     9    10   ar
     3    30    28   ar
     4    30    32   ar
     5     7     6   ar
     6    28    27   ar
     7    12    10   ar
     8    12    14   ar
     9    10     8   ar
    10    32    31   ar
    11    23    26    1
    12    23    22    1
    13    23    24    1
    14    25    24    2
    15    27    26    1
    16    27    29   ar
    17     6     8   ar
    18     6     5    1
    19     8    11   ar
    20    14    13   ar
    21    24    33   am
    22     5     2    1
    23    31    29   ar
    24     4     3    2
    25    41    42    1
    26     2     3    1
    27     2     1    1
    28    48    47    2
    29    13    11   ar
    30    33    34    1
    31     3    15   am
    32    36    35    2
    33   104   106   ar
    34   104   102   ar
    35    35    34    1
    36    45    42    1
    37    45    46    1
    38   106   105   ar
    39    34    37    1
    40    47    46    1
    41    47    49   am
    42    42    43    1
    43   102   101   ar
    44    15    16    1
    45    18    17    2
    46    44    43    2
    47   105   103   ar
    48    16    17    1
    49    16    19    1
    50    43    50   am
    51   101   103   ar
    52   101   100    1
    53    62    61    1
    54   124   126   ar
    55   124   122   ar
    56    37    38    1
    57   100    97    1
    58   126   125   ar
    59    40    38    1
    60    38    39    1
    61    63    61    1
    62   122   121    1
    63   122   123   ar
    64    50    56    1
    65    50    51    1
    66   121   118    1
    67    21    19    1
    68    19    20    1
    69    61    58    1
    70   125   123   ar
    71    56    55    1
    72    98    97    1
    73    98    99    2
    74    74    73   ar
    75    74    72   ar
    76    97    96    1
    77    73    71   ar
    78    57    58    1
    79    57    52   am
    80    51    52    1
    81    51    54    1
    82    72    70   ar
    83    96    90   am
    84    58    59    1
    85   118   119    1
    86   118   117    1
    87   120   119    2
    88    52    53    2
    89    88    89    1
    90    55    54    1
    91    71    69   ar
    92   117   109   am
    93    70    69   ar
    94    90    89    1
    95    90    91    2
    96    83    82    2
    97    69    68    1
    98    59    64   am
    99    59    60    2
   100    89    92    1
   101    64    65    1
   102    82    81    1
   103    95    93   ar
   104   107   108    1
   105   109   108    1
   106   109   110    2
   107    92    93    1
   108    68    65    1
   109   141   138    1
   110   139   140    2
   111   139   138    1
   112    65    66    1
   113    93    94   ar
   114   146   147    1
   115   146   143    1
   116   108   111    1
   117   127   128    1
   118   149   147   ar
   119   149   151   ar
   120   147   148   ar
   121   111   112    1
   122    81    84    1
   123    81    80    1
   124   138   137    1
   125   151   150   ar
   126   137   129   am
   127   148   150   ar
   128    84    85    1
   129   144   143    1
   130   144   145    2
   131    66    75   am
   132    66    67    2
   133    75    76    1
   134   143   142    1
   135   113   112   ar
   136   113   115   ar
   137   129   128    1
   138   129   130    2
   139   128   131    1
   140   112   114   ar
   141    79    76    1
   142    76    77    1
   143    85    87    1
   144    85    86    1
   145   131   132    1
   146   115   116   ar
   147    77    78    2
   148   133   132   ar
   149   133   135   ar
   150   132   134   ar
   151   114   116   ar
   152   135   136   ar
   153   134   136   ar
