@<TRIPOS>MOLECULE
tmp/4y28N15.pdb
 144 136 0 0 0
SMALL
GASTEIGER

@<TRIPOS>ATOM
      1  N         52.9030   32.4530   95.2430 N.3   159  LEU159     -0.1245
      2  CA        52.1870   33.5100   95.9200 C.3   159  LEU159      0.1561
      3  C         51.9110   34.6700   94.9990 C.2   159  LEU159      0.2260
      4  O         50.8510   35.2660   95.0310 O.2   159  LEU159     -0.2867
      5  CB        52.9490   33.9920   97.1330 C.3   159  LEU159      0.0270
      6  CG        52.1680   35.0420   97.9070 C.3   159  LEU159      0.0019
      7  CD1       50.8370   34.4900   98.3650 C.3   159  LEU159      0.0001
      8  CD2       52.9620   35.5360   99.0940 C.3   159  LEU159      0.0001
      9  N         48.7410   34.3710   92.7660 N.3   162  LEU162     -0.1231
     10  CA        47.4720   34.3690   93.3790 C.3   162  LEU162      0.1693
     11  C         47.2020   35.8540   93.4680 C.2   162  LEU162      0.2591
     12  O         46.1090   36.2890   93.2250 O.2   162  LEU162     -0.2718
     13  CB        47.4910   33.6930   94.7260 C.3   162  LEU162      0.0284
     14  CG        47.3910   32.1760   94.6680 C.3   162  LEU162      0.0019
     15  CD1       46.8350   31.7100   95.9900 C.3   162  LEU162      0.0001
     16  CD2       46.4750   31.7080   93.5600 C.3   162  LEU162      0.0001
     17  N         48.2730   36.5750   93.7420 N.am  163  ALA163     -0.1980
     18  CA        48.1790   37.9940   93.8060 C.3   163  ALA163      0.1597
     19  C         47.8230   38.5220   92.4490 C.2   163  ALA163      0.2287
     20  O         46.9040   39.3180   92.3130 O.2   163  ALA163     -0.2864
     21  CB        49.5080   38.5580   94.2410 C.3   163  ALA163      0.0319
     22  N         46.4150   37.0000   90.0850 N.3   165  LEU165     -0.1231
     23  CA        45.0750   36.5930   89.7720 C.3   165  LEU165      0.1693
     24  C         44.1790   37.5190   90.5290 C.2   165  LEU165      0.2592
     25  O         43.1540   37.9300   90.0450 O.2   165  LEU165     -0.2718
     26  CB        44.8340   35.1620   90.1990 C.3   165  LEU165      0.0284
     27  CG        43.4400   34.6470   89.8940 C.3   165  LEU165      0.0019
     28  CD1       43.1760   34.7110   88.4120 C.3   165  LEU165      0.0001
     29  CD2       43.3040   33.2280   90.3860 C.3   165  LEU165      0.0001
     30  N         44.5730   37.8360   91.7440 N.am  166  GLY166     -0.1957
     31  CA        43.7820   38.7310   92.5500 C.3   166  GLY166      0.1869
     32  C         43.6900   40.1330   92.0010 C.2   166  GLY166      0.2309
     33  O         42.6210   40.7320   91.9870 O.2   166  GLY166     -0.2863
     34  N         41.2520   40.2720   88.7360 N.3   169  ILE169     -0.1231
     35  CA        39.8620   40.0490   89.0260 C.3   169  ILE169      0.1692
     36  C         39.3780   41.1680   89.8920 C.2   169  ILE169      0.2591
     37  O         38.3010   41.6940   89.7110 O.2   169  ILE169     -0.2718
     38  CB        39.6640   38.7300   89.7470 C.3   169  ILE169      0.0266
     39  CG1       40.0380   37.6010   88.8170 C.3   169  ILE169      0.0019
     40  CG2       38.2280   38.5740   90.1970 C.3   169  ILE169      0.0020
     41  CD1       39.6920   36.2540   89.3770 C.3   169  ILE169      0.0001
     42  N         40.2120   41.5370   90.8420 N.am  170  GLN170     -0.1979
     43  CA        39.8720   42.5810   91.7770 C.3   170  GLN170      0.1601
     44  C         39.6680   43.8550   91.0140 C.2   170  GLN170      0.2287
     45  O         38.7830   44.6330   91.3310 O.2   170  GLN170     -0.2864
     46  CB        40.9900   42.7540   92.7840 C.3   170  GLN170      0.0394
     47  CG        40.5360   42.7520   94.2200 C.3   170  GLN170      0.0908
     48  CD        41.4090   41.8700   95.0680 C.2   170  GLN170      0.2608
     49  OE1       41.5160   42.0710   96.2580 O.2   170  GLN170     -0.2717
     50  NE2       42.0380   40.9030   94.4600 N.am  170  GLN170     -0.0878
     51  N         34.9270   44.7490   88.6530 N.3   173  VAL173     -0.1231
     52  CA        34.1010   44.8220   89.8280 C.3   173  VAL173      0.1692
     53  C         34.5550   45.9960   90.6660 C.2   173  VAL173      0.2592
     54  O         33.7540   46.8680   90.9510 O.2   173  VAL173     -0.2718
     55  CB        34.2600   43.5610   90.6680 C.3   173  VAL173      0.0266
     56  CG1       33.5190   43.6950   91.9860 C.3   173  VAL173      0.0020
     57  CG2       33.7480   42.3770   89.8860 C.3   173  VAL173      0.0020
     58  N         35.8230   46.0250   91.0700 N.am  174  THR174     -0.1953
     59  CA        36.2630   47.1310   91.8920 C.3   174  THR174      0.1897
     60  C         36.3610   48.4360   91.1260 C.2   174  THR174      0.2313
     61  O         35.8450   49.4550   91.5490 O.2   174  THR174     -0.2863
     62  CB        37.5660   46.7500   92.6440 C.3   174  THR174      0.1794
     63  OG1       37.3040   46.7740   94.0460 O.3   174  THR174     -0.2208
     64  CG2       38.7760   47.6630   92.3590 C.3   174  THR174      0.0378
     65  N         44.6800   47.9970   93.5340 N.3   178  PRO178     -0.2116
     66  CA        44.8110   47.0580   94.6490 C.3   178  PRO178      0.1372
     67  C         45.0730   47.7650   95.9580 C.2   178  PRO178      0.2244
     68  O         44.4290   47.4400   96.9500 O.2   178  PRO178     -0.2868
     69  CB        46.0330   46.2370   94.2760 C.3   178  PRO178      0.0268
     70  CG        46.8460   47.1400   93.4580 C.3   178  PRO178      0.0207
     71  CD        45.8190   47.7070   92.5640 C.3   178  PRO178      0.0892
     72  N         41.9820   49.2020   96.9470 N.3   181  ASN181     -0.1225
     73  CA        41.0810   48.1910   97.4270 C.3   181  ASN181      0.1785
     74  C         41.4410   47.9070   98.8490 C.2   181  ASN181      0.2597
     75  O         40.5820   47.7480   99.6930 O.2   181  ASN181     -0.2718
     76  CB        41.2680   46.9260   96.6180 C.3   181  ASN181      0.1169
     77  CG        40.8400   47.0920   95.1940 C.2   181  ASN181      0.2627
     78  OD1       39.7660   47.5870   94.9280 O.2   181  ASN181     -0.2716
     79  ND2       41.6900   46.7020   94.2720 N.am  181  ASN181     -0.0877
     80  N         42.7300   47.8460   99.1160 N.am  182  LEU182     -0.1980
     81  CA        43.2000   47.5570  100.4500 C.3   182  LEU182      0.1596
     82  C         42.7940   48.6170  101.4420 C.2   182  LEU182      0.2287
     83  O         42.3900   48.3170  102.5560 O.2   182  LEU182     -0.2864
     84  CB        44.7060   47.4390  100.4280 C.3   182  LEU182      0.0297
     85  CG        45.3510   47.1550  101.7620 C.3   182  LEU182      0.0022
     86  CD1       44.7180   45.9200  102.3520 C.3   182  LEU182      0.0001
     87  CD2       46.8320   46.9370  101.5470 C.3   182  LEU182      0.0001
     88  N         40.2620   50.5630  101.2460 N.3   184  GLN184     -0.1231
     89  CA        38.8430   50.4870  101.4870 C.3   184  GLN184      0.1698
     90  C         38.5860   49.4000  102.4940 C.2   184  GLN184      0.2592
     91  O         37.8230   49.5860  103.4180 O.2   184  GLN184     -0.2718
     92  CB        38.0920   50.1850  100.2000 C.3   184  GLN184      0.0381
     93  CG        38.2850   51.2300   99.1320 C.3   184  GLN184      0.0905
     94  CD        37.7390   52.5640   99.5550 C.2   184  GLN184      0.2608
     95  OE1       36.8920   52.6340  100.4340 O.2   184  GLN184     -0.2717
     96  NE2       38.2180   53.6300   98.9340 N.am  184  GLN184     -0.0878
     97  N         39.2290   48.2590  102.3210 N.am  185  HIS185     -0.1976
     98  CA        39.0290   47.1570  103.2420 C.3   185  HIS185      0.1656
     99  C         39.5450   47.5330  104.6100 C.2   185  HIS185      0.2291
    100  O         38.8970   47.2970  105.6170 O.2   185  HIS185     -0.2864
    101  CB        39.6960   45.9010  102.6750 C.3   185  HIS185      0.0771
    102  CG        39.8970   44.7890  103.6570 C.ar  185  HIS185      0.0820
    103  ND1       38.8600   44.0450  104.1680 N.ar  185  HIS185     -0.2267
    104  CD2       41.0340   44.2500  104.1630 C.ar  185  HIS185      0.1154
    105  CE1       39.3480   43.1230  104.9770 C.ar  185  HIS185      0.1986
    106  NE2       40.6710   43.2130  104.9860 N.ar  185  HIS185     -0.2212
    107  N         33.5300   46.3400  103.9040 N.3   192  ASN192     -0.1225
    108  CA        34.1600   46.2950  102.6040 C.3   192  ASN192      0.1785
    109  C         34.7330   44.9120  102.4160 C.2   192  ASN192      0.2598
    110  O         35.6980   44.5220  103.0640 O.2   192  ASN192     -0.2718
    111  CB        35.2280   47.3570  102.4560 C.3   192  ASN192      0.1169
    112  CG        34.6490   48.7020  102.1210 C.2   192  ASN192      0.2627
    113  OD1       33.5710   49.0520  102.5840 O.2   192  ASN192     -0.2716
    114  ND2       35.3600   49.4650  101.3060 N.am  192  ASN192     -0.0877
    115  N         34.1180   44.1820  101.5040 N.am  193  THR193     -0.1939
    116  CA        34.4880   42.8260  101.2050 C.3   193  THR193      0.2028
    117  C         33.9080   42.5030   99.8770 C.2   193  THR193      0.2642
    118  O         33.1860   43.2850   99.3000 O.2   193  THR193     -0.2714
    119  CB        33.8470   41.8600  102.1790 C.3   193  THR193      0.1808
    120  OG1       32.4280   41.9790  102.0760 O.3   193  THR193     -0.2208
    121  CG2       34.2680   42.1930  103.5680 C.3   193  THR193      0.0379
    122  N         34.1920   41.3150   99.3940 N.am  194  ILE194     -0.1977
    123  CA        33.6540   40.9100   98.1240 C.3   194  ILE194      0.1596
    124  C         32.1510   40.9910   98.2170 C.2   194  ILE194      0.2287
    125  O         31.4750   41.2120   97.2350 O.2   194  ILE194     -0.2864
    126  CB        34.0720   39.4810   97.7700 C.3   194  ILE194      0.0276
    127  CG1       33.7330   39.1760   96.3220 C.3   194  ILE194      0.0022
    128  CG2       33.4050   38.4780   98.6890 C.3   194  ILE194      0.0022
    129  CD1       34.1780   37.8070   95.8860 C.3   194  ILE194      0.0001
    130  N         30.8520   44.5390   97.4480 N.3   197  THR197     -0.1203
    131  CA        31.1200   44.8830   96.0680 C.3   197  THR197      0.1994
    132  C         30.3120   44.1400   95.0170 C.2   197  THR197      0.2617
    133  O         29.8810   44.7350   94.0460 O.2   197  THR197     -0.2717
    134  CB        32.6070   44.8010   95.7590 C.3   197  THR197      0.1784
    135  OG1       33.0550   43.4710   95.9660 O.3   197  THR197     -0.2211
    136  CG2       33.3570   45.6900   96.6950 C.3   197  THR197      0.0376
    137  N         30.1010   42.8460   95.1950 N.am  198  LEU198     -0.1979
    138  CA        29.3520   42.0800   94.2130 C.3   198  LEU198      0.1596
    139  C         27.8620   42.0910   94.4970 C.2   198  LEU198      0.2287
    140  O         27.2950   43.1240   94.8200 O.2   198  LEU198     -0.2864
    141  CB        29.8620   40.6370   94.1650 C.3   198  LEU198      0.0297
    142  CG        31.3030   40.4440   93.6860 C.3   198  LEU198      0.0022
    143  CD1       31.7230   38.9890   93.8280 C.3   198  LEU198      0.0001
    144  CD2       31.4600   40.9140   92.2480 C.3   198  LEU198      0.0001
@<TRIPOS>BOND
     1    28    27    1
     2    51    52    1
     3    34    35    1
     4    39    41    1
     5    39    38    1
     6    35    38    1
     7    35    36    1
     8    37    36    2
     9    38    40    1
    10    23    22    1
    11    23    26    1
    12    23    24    1
    13    52    53    1
    14    52    55    1
    15    57    55    1
    16    36    42   am
    17    27    26    1
    18    27    29    1
    19    25    24    2
    20    24    30   am
    21    53    54    2
    22    53    58   am
    23    55    56    1
    24    42    43    1
    25    44    45    2
    26    44    43    1
    27    58    59    1
    28    60    61    2
    29    60    59    1
    30    30    31    1
    31    43    46    1
    32    59    62    1
    33    33    32    2
    34    32    31    1
    35   144   142    1
    36    20    19    2
    37    64    62    1
    38    19    18    1
    39    71    70    1
    40    71    65    1
    41    62    63    1
    42     9    10    1
    43    46    47    1
    44    12    11    2
    45    10    11    1
    46    10    13    1
    47    70    69    1
    48    11    17   am
    49    65    66    1
    50    16    14    1
    51   142   143    1
    52   142   141    1
    53    17    18    1
    54    18    21    1
    55   133   132    2
    56   141   138    1
    57   138   139    1
    58   138   137    1
    59    47    48    1
    60    79    77   am
    61    69    66    1
    62    50    48   am
    63   139   140    2
    64    66    67    1
    65    14    13    1
    66    14    15    1
    67    78    77    2
    68     3     4    2
    69     3     2    1
    70   132   137   am
    71   132   131    1
    72    48    49    2
    73    77    76    1
    74     1     2    1
    75   134   135    1
    76   134   131    1
    77   134   136    1
    78   129   127    1
    79     2     5    1
    80    67    68    2
    81   131   130    1
    82   127   126    1
    83    76    73    1
    84    72    73    1
    85     5     6    1
    86   125   124    2
    87    73    74    1
    88   126   123    1
    89   126   128    1
    90     6     7    1
    91     6     8    1
    92   123   124    1
    93   123   122    1
    94    74    80   am
    95    74    75    2
    96    96    94   am
    97    80    81    1
    98    93    94    1
    99    93    92    1
   100   118   117    2
   101   122   117   am
   102    94    95    2
   103   117   116    1
   104    92    89    1
   105    84    81    1
   106    84    85    1
   107    81    82    1
   108   116   115    1
   109   116   119    1
   110    88    89    1
   111   114   112   am
   112    82    83    2
   113    89    90    1
   114   115   109   am
   115    87    85    1
   116    85    86    1
   117   120   119    1
   118   112   111    1
   119   112   113    2
   120   119   121    1
   121    97    90   am
   122    97    98    1
   123   109   108    1
   124   109   110    2
   125   111   108    1
   126    90    91    2
   127   108   107    1
   128   101    98    1
   129   101   102    1
   130    98    99    1
   131   102   104   ar
   132   102   103   ar
   133   104   106   ar
   134   103   105   ar
   135    99   100    2
   136   105   106   ar
