@<TRIPOS>MOLECULE
tmp/4y28A32.pdb
 113 110 0 0 0
SMALL
GASTEIGER

@<TRIPOS>ATOM
      1  N         -9.0190  -21.9720   54.5050 N.3   426  ILE426     -0.1245
      2  CA        -9.4690  -20.7930   55.2330 C.3   426  ILE426      0.1561
      3  C         -8.7420  -19.5410   54.7570 C.2   426  ILE426      0.2260
      4  O         -9.3650  -18.5040   54.5210 O.2   426  ILE426     -0.2867
      5  CB        -9.2600  -20.9510   56.7500 C.3   426  ILE426      0.0252
      6  CG1       -9.9990  -22.1900   57.2620 C.3   426  ILE426      0.0019
      7  CG2       -9.7330  -19.7100   57.4810 C.3   426  ILE426      0.0019
      8  CD1       -9.9510  -22.3540   58.7660 C.3   426  ILE426      0.0001
      9  N         -9.5560  -18.4690   51.0560 N.3   429  HIS429     -0.1226
     10  CA       -10.8710  -17.8390   50.9510 C.3   429  HIS429      0.1752
     11  C        -10.8660  -16.4300   51.5190 C.2   429  HIS429      0.2595
     12  O        -11.4340  -15.5130   50.9270 O.2   429  HIS429     -0.2718
     13  CB       -11.9270  -18.6790   51.6610 C.3   429  HIS429      0.0759
     14  CG       -12.2520  -19.9510   50.9510 C.ar  429  HIS429      0.0818
     15  ND1      -11.3130  -20.9340   50.7260 N.ar  429  HIS429     -0.2268
     16  CD2      -13.4040  -20.3970   50.4000 C.ar  429  HIS429      0.1154
     17  CE1      -11.8750  -21.9350   50.0770 C.ar  429  HIS429      0.1986
     18  NE2      -13.1430  -21.6350   49.8680 N.ar  429  HIS429     -0.2212
     19  N        -10.2250  -16.2690   52.6720 N.am  430  LEU430     -0.1980
     20  CA       -10.0920  -14.9610   53.3010 C.3   430  LEU430      0.1596
     21  C         -9.2880  -14.0410   52.3970 C.2   430  LEU430      0.2287
     22  O         -9.5100  -12.8340   52.3680 O.2   430  LEU430     -0.2864
     23  CB        -9.4320  -15.0870   54.6730 C.3   430  LEU430      0.0297
     24  CG        -9.4060  -13.8500   55.5680 C.3   430  LEU430      0.0022
     25  CD1      -10.7280  -13.1030   55.5020 C.3   430  LEU430      0.0001
     26  CD2       -9.1000  -14.2710   56.9950 C.3   430  LEU430      0.0001
     27  N         -9.4480  -14.2150   49.0850 N.3   432  TRP432     -0.1227
     28  CA       -10.3730  -13.8250   48.0240 C.3   432  TRP432      0.1737
     29  C        -11.3320  -12.7170   48.4550 C.2   432  TRP432      0.2595
     30  O        -11.5380  -11.7480   47.7200 O.2   432  TRP432     -0.2718
     31  CB       -11.1790  -15.0310   47.5410 C.3   432  TRP432      0.0564
     32  CG       -12.3120  -14.6380   46.6470 C.ar  432  TRP432      0.0003
     33  CD1      -12.2300  -14.2660   45.3380 C.ar  432  TRP432      0.0946
     34  CD2      -13.6990  -14.5640   47.0000 C.ar  432  TRP432      0.0152
     35  NE1      -13.4800  -13.9670   44.8520 N.ar  432  TRP432     -0.2442
     36  CE2      -14.3990  -14.1420   45.8530 C.ar  432  TRP432      0.0810
     37  CE3      -14.4150  -14.8140   48.1740 C.ar  432  TRP432      0.0012
     38  CZ2      -15.7810  -13.9680   45.8440 C.ar  432  TRP432      0.0191
     39  CZ3      -15.7870  -14.6390   48.1640 C.ar  432  TRP432      0.0001
     40  CH2      -16.4550  -14.2210   47.0060 C.ar  432  TRP432      0.0015
     41  N        -11.9210  -12.8700   49.6400 N.am  433  VAL433     -0.1980
     42  CA       -12.8850  -11.9010   50.1550 C.3   433  VAL433      0.1595
     43  C        -12.2750  -10.5020   50.2360 C.2   433  VAL433      0.2287
     44  O        -12.9190   -9.5120   49.8890 O.2   433  VAL433     -0.2864
     45  CB       -13.4060  -12.3020   51.5510 C.3   433  VAL433      0.0276
     46  CG1      -14.4870  -11.3400   52.0140 C.3   433  VAL433      0.0022
     47  CG2      -13.9440  -13.7140   51.5260 C.3   433  VAL433      0.0022
     48  N        -13.4610   -7.2410   48.4090 N.3   437  LEU437     -0.1245
     49  CA       -13.8430   -6.0730   49.1930 C.3   437  LEU437      0.1561
     50  C        -13.0370   -4.8460   48.7830 C.2   437  LEU437      0.2260
     51  O        -13.5790   -3.7430   48.7120 O.2   437  LEU437     -0.2867
     52  CB       -13.6760   -6.3480   50.6890 C.3   437  LEU437      0.0270
     53  CG       -14.7350   -7.2720   51.2960 C.3   437  LEU437      0.0019
     54  CD1      -14.4910   -7.4850   52.7810 C.3   437  LEU437      0.0001
     55  CD2      -16.1240   -6.7070   51.0480 C.3   437  LEU437      0.0001
     56  N        -18.4030    2.1420   54.8670 N.3   526  HIS526     -0.1241
     57  CA       -18.6220    0.9330   55.6530 C.3   526  HIS526      0.1621
     58  C        -18.0120   -0.3010   55.0010 C.2   526  HIS526      0.2264
     59  O        -17.5350   -1.2020   55.6920 O.2   526  HIS526     -0.2867
     60  CB       -20.1100    0.7010   55.8850 C.3   526  HIS526      0.0745
     61  CG       -20.6750    1.4830   57.0280 C.ar  526  HIS526      0.0817
     62  ND1      -21.0250    2.8130   56.9220 N.ar  526  HIS526     -0.2268
     63  CD2      -20.9560    1.1220   58.3030 C.ar  526  HIS526      0.1154
     64  CE1      -21.4950    3.2370   58.0810 C.ar  526  HIS526      0.1986
     65  NE2      -21.4630    2.2290   58.9360 N.ar  526  HIS526     -0.2212
     66  N        -14.5660   -0.1760   55.6960 N.3   529  HIS529     -0.1226
     67  CA       -14.3600   -0.7470   57.0230 C.3   529  HIS529      0.1752
     68  C        -14.3650   -2.2650   56.9570 C.2   529  HIS529      0.2595
     69  O        -13.4720   -2.9170   57.4960 O.2   529  HIS529     -0.2718
     70  CB       -15.4320   -0.2590   57.9950 C.3   529  HIS529      0.0759
     71  CG       -15.3720    1.2110   58.2630 C.ar  529  HIS529      0.0818
     72  ND1      -14.1910    1.9200   58.2530 N.ar  529  HIS529     -0.2268
     73  CD2      -16.3470    2.1070   58.5380 C.ar  529  HIS529      0.1154
     74  CE1      -14.4400    3.1900   58.5170 C.ar  529  HIS529      0.1986
     75  NE2      -15.7400    3.3310   58.6950 N.ar  529  HIS529     -0.2212
     76  N        -15.3750   -2.8170   56.2910 N.am  530  ALA530     -0.1980
     77  CA       -15.4730   -4.2570   56.0800 C.3   530  ALA530      0.1597
     78  C        -14.2330   -4.7800   55.3670 C.2   530  ALA530      0.2287
     79  O        -13.7660   -5.8850   55.6410 O.2   530  ALA530     -0.2864
     80  CB       -16.7230   -4.5950   55.2830 C.3   530  ALA530      0.0319
     81  N        -10.8810   -4.3140   57.8160 N.3   533  ILE533     -0.1231
     82  CA       -10.9440   -5.2500   58.9360 C.3   533  ILE533      0.1692
     83  C        -10.5450   -6.6570   58.5030 C.2   533  ILE533      0.2592
     84  O         -9.7240   -7.2970   59.1560 O.2   533  ILE533     -0.2718
     85  CB       -12.3480   -5.2940   59.5700 C.3   533  ILE533      0.0266
     86  CG1      -12.6410   -3.9820   60.3010 C.3   533  ILE533      0.0019
     87  CG2      -12.4630   -6.4550   60.5440 C.3   533  ILE533      0.0020
     88  CD1      -14.0210   -3.9230   60.9240 C.3   533  ILE533      0.0001
     89  N        -11.1170   -7.1300   57.3980 N.am  534  HIS534     -0.1976
     90  CA       -10.8200   -8.4710   56.8960 C.3   534  HIS534      0.1656
     91  C         -9.3340   -8.6700   56.6210 C.2   534  HIS534      0.2291
     92  O         -8.7620   -9.7000   56.9830 O.2   534  HIS534     -0.2864
     93  CB       -11.6160   -8.7620   55.6230 C.3   534  HIS534      0.0771
     94  CG       -13.0600   -9.0620   55.8690 C.ar  534  HIS534      0.0820
     95  ND1      -13.9450   -8.1150   56.3400 N.ar  534  HIS534     -0.2267
     96  CD2      -13.7730  -10.2010   55.7180 C.ar  534  HIS534      0.1154
     97  CE1      -15.1430   -8.6590   56.4650 C.ar  534  HIS534      0.1986
     98  NE2      -15.0660   -9.9230   56.0930 N.ar  534  HIS534     -0.2212
     99  N         -7.5520   -9.1930   59.6680 N.3   537  VAL537     -0.1245
    100  CA        -7.8620  -10.5500   60.1080 C.3   537  VAL537      0.1561
    101  C         -7.0520  -11.5700   59.3140 C.2   537  VAL537      0.2260
    102  O         -6.5430  -12.5430   59.8750 O.2   537  VAL537     -0.2867
    103  CB        -9.3710  -10.8630   59.9680 C.3   537  VAL537      0.0252
    104  CG1       -9.6580  -12.3030   60.3530 C.3   537  VAL537      0.0019
    105  CG2      -10.1920   -9.9090   60.8240 C.3   537  VAL537      0.0019
    106  N         -4.6280  -14.1330   61.2150 N.3   541  LEU541     -0.1245
    107  CA        -5.0780  -15.5220   61.2200 C.3   541  LEU541      0.1561
    108  C         -4.1070  -16.4050   60.4390 C.2   541  LEU541      0.2260
    109  O         -3.8480  -17.5470   60.8240 O.2   541  LEU541     -0.2867
    110  CB        -6.4890  -15.6420   60.6400 C.3   541  LEU541      0.0270
    111  CG        -7.0950  -17.0460   60.7310 C.3   541  LEU541      0.0019
    112  CD1       -7.2780  -17.4520   62.1870 C.3   541  LEU541      0.0001
    113  CD2       -8.4090  -17.1250   59.9760 C.3   541  LEU541      0.0001
@<TRIPOS>BOND
     1    35    33   ar
     2    35    36   ar
     3    33    32   ar
     4    38    36   ar
     5    38    40   ar
     6    36    34   ar
     7    32    34   ar
     8    32    31    1
     9    34    37   ar
    10    40    39   ar
    11    31    28    1
    12    30    29    2
    13    28    29    1
    14    28    27    1
    15    39    37   ar
    16    48    49    1
    17    29    41   am
    18    51    50    2
    19    50    49    1
    20    49    52    1
    21    41    42    1
    22    18    17   ar
    23    18    16   ar
    24    44    43    2
    25    17    15   ar
    26    42    43    1
    27    42    45    1
    28    16    14   ar
    29    52    53    1
    30    15    14   ar
    31    12    11    2
    32    14    13    1
    33    10     9    1
    34    10    11    1
    35    10    13    1
    36    55    53    1
    37    53    54    1
    38    11    19   am
    39    47    45    1
    40    45    46    1
    41    22    21    2
    42    21    20    1
    43    19    20    1
    44    20    23    1
    45     1     2    1
    46     4     3    2
    47    23    24    1
    48     3     2    1
    49    56    57    1
    50    58    57    1
    51    58    59    2
    52     2     5    1
    53    80    77    1
    54    78    79    2
    55    78    77    1
    56    25    24    1
    57    24    26    1
    58    93    94    1
    59    93    90    1
    60    57    60    1
    61    66    67    1
    62    96    94   ar
    63    96    98   ar
    64    94    95   ar
    65    60    61    1
    66    77    76    1
    67    98    97   ar
    68    76    68   am
    69    95    97   ar
    70    91    90    1
    71    91    92    2
    72     5     6    1
    73     5     7    1
    74    90    89    1
    75    62    61   ar
    76    62    64   ar
    77    68    67    1
    78    68    69    2
    79    67    70    1
    80    61    63   ar
    81     6     8    1
    82    89    83   am
    83    81    82    1
    84    70    71    1
    85    64    65   ar
    86    72    71   ar
    87    72    74   ar
    88    71    73   ar
    89    63    65   ar
    90    83    82    1
    91    83    84    2
    92    74    75   ar
    93    73    75   ar
    94    82    85    1
    95   101   102    2
    96   101   100    1
    97    85    86    1
    98    85    87    1
    99    99   100    1
   100   103   100    1
   101   103   104    1
   102   103   105    1
   103   113   111    1
   104    86    88    1
   105   108   109    2
   106   108   107    1
   107   110   111    1
   108   110   107    1
   109   111   112    1
   110   106   107    1
