@<TRIPOS>MOLECULE
tmp/4y28M02.pdb
 131 132 0 0 0
SMALL
GASTEIGER

@<TRIPOS>ATOM
      1  N         37.4330   24.6010  107.6870 N.3   104  TRP104     -0.1241
      2  CA        38.7400   24.1990  108.1670 C.3   104  TRP104      0.1605
      3  C         38.5810   23.2290  109.3060 C.2   104  TRP104      0.2264
      4  O         39.4580   22.4330  109.5580 O.2   104  TRP104     -0.2867
      5  CB        39.5600   25.3950  108.6340 C.3   104  TRP104      0.0550
      6  CG        40.8340   24.9720  109.2730 C.ar  104  TRP104      0.0003
      7  CD1       40.9830   24.4500  110.5170 C.ar  104  TRP104      0.0946
      8  CD2       42.1330   24.9990  108.6910 C.ar  104  TRP104      0.0152
      9  NE1       42.2990   24.1630  110.7560 N.ar  104  TRP104     -0.2442
     10  CE2       43.0280   24.4910  109.6470 C.ar  104  TRP104      0.0810
     11  CE3       42.6300   25.4120  107.4560 C.ar  104  TRP104      0.0012
     12  CZ2       44.3850   24.3840  109.4100 C.ar  104  TRP104      0.0191
     13  CZ3       43.9750   25.3040  107.2230 C.ar  104  TRP104      0.0001
     14  CH2       44.8390   24.7950  108.1940 C.ar  104  TRP104      0.0015
     15  N         38.3520   18.7720  108.0790 N.3   108  ARG108     -0.1245
     16  CA        39.2910   18.5990  109.1510 C.3   108  ARG108      0.1563
     17  C         39.1210   17.2780  109.8970 C.2   108  ARG108      0.2260
     18  O         40.0480   16.5040  110.0810 O.2   108  ARG108     -0.2867
     19  CB        39.5300   19.7900  110.0530 C.3   108  ARG108      0.0307
     20  CG        40.7110   19.6020  110.9960 C.3   108  ARG108      0.0489
     21  CD        42.0540   19.7580  110.2980 C.3   108  ARG108      0.2205
     22  NE        43.1610   19.4750  111.2090 N.pl3 108  ARG108     -0.0865
     23  CZ        44.4260   19.8040  110.9780 C.cat 108  ARG108      0.5346
     24  NH1       44.7510   20.4400  109.8650 N.pl3 108  ARG108      0.1354
     25  NH2       45.3640   19.5030  111.8620 N.pl3 108  ARG108      0.1354
     26  N         45.5100   14.1430  114.2720 N.3   119  VAL119     -0.1245
     27  CA        45.3690   14.7530  115.5780 C.3   119  VAL119      0.1561
     28  C         46.7860   15.1060  115.9590 C.2   119  VAL119      0.2260
     29  O         47.0980   16.1950  116.4120 O.2   119  VAL119     -0.2867
     30  CB        44.9390   13.6780  116.5960 C.3   119  VAL119      0.0252
     31  CG1       43.4590   13.3890  116.5090 C.3   119  VAL119      0.0019
     32  CG2       45.6990   12.3860  116.3820 C.3   119  VAL119      0.0019
     33  N         48.9780   16.5340  115.2760 N.3   121  THR121     -0.1203
     34  CA        49.5510   17.8710  115.1890 C.3   121  THR121      0.1994
     35  C         48.6840   19.1020  115.2120 C.2   121  THR121      0.2618
     36  O         47.5050   19.0910  114.8820 O.2   121  THR121     -0.2717
     37  CB        50.4270   17.9870  113.9300 C.3   121  THR121      0.1784
     38  OG1       49.7120   17.4520  112.8110 O.3   121  THR121     -0.2211
     39  CG2       51.7260   17.2210  114.1090 C.3   121  THR121      0.0376
     40  N         49.3480   20.1700  115.6190 N.am  122  ASP122     -0.1960
     41  CA        48.8250   21.5010  115.6470 C.3   122  ASP122      0.1825
     42  C         49.7590   21.9070  114.5430 C.2   122  ASP122      0.2464
     43  O         50.9730   21.7880  114.7120 O.2   122  ASP122     -0.2730
     44  CB        49.2160   22.1790  116.9550 C.3   122  ASP122      0.1450
     45  CG        48.7650   23.6170  117.0260 C.2   122  ASP122      0.3671
     46  OD1       48.1220   24.0790  116.0750 O.co2 122  ASP122     -0.2456
     47  OD2       49.0570   24.2880  118.0310 O.co2 122  ASP122     -0.2456
     48  N         49.1840   22.3730  113.3690 N.am  123  PRO123     -0.2715
     49  CA        50.1650   22.6930  112.3170 C.3   123  PRO123      0.1536
     50  C         51.1590   23.7870  112.6790 C.2   123  PRO123      0.2598
     51  O         52.3330   23.6330  112.3690 O.2   123  PRO123     -0.2715
     52  CB        49.3040   23.1290  111.1300 C.3   123  PRO123      0.0310
     53  CG        48.0320   23.5950  111.7220 C.3   123  PRO123      0.0237
     54  CD        47.7880   22.5900  112.7860 C.3   123  PRO123      0.0939
     55  N         50.7110   24.8640  113.3110 N.am  124  ILE124     -0.1964
     56  CA        51.6130   25.9530  113.6800 C.3   124  ILE124      0.1727
     57  C         52.6810   25.5760  114.7030 C.2   124  ILE124      0.2616
     58  O         53.8320   25.9680  114.5710 O.2   124  ILE124     -0.2715
     59  CB        50.8320   27.1780  114.1800 C.3   124  ILE124      0.0290
     60  CG1       49.9260   27.6950  113.0700 C.3   124  ILE124      0.0022
     61  CG2       51.7800   28.2800  114.6300 C.3   124  ILE124      0.0023
     62  CD1       50.6740   28.0150  111.7960 C.3   124  ILE124      0.0001
     63  N         52.2930   24.8200  115.7210 N.am  125  PHE125     -0.1974
     64  CA        53.2170   24.3970  116.7630 C.3   125  PHE125      0.1639
     65  C         53.1740   22.8900  116.7610 C.2   125  PHE125      0.2290
     66  O         52.2710   22.2770  117.3310 O.2   125  PHE125     -0.2864
     67  CB        52.7870   24.9780  118.0960 C.3   125  PHE125      0.0560
     68  CG        52.4360   26.4280  118.0130 C.ar  125  PHE125     -0.0200
     69  CD1       51.1730   26.8200  117.6250 C.ar  125  PHE125     -0.0042
     70  CD2       53.3790   27.3970  118.2810 C.ar  125  PHE125     -0.0042
     71  CE1       50.8450   28.1550  117.5300 C.ar  125  PHE125     -0.0003
     72  CE2       53.0600   28.7350  118.1900 C.ar  125  PHE125     -0.0003
     73  CZ        51.7900   29.1150  117.8140 C.ar  125  PHE125     -0.0000
     74  N         52.1580   20.7620  120.2290 N.3   128  ASN128     -0.1225
     75  CA        51.0040   20.8720  121.0830 C.3   128  ASN128      0.1785
     76  C         50.3210   19.5300  120.9900 C.2   128  ASN128      0.2597
     77  O         49.8350   18.9900  121.9710 O.2   128  ASN128     -0.2718
     78  CB        50.1080   21.9950  120.6260 C.3   128  ASN128      0.1169
     79  CG        49.7040   22.8910  121.7600 C.2   128  ASN128      0.2627
     80  OD1       49.4160   22.4360  122.8550 O.2   128  ASN128     -0.2716
     81  ND2       49.6720   24.1740  121.5010 N.am  128  ASN128     -0.0877
     82  N         50.3000   18.9930  119.7850 N.am  129  LYS129     -0.1966
     83  CA        49.7640   17.6750  119.5700 C.3   129  LYS129      0.1728
     84  C         48.3670   17.5870  120.1340 C.2   129  LYS129      0.2616
     85  O         47.5990   18.4830  119.9110 O.2   129  LYS129     -0.2715
     86  CB        50.7020   16.6550  120.2020 C.3   129  LYS129      0.0311
     87  CG        50.4190   15.2250  119.8170 C.3   129  LYS129      0.0038
     88  CD        51.4040   14.7720  118.7530 C.3   129  LYS129      0.0206
     89  CE        51.6480   13.2710  118.8140 C.3   129  LYS129      0.1093
     90  NZ        52.5920   12.7910  117.7650 N.3   129  LYS129     -0.1314
     91  N         48.0870   16.5220  120.8780 N.am  130  LEU130     -0.1977
     92  CA        46.8300   16.1710  121.5190 C.3   130  LEU130      0.1596
     93  C         46.4110   14.8700  120.9240 C.2   130  LEU130      0.2287
     94  O         46.5190   14.6670  119.7380 O.2   130  LEU130     -0.2864
     95  CB        45.7120   17.1850  121.3030 C.3   130  LEU130      0.0297
     96  CG        44.3570   16.7920  120.6780 C.3   130  LEU130      0.0022
     97  CD1       44.5220   16.4020  119.2190 C.3   130  LEU130      0.0001
     98  CD2       43.7300   15.6440  121.4410 C.3   130  LEU130      0.0001
     99  N         43.3090   18.7310  125.1900 N.3   141  LEU141     -0.1231
    100  CA        42.8960   19.8250  126.0280 C.3   141  LEU141      0.1693
    101  C         41.7520   20.6520  125.4600 C.2   141  LEU141      0.2592
    102  O         40.8480   21.0330  126.1900 O.2   141  LEU141     -0.2718
    103  CB        44.1010   20.7110  126.2720 C.3   141  LEU141      0.0284
    104  CG        43.9960   21.7010  127.4110 C.3   141  LEU141      0.0019
    105  CD1       45.3170   22.4290  127.5500 C.3   141  LEU141      0.0001
    106  CD2       42.8780   22.6780  127.1210 C.3   141  LEU141      0.0001
    107  N         41.7940   20.9310  124.1650 N.am  142  TRP142     -0.1962
    108  CA        40.7710   21.7410  123.5300 C.3   142  TRP142      0.1771
    109  C         39.4230   21.1030  123.6070 C.2   142  TRP142      0.2619
    110  O         38.4270   21.7510  123.8700 O.2   142  TRP142     -0.2715
    111  CB        41.0940   21.9060  122.0580 C.3   142  TRP142      0.0590
    112  CG        42.0210   22.9770  121.7800 C.ar  142  TRP142      0.0006
    113  CD1       42.8570   23.5510  122.6500 C.ar  142  TRP142      0.0946
    114  CD2       42.2460   23.6070  120.5260 C.ar  142  TRP142      0.0152
    115  NE1       43.5840   24.5230  122.0340 N.ar  142  TRP142     -0.2442
    116  CE2       43.2300   24.5720  120.7210 C.ar  142  TRP142      0.0810
    117  CE3       41.7060   23.4520  119.2580 C.ar  142  TRP142      0.0012
    118  CZ2       43.6930   25.3780  119.7080 C.ar  142  TRP142      0.0191
    119  CZ3       42.1610   24.2560  118.2530 C.ar  142  TRP142      0.0001
    120  CH2       43.1460   25.2080  118.4820 C.ar  142  TRP142      0.0015
    121  N         39.3930   19.8120  123.3600 N.am  143  PHE143     -0.1974
    122  CA        38.1420   19.1080  123.3750 C.3   143  PHE143      0.1639
    123  C         37.8980   18.2800  124.6090 C.2   143  PHE143      0.2290
    124  O         36.7760   17.8870  124.8860 O.2   143  PHE143     -0.2864
    125  CB        38.0780   18.2510  122.1440 C.3   143  PHE143      0.0560
    126  CG        38.3470   19.0090  120.8970 C.ar  143  PHE143     -0.0200
    127  CD1       37.4240   19.9030  120.4220 C.ar  143  PHE143     -0.0042
    128  CD2       39.5190   18.8420  120.2160 C.ar  143  PHE143     -0.0042
    129  CE1       37.6580   20.6120  119.2750 C.ar  143  PHE143     -0.0003
    130  CE2       39.7620   19.5430  119.0660 C.ar  143  PHE143     -0.0003
    131  CZ        38.8310   20.4310  118.5970 C.ar  143  PHE143     -0.0000
@<TRIPOS>BOND
     1    13    11   ar
     2    13    14   ar
     3    11     8   ar
     4     1     2    1
     5    15    16    1
     6     2     5    1
     7     2     3    1
     8    14    12   ar
     9     5     6    1
    10     8     6   ar
    11     8    10   ar
    12    16    17    1
    13    16    19    1
    14     6     7   ar
    15     3     4    2
    16    12    10   ar
    17    10     9   ar
    18    24    23    1
    19    17    18    2
    20    19    20    1
    21    21    20    1
    22    21    22    1
    23     7     9   ar
    24    23    22    2
    25    23    25    1
    26    52    53    1
    27    52    49    1
    28    53    54    1
    29    62    60    1
    30    49    50    1
    31    49    48    1
    32    51    50    2
    33    50    55   am
    34    54    48    1
    35    38    37    1
    36    60    59    1
    37    55    56    1
    38    48    42   am
    39    56    59    1
    40    56    57    1
    41    37    39    1
    42    37    34    1
    43    59    61    1
    44    26    27    1
    45    42    43    2
    46    42    41    1
    47    58    57    2
    48    57    63   am
    49    36    35    2
    50    34    35    1
    51    34    33    1
    52    35    40   am
    53    27    28    1
    54    27    30    1
    55    40    41    1
    56    41    44    1
    57    63    64    1
    58    28    29    2
    59    46    45   ar
    60    32    30    1
    61    31    30    1
    62    65    64    1
    63    65    66    2
    64    64    67    1
    65    44    45    1
    66    45    47   ar
    67    71    69   ar
    68    71    73   ar
    69    69    68   ar
    70    90    89    1
    71    73    72   ar
    72    68    67    1
    73    68    70   ar
    74    72    70   ar
    75   119   120   ar
    76   119   117   ar
    77   120   118   ar
    78   131   130   ar
    79   131   129   ar
    80    88    89    1
    81    88    87    1
    82   130   128   ar
    83    97    96    1
    84   117   114   ar
    85   129   127   ar
    86    83    82    1
    87    83    84    1
    88    83    86    1
    89   118   116   ar
    90    94    93    2
    91    82    76   am
    92    87    86    1
    93    85    84    2
    94    84    91   am
    95   128   126   ar
    96    74    75    1
    97   127   126   ar
    98   114   116   ar
    99   114   112   ar
   100    78    75    1
   101    78    79    1
   102    96    95    1
   103    96    98    1
   104   116   115   ar
   105    91    92    1
   106   126   125    1
   107    93    92    1
   108    76    75    1
   109    76    77    2
   110    95    92    1
   111    81    79   am
   112    79    80    2
   113   112   111    1
   114   112   113   ar
   115   115   113   ar
   116   111   108    1
   117   125   122    1
   118   121   122    1
   119   121   109   am
   120   122   123    1
   121   108   109    1
   122   108   107    1
   123   109   110    2
   124   107   101   am
   125   123   124    2
   126    99   100    1
   127   101   100    1
   128   101   102    2
   129   100   103    1
   130   103   104    1
   131   106   104    1
   132   104   105    1
