@<TRIPOS>MOLECULE
tmp/4y28M08.pdb
 93 95 0 0 0
SMALL
GASTEIGER

@<TRIPOS>ATOM
      1  N         18.8700   -4.7330  126.4430 N.3     7  PRO7       -0.2102
      2  CA        17.4580   -4.4540  126.1440 C.3     7  PRO7        0.1504
      3  C         17.3350   -3.9980  124.7000 C.2     7  PRO7        0.2576
      4  O         18.2670   -3.4000  124.1800 O.2     7  PRO7       -0.2718
      5  CB        17.1080   -3.3080  127.0900 C.3     7  PRO7        0.0282
      6  CG        18.3740   -2.5690  127.2560 C.3     7  PRO7        0.0208
      7  CD        19.3460   -3.6800  127.4470 C.3     7  PRO7        0.0893
      8  N         16.2070   -4.2830  124.0650 N.am    8  LEU8       -0.1966
      9  CA        15.9940   -3.9220  122.6700 C.3     8  LEU8        0.1728
     10  C         14.8020   -3.0010  122.5150 C.2     8  LEU8        0.2616
     11  O         13.9240   -2.9670  123.3720 O.2     8  LEU8       -0.2715
     12  CB        15.7510   -5.1780  121.8330 C.3     8  LEU8        0.0311
     13  CG        16.8210   -6.2660  121.8100 C.3     8  LEU8        0.0022
     14  CD1       16.2230   -7.5910  121.3700 C.3     8  LEU8        0.0001
     15  CD2       17.9650   -5.8630  120.8990 C.3     8  LEU8        0.0001
     16  N         14.7680   -2.2530  121.4190 N.am    9  TRP9       -0.1960
     17  CA        13.6580   -1.3490  121.1760 C.3     9  TRP9        0.1771
     18  C         12.4110   -2.2080  121.0900 C.2     9  TRP9        0.2620
     19  O         11.3640   -1.8640  121.6220 O.2     9  TRP9       -0.2715
     20  CB        13.8680   -0.5670  119.8810 C.3     9  TRP9        0.0590
     21  CG        14.0010   -1.4250  118.6740 C.ar    9  TRP9        0.0006
     22  CD1       15.0730   -2.1800  118.3260 C.ar    9  TRP9        0.0946
     23  CD2       13.0290   -1.6080  117.6440 C.ar    9  TRP9        0.0152
     24  NE1       14.8290   -2.8320  117.1480 N.ar    9  TRP9       -0.2442
     25  CE2       13.5780   -2.4960  116.7080 C.ar    9  TRP9        0.0810
     26  CE3       11.7440   -1.1090  117.4250 C.ar    9  TRP9        0.0012
     27  CZ2       12.8900   -2.8950  115.5700 C.ar    9  TRP9        0.0191
     28  CZ3       11.0650   -1.5070  116.2970 C.ar    9  TRP9        0.0001
     29  CH2       11.6360   -2.3900  115.3840 C.ar    9  TRP9        0.0015
     30  N         12.5390   -3.3480  120.4290 N.am   10  PHE10      -0.1960
     31  CA        11.4400   -4.2770  120.3060 C.3    10  PHE10       0.1756
     32  C         11.7890   -5.3980  121.2630 C.2    10  PHE10       0.2461
     33  O         12.7210   -6.1580  121.0160 O.2    10  PHE10      -0.2730
     34  CB        11.3980   -4.8090  118.8860 C.3    10  PHE10       0.0574
     35  CG        10.0240   -5.1140  118.3950 C.ar   10  PHE10      -0.0200
     36  CD1        9.0630   -4.1300  118.3550 C.ar   10  PHE10      -0.0042
     37  CD2        9.7030   -6.3770  117.9530 C.ar   10  PHE10      -0.0042
     38  CE1        7.7950   -4.4030  117.8960 C.ar   10  PHE10      -0.0003
     39  CE2        8.4370   -6.6590  117.4900 C.ar   10  PHE10      -0.0003
     40  CZ         7.4810   -5.6700  117.4610 C.ar   10  PHE10      -0.0000
     41  N         10.9940   -5.4950  122.3960 N.am   11  PRO11      -0.2716
     42  CA        11.3840   -6.5760  123.3150 C.3    11  PRO11       0.1536
     43  C         11.3070   -7.9740  122.7370 C.2    11  PRO11       0.2599
     44  O         12.2020   -8.7700  122.9840 O.2    11  PRO11      -0.2715
     45  CB        10.3800   -6.4500  124.4590 C.3    11  PRO11       0.0310
     46  CG        10.0860   -5.0060  124.5200 C.3    11  PRO11       0.0237
     47  CD         9.8850   -4.6940  123.0800 C.3    11  PRO11       0.0939
     48  N         10.2680   -8.2800  121.9840 N.am   12  GLY12      -0.1955
     49  CA        10.1530   -9.6140  121.4350 C.3    12  GLY12       0.1869
     50  C         11.1580   -9.9690  120.3560 C.2    12  GLY12       0.2309
     51  O         11.7670  -11.0300  120.3810 O.2    12  GLY12      -0.2863
     52  N         20.4870   -0.3260  120.5620 N.3    27  PHE27      -0.1241
     53  CA        19.2880   -0.9970  121.0060 C.3    27  PHE27       0.1605
     54  C         18.7900   -1.9410  119.9510 C.2    27  PHE27       0.2264
     55  O         17.6630   -2.4040  120.0260 O.2    27  PHE27      -0.2867
     56  CB        18.2260   -0.0020  121.3590 C.3    27  PHE27       0.0534
     57  CG        18.5830    0.8200  122.5300 C.ar   27  PHE27      -0.0203
     58  CD1       19.5030    1.8200  122.4120 C.ar   27  PHE27      -0.0042
     59  CD2       18.0350    0.5660  123.7530 C.ar   27  PHE27      -0.0042
     60  CE1       19.8550    2.5770  123.4980 C.ar   27  PHE27      -0.0003
     61  CE2       18.3840    1.3150  124.8460 C.ar   27  PHE27      -0.0003
     62  CZ        19.2950    2.3260  124.7200 C.ar   27  PHE27      -0.0000
     63  N         18.4270   -1.3640  116.4850 N.3    29  PHE29      -0.1241
     64  CA        17.4000   -0.7270  115.7100 C.3    29  PHE29       0.1605
     65  C         17.8480   -0.2590  114.3460 C.2    29  PHE29       0.2264
     66  O         18.4030    0.8060  114.2120 O.2    29  PHE29      -0.2867
     67  CB        16.8760    0.4450  116.4940 C.3    29  PHE29       0.0534
     68  CG        15.8640    1.2210  115.7660 C.ar   29  PHE29      -0.0203
     69  CD1       14.6210    0.6960  115.5460 C.ar   29  PHE29      -0.0042
     70  CD2       16.1610    2.4620  115.2860 C.ar   29  PHE29      -0.0042
     71  CE1       13.6790    1.4070  114.8590 C.ar   29  PHE29      -0.0003
     72  CE2       15.2250    3.1840  114.6010 C.ar   29  PHE29      -0.0003
     73  CZ        13.9810    2.6560  114.3890 C.ar   29  PHE29      -0.0000
     74  N         22.1980    9.2350  123.8240 N.3   165  LYS165     -0.1245
     75  CA        20.8060    9.2310  124.1890 C.3   165  LYS165      0.1561
     76  C         20.2520   10.6210  124.3100 C.2   165  LYS165      0.2260
     77  O         19.1530   10.8790  123.8570 O.2   165  LYS165     -0.2867
     78  CB        20.5900    8.4510  125.4600 C.3   165  LYS165      0.0271
     79  CG        20.1710    7.0170  125.2380 C.3   165  LYS165      0.0035
     80  CD        20.0310    6.3380  126.5800 C.3   165  LYS165      0.0206
     81  CE        19.1890    5.0890  126.5150 C.3   165  LYS165      0.1093
     82  NZ        18.9350    4.5680  127.8770 N.3   165  LYS165     -0.1314
     83  N         19.7350   11.9130  120.7280 N.3   168  ARG168     -0.1245
     84  CA        18.5920   11.4370  120.0080 C.3   168  ARG168      0.1563
     85  C         17.4120   12.2020  120.5210 C.2   168  ARG168      0.2260
     86  O         16.5740   12.6430  119.7540 O.2   168  ARG168     -0.2867
     87  CB        18.3970    9.9570  120.2550 C.3   168  ARG168      0.0307
     88  CG        19.4710    9.0880  119.6270 C.3   168  ARG168      0.0489
     89  CD        19.2240    7.6300  119.9460 C.3   168  ARG168      0.2205
     90  NE        20.2780    6.7420  119.4880 N.pl3 168  ARG168     -0.0865
     91  CZ        20.4390    5.5240  119.9660 C.cat 168  ARG168      0.5346
     92  NH1       19.6210    5.0890  120.9050 N.pl3 168  ARG168      0.1354
     93  NH2       21.4060    4.7530  119.5140 N.pl3 168  ARG168      0.1354
@<TRIPOS>BOND
     1    66    65    2
     2    65    64    1
     3    73    72   ar
     4    73    71   ar
     5    72    70   ar
     6    71    69   ar
     7    70    68   ar
     8    29    27   ar
     9    29    28   ar
    10    69    68   ar
    11    27    25   ar
    12    64    63    1
    13    64    67    1
    14    68    67    1
    15    28    26   ar
    16    25    24   ar
    17    25    23   ar
    18    24    22   ar
    19    26    23   ar
    20    40    39   ar
    21    40    38   ar
    22    39    37   ar
    23    23    21   ar
    24    38    36   ar
    25    37    35   ar
    26    22    21   ar
    27    36    35   ar
    28    35    34    1
    29    21    20    1
    30    34    31    1
    31    90    89    1
    32    90    91    2
    33    93    91    1
    34    88    89    1
    35    88    87    1
    36    86    85    2
    37    20    17    1
    38    54    55    2
    39    54    53    1
    40    91    92    1
    41    84    87    1
    42    84    85    1
    43    84    83    1
    44    31    30    1
    45    31    32    1
    46    50    51    2
    47    50    49    1
    48    30    18   am
    49    52    53    1
    50    15    13    1
    51    53    56    1
    52    33    32    2
    53    18    17    1
    54    18    19    2
    55    17    16    1
    56    32    41   am
    57    56    57    1
    58    14    13    1
    59    16    10   am
    60    49    48    1
    61    13    12    1
    62    12     9    1
    63    48    43   am
    64    41    47    1
    65    41    42    1
    66    58    57   ar
    67    58    60   ar
    68    10     9    1
    69    10    11    2
    70    57    59   ar
    71     9     8    1
    72    43    44    2
    73    43    42    1
    74    47    46    1
    75    42    45    1
    76    60    62   ar
    77    59    61   ar
    78    74    75    1
    79    77    76    2
    80     8     3   am
    81     4     3    2
    82    75    76    1
    83    75    78    1
    84    45    46    1
    85     3     2    1
    86    62    61   ar
    87    79    78    1
    88    79    80    1
    89     2     1    1
    90     2     5    1
    91     1     7    1
    92    81    80    1
    93    81    82    1
    94     5     6    1
    95     6     7    1
