@<TRIPOS>MOLECULE
tmp/4y28N17.pdb
 96 94 0 0 0
SMALL
GASTEIGER

@<TRIPOS>ATOM
      1  N         58.3760   19.6930   81.8950 N.3    39  TRP39      -0.1227
      2  CA        57.9240   20.8780   81.2050 C.3    39  TRP39       0.1737
      3  C         57.2280   21.8000   82.1430 C.2    39  TRP39       0.2595
      4  O         57.4630   22.9840   82.1420 O.2    39  TRP39      -0.2718
      5  CB        56.9630   20.4890   80.1060 C.3    39  TRP39       0.0564
      6  CG        56.4990   21.6120   79.2820 C.ar   39  TRP39       0.0003
      7  CD1       55.2790   22.1920   79.3100 C.ar   39  TRP39       0.0946
      8  CD2       57.2380   22.2790   78.2780 C.ar   39  TRP39       0.0152
      9  NE1       55.2100   23.1870   78.3840 N.ar   39  TRP39      -0.2442
     10  CE2       56.4110   23.2600   77.7370 C.ar   39  TRP39       0.0810
     11  CE3       58.5270   22.1400   77.7820 C.ar   39  TRP39       0.0012
     12  CZ2       56.8270   24.0940   76.7350 C.ar   39  TRP39       0.0191
     13  CZ3       58.9340   22.9630   76.7950 C.ar   39  TRP39       0.0001
     14  CH2       58.0970   23.9310   76.2800 C.ar   39  TRP39       0.0015
     15  N         56.3700   21.2350   82.9630 N.am   40  PHE40      -0.1976
     16  CA        55.6050   22.0010   83.9110 C.3    40  PHE40       0.1639
     17  C         56.4640   22.6580   84.9610 C.2    40  PHE40       0.2290
     18  O         56.1490   23.7110   85.4150 O.2    40  PHE40      -0.2864
     19  CB        54.4690   21.1820   84.4930 C.3    40  PHE40       0.0560
     20  CG        53.3960   20.8570   83.4990 C.ar   40  PHE40      -0.0200
     21  CD1       53.2510   21.5990   82.3560 C.ar   40  PHE40      -0.0042
     22  CD2       52.5220   19.8310   83.7300 C.ar   40  PHE40      -0.0042
     23  CE1       52.2730   21.3110   81.4490 C.ar   40  PHE40      -0.0003
     24  CE2       51.5340   19.5410   82.8300 C.ar   40  PHE40      -0.0003
     25  CZ        51.4100   20.2820   81.6880 C.ar   40  PHE40      -0.0000
     26  N         57.7290   25.5870   83.3770 N.3    43  ALA43      -0.1245
     27  CA        56.6640   26.5330   83.2000 C.3    43  ALA43       0.1562
     28  C         56.3230   27.2260   84.4800 C.2    43  ALA43       0.2260
     29  O         56.0980   28.4090   84.4820 O.2    43  ALA43      -0.2867
     30  CB        55.4410   25.8380   82.6550 C.3    43  ALA43       0.0290
     31  N         56.2760   31.3050   84.8180 N.3    47  ASN47      -0.1240
     32  CA        54.9990   31.9370   85.0830 C.3    47  ASN47       0.1653
     33  C         55.1540   32.5840   86.4370 C.2    47  ASN47       0.2266
     34  O         54.6920   33.6850   86.6590 O.2    47  ASN47      -0.2867
     35  CB        53.8410   30.9400   85.0550 C.3    47  ASN47       0.1155
     36  CG        53.2370   30.7820   83.6740 C.2    47  ASN47       0.2627
     37  OD1       52.3560   31.5290   83.2660 O.2    47  ASN47      -0.2716
     38  ND2       53.7120   29.8000   82.9500 N.am   47  ASN47      -0.0877
     39  N         57.6390   35.9110   86.1420 N.3    50  TRP50      -0.1241
     40  CA        57.0540   37.1130   85.5820 C.3    50  TRP50       0.1605
     41  C         56.0520   37.6850   86.5550 C.2    50  TRP50       0.2264
     42  O         55.9610   38.8840   86.7260 O.2    50  TRP50      -0.2867
     43  CB        56.4270   36.8640   84.2290 C.3    50  TRP50       0.0550
     44  CG        57.4210   36.8080   83.1350 C.ar   50  TRP50       0.0003
     45  CD1       57.6550   35.7680   82.3090 C.ar   50  TRP50       0.0946
     46  CD2       58.3310   37.8340   82.7480 C.ar   50  TRP50       0.0152
     47  NE1       58.6470   36.0740   81.4270 N.ar   50  TRP50      -0.2442
     48  CE2       59.0820   37.3420   81.6820 C.ar   50  TRP50       0.0810
     49  CE3       58.5870   39.1160   83.2040 C.ar   50  TRP50       0.0012
     50  CZ2       60.0630   38.0840   81.0680 C.ar   50  TRP50       0.0191
     51  CZ3       59.5550   39.8440   82.5890 C.ar   50  TRP50       0.0001
     52  CH2       60.2810   39.3330   81.5350 C.ar   50  TRP50       0.0015
     53  N         64.0990   33.7230   74.0440 N.3   102  GLU102     -0.1245
     54  CA        63.3680   32.5530   74.4660 C.3   102  GLU102      0.1567
     55  C         63.3840   31.2690   73.7150 C.2   102  GLU102      0.2260
     56  O         62.8210   30.4380   73.9280 O.2   102  GLU102     -0.2867
     57  CB        61.9210   32.9580   74.7760 C.3   102  GLU102      0.0388
     58  CG        61.3840   32.3490   76.0570 C.3   102  GLU102      0.1160
     59  CD        60.0840   32.9720   76.5050 C.2   102  GLU102      0.3649
     60  OE1       59.6280   33.9220   75.8570 O.co2 102  GLU102     -0.2457
     61  OE2       59.5120   32.5080   77.5070 O.co2 102  GLU102     -0.2457
     62  N         51.4080   34.6850   91.8270 N.3   161  MET161     -0.1245
     63  CA        50.3480   34.3800   90.9020 C.3   161  MET161      0.1570
     64  C         48.9200   34.4680   91.4570 C.2   161  MET161      0.2261
     65  O         47.9950   34.6400   90.6990 O.2   161  MET161     -0.2867
     66  CB        50.6310   33.0110   90.2870 C.3   161  MET161      0.0387
     67  CG        52.1060   32.8220   89.9270 C.3   161  MET161      0.0595
     68  SD        52.5680   31.5850   88.6940 S.3   161  MET161     -0.1393
     69  CE        52.8600   30.1650   89.7110 C.3   161  MET161      0.0692
     70  N         48.5160   38.0390   91.4320 N.3   164  PHE164     -0.1227
     71  CA        48.2410   38.5380   90.1120 C.3   164  PHE164      0.1736
     72  C         46.8320   38.2010   89.7460 C.2   164  PHE164      0.2595
     73  O         46.1260   39.0070   89.1790 O.2   164  PHE164     -0.2718
     74  CB        49.1780   37.9840   89.0680 C.3   164  PHE164      0.0547
     75  CG        48.8490   38.4570   87.6960 C.ar  164  PHE164     -0.0202
     76  CD1       49.2310   39.7010   87.2820 C.ar  164  PHE164     -0.0042
     77  CD2       48.1180   37.6810   86.8480 C.ar  164  PHE164     -0.0042
     78  CE1       48.9250   40.1560   86.0280 C.ar  164  PHE164     -0.0003
     79  CE2       47.7990   38.1300   85.5940 C.ar  164  PHE164     -0.0003
     80  CZ        48.1990   39.3710   85.1850 C.ar  164  PHE164     -0.0000
     81  N         46.4150   37.0000   90.0850 N.am  165  LEU165     -0.1980
     82  CA        45.0750   36.5930   89.7720 C.3   165  LEU165      0.1596
     83  C         44.1790   37.5190   90.5290 C.2   165  LEU165      0.2287
     84  O         43.1540   37.9300   90.0450 O.2   165  LEU165     -0.2864
     85  CB        44.8340   35.1620   90.1990 C.3   165  LEU165      0.0297
     86  CG        43.4400   34.6470   89.8940 C.3   165  LEU165      0.0022
     87  CD1       43.1760   34.7110   88.4120 C.3   165  LEU165      0.0001
     88  CD2       43.3040   33.2280   90.3860 C.3   165  LEU165      0.0001
     89  N         43.9230   41.3340   88.9170 N.3   168  ILE168     -0.1245
     90  CA        43.1030   41.4600   87.7430 C.3   168  ILE168      0.1561
     91  C         41.6100   41.2900   87.9810 C.2   168  ILE168      0.2260
     92  O         40.7990   42.0640   87.4940 O.2   168  ILE168     -0.2867
     93  CB        43.6070   40.4720   86.7070 C.3   168  ILE168      0.0252
     94  CG1       43.1230   40.8550   85.3340 C.3   168  ILE168      0.0019
     95  CG2       43.1690   39.0770   87.0720 C.3   168  ILE168      0.0019
     96  CD1       43.7420   40.0030   84.2560 C.3   168  ILE168      0.0001
@<TRIPOS>BOND
     1    55    56    2
     2    55    54    1
     3    53    54    1
     4    54    57    1
     5    57    58    1
     6    60    59   ar
     7    58    59    1
     8    14    12   ar
     9    14    13   ar
    10    59    61   ar
    11    12    10   ar
    12    13    11   ar
    13    10     8   ar
    14    10     9   ar
    15    11     8   ar
    16     8     6   ar
    17     9     7   ar
    18     6     7   ar
    19     6     5    1
    20     5     2    1
    21    50    52   ar
    22    50    48   ar
    23     2     1    1
    24     2     3    1
    25    47    48   ar
    26    47    45   ar
    27    23    25   ar
    28    23    21   ar
    29    52    51   ar
    30    48    46   ar
    31    25    24   ar
    32     4     3    2
    33     3    15   am
    34    45    44   ar
    35    21    20   ar
    36    51    49   ar
    37    30    27    1
    38    46    44   ar
    39    46    49   ar
    40    24    22   ar
    41    38    36   am
    42    15    16    1
    43    44    43    1
    44    27    26    1
    45    27    28    1
    46    37    36    2
    47    20    22   ar
    48    20    19    1
    49    36    35    1
    50    16    19    1
    51    16    17    1
    52    43    40    1
    53    96    94    1
    54    28    29    2
    55    31    32    1
    56    17    18    2
    57    35    32    1
    58    32    33    1
    59    80    79   ar
    60    80    78   ar
    61    94    93    1
    62    40    39    1
    63    40    41    1
    64    79    77   ar
    65    78    76   ar
    66    33    34    2
    67    41    42    2
    68    93    95    1
    69    93    90    1
    70    77    75   ar
    71    76    75   ar
    72    92    91    2
    73    75    74    1
    74    90    91    1
    75    90    89    1
    76    87    86    1
    77    68    69    1
    78    68    67    1
    79    74    71    1
    80    73    72    2
    81    72    81   am
    82    72    71    1
    83    82    81    1
    84    82    85    1
    85    82    83    1
    86    86    85    1
    87    86    88    1
    88    67    66    1
    89    84    83    2
    90    71    70    1
    91    66    63    1
    92    65    64    2
    93    63    64    1
    94    63    62    1
