@<TRIPOS>MOLECULE
tmp/4y28P12.pdb
 85 81 0 0 0
SMALL
GASTEIGER

@<TRIPOS>ATOM
      1  N         -5.8260    9.1380  120.5910 N.3   102  VAL102     -0.1245
      2  CA        -4.3910    9.0200  120.4910 C.3   102  VAL102      0.1561
      3  C         -3.8750    8.3850  121.7540 C.2   102  VAL102      0.2260
      4  O         -3.0820    7.4660  121.7090 O.2   102  VAL102     -0.2867
      5  CB        -3.7530   10.3930  120.4120 C.3   102  VAL102      0.0252
      6  CG1       -2.2460   10.2680  120.3580 C.3   102  VAL102      0.0019
      7  CG2       -4.2890   11.1330  119.2090 C.3   102  VAL102      0.0019
      8  N         -5.0040    4.9190  121.7820 N.3   105  MET105     -0.1230
      9  CA        -4.2160    4.0560  120.9160 C.3   105  MET105      0.1702
     10  C         -2.8780    3.8870  121.5670 C.2   105  MET105      0.2592
     11  O         -2.2450    2.8600  121.4020 O.2   105  MET105     -0.2718
     12  CB        -3.9990    4.6480  119.5260 C.3   105  MET105      0.0401
     13  CG        -5.1300    4.4450  118.5380 C.3   105  MET105      0.0596
     14  SD        -5.6690    2.7470  118.2890 S.3   105  MET105     -0.1393
     15  CE        -6.4630    2.4660  119.8570 C.3   105  MET105      0.0692
     16  N         -2.4350    4.8970  122.3010 N.am  106  ALA106     -0.1980
     17  CA        -1.1450    4.7810  122.9350 C.3   106  ALA106      0.1597
     18  C         -1.1160    3.7290  124.0080 C.2   106  ALA106      0.2287
     19  O         -0.1850    2.9490  124.0810 O.2   106  ALA106     -0.2864
     20  CB        -0.7450    6.1140  123.5200 C.3   106  ALA106      0.0319
     21  N         -1.5000    0.2730  122.4850 N.3   109  GLY109     -0.1210
     22  CA        -0.3020   -0.0260  121.7450 C.3   109  GLY109      0.1956
     23  C          0.6470   -0.8450  122.5640 C.2   109  GLY109      0.2611
     24  O          1.3290   -1.7040  122.0350 O.2   109  GLY109     -0.2717
     25  N          0.7050   -0.5780  123.8560 N.am  110  PHE110     -0.1976
     26  CA         1.5920   -1.3470  124.6950 C.3   110  PHE110      0.1639
     27  C          1.0760   -2.7220  125.0270 C.2   110  PHE110      0.2290
     28  O          1.8010   -3.6950  124.9110 O.2   110  PHE110     -0.2864
     29  CB         1.8780   -0.5990  125.9740 C.3   110  PHE110      0.0560
     30  CG         3.0310    0.3240  125.8720 C.ar  110  PHE110     -0.0200
     31  CD1        4.2940   -0.1190  126.1300 C.ar  110  PHE110     -0.0042
     32  CD2        2.8480    1.6230  125.5100 C.ar  110  PHE110     -0.0042
     33  CE1        5.3640    0.7220  126.0370 C.ar  110  PHE110     -0.0003
     34  CE2        3.9110    2.4770  125.4140 C.ar  110  PHE110     -0.0003
     35  CZ         5.1730    2.0260  125.6790 C.ar  110  PHE110     -0.0000
     36  N          0.5850   -4.8630  121.6400 N.3   113  HIS113     -0.1226
     37  CA         1.8270   -5.2500  121.0110 C.3   113  HIS113      0.1752
     38  C          2.4690   -6.3910  121.7460 C.2   113  HIS113      0.2595
     39  O          2.9210   -7.3490  121.1420 O.2   113  HIS113     -0.2718
     40  CB         2.7860   -4.0890  120.9440 C.3   113  HIS113      0.0759
     41  CG         2.5290   -3.1600  119.8050 C.ar  113  HIS113      0.0818
     42  ND1        2.2030   -1.8360  119.9850 N.ar  113  HIS113     -0.2268
     43  CD2        2.5580   -3.3600  118.4700 C.ar  113  HIS113      0.1154
     44  CE1        2.0430   -1.2620  118.8090 C.ar  113  HIS113      0.1986
     45  NE2        2.2520   -2.1650  117.8710 N.ar  113  HIS113     -0.2212
     46  N          2.5070   -6.2980  123.0610 N.am  114  ARG114     -0.1980
     47  CA         3.1360   -7.3430  123.8300 C.3   114  ARG114      0.1597
     48  C          2.4320   -8.6530  123.6260 C.2   114  ARG114      0.2287
     49  O          3.0710   -9.6740  123.4460 O.2   114  ARG114     -0.2864
     50  CB         3.1390   -6.9790  125.3000 C.3   114  ARG114      0.0334
     51  CG         3.8980   -5.7080  125.6040 C.3   114  ARG114      0.0492
     52  CD         4.1820   -5.6310  127.0870 C.3   114  ARG114      0.2205
     53  NE         5.4440   -6.2570  127.4270 N.pl3 114  ARG114     -0.0865
     54  CZ         6.3530   -5.6920  128.2040 C.cat 114  ARG114      0.5346
     55  NH1        6.1250   -4.5040  128.7460 N.pl3 114  ARG114      0.1354
     56  NH2        7.4810   -6.3260  128.4590 N.pl3 114  ARG114      0.1354
     57  N          3.7390  -10.4860  120.9000 N.3   117  GLN117     -0.1245
     58  CA         5.0210  -11.0900  121.1420 C.3   117  GLN117      0.1566
     59  C          4.8210  -12.4440  121.7690 C.2   117  GLN117      0.2260
     60  O          5.6020  -13.3570  121.5410 O.2   117  GLN117     -0.2867
     61  CB         5.8630  -10.2170  122.0490 C.3   117  GLN117      0.0367
     62  CG         6.3630   -8.9530  121.3930 C.3   117  GLN117      0.0905
     63  CD         6.8380   -9.1870  119.9900 C.2   117  GLN117      0.2608
     64  OE1        6.0670   -9.5430  119.1240 O.2   117  GLN117     -0.2717
     65  NE2        8.1050   -8.9750  119.7580 N.am  117  GLN117     -0.0878
     66  N          8.0060  -12.0450  126.1180 N.3   125  MET125     -0.1245
     67  CA         7.4750  -10.8860  126.7900 C.3   125  MET125      0.1570
     68  C          7.8510  -10.9060  128.2270 C.2   125  MET125      0.2261
     69  O          8.2390   -9.8920  128.7830 O.2   125  MET125     -0.2867
     70  CB         5.9780  -10.7930  126.6100 C.3   125  MET125      0.0387
     71  CG         5.6350  -10.1480  125.2850 C.3   125  MET125      0.0595
     72  SD         6.7010   -8.7370  124.9430 S.3   125  MET125     -0.1393
     73  CE         8.1900   -9.5240  124.3520 C.3   125  MET125      0.0692
     74  N         13.7570   -6.4570  130.1100 N.3   129  TYR129     -0.1241
     75  CA        13.2910   -5.0860  129.9550 C.3   129  TYR129      0.1605
     76  C         12.7940   -4.3220  131.1700 C.2   129  TYR129      0.2264
     77  O         12.2400   -3.2400  131.0240 O.2   129  TYR129     -0.2867
     78  CB        12.3370   -4.9890  128.7760 C.3   129  TYR129      0.0534
     79  CG        12.9700   -5.5520  127.5310 C.ar  129  TYR129     -0.0201
     80  CD1       13.1240   -6.9190  127.3750 C.ar  129  TYR129     -0.0009
     81  CD2       13.4410   -4.7220  126.5290 C.ar  129  TYR129     -0.0009
     82  CE1       13.7080   -7.4480  126.2430 C.ar  129  TYR129      0.0417
     83  CE2       14.0250   -5.2410  125.3930 C.ar  129  TYR129      0.0417
     84  CZ        14.1560   -6.6060  125.2560 C.ar  129  TYR129      0.1957
     85  OH        14.7370   -7.1380  124.1310 O.3   129  TYR129     -0.2866
@<TRIPOS>BOND
     1    45    43   ar
     2    45    44   ar
     3    14    13    1
     4    14    15    1
     5    43    41   ar
     6    13    12    1
     7    44    42   ar
     8    64    63    2
     9     7     5    1
    10    12     9    1
    11    65    63   am
    12    41    42   ar
    13    41    40    1
    14    63    62    1
    15     6     5    1
    16     5     2    1
    17     2     1    1
    18     2     3    1
    19    57    58    1
    20     9    10    1
    21     9     8    1
    22    40    37    1
    23    37    36    1
    24    37    38    1
    25    39    38    2
    26    58    59    1
    27    58    61    1
    28    62    61    1
    29    11    10    2
    30    60    59    2
    31    10    16   am
    32     4     3    2
    33    22    21    1
    34    22    23    1
    35    38    46   am
    36    24    23    2
    37    16    17    1
    38    23    25   am
    39    17    20    1
    40    17    18    1
    41    46    47    1
    42    49    48    2
    43    48    47    1
    44    47    50    1
    45    25    26    1
    46    18    19    2
    47    85    84    1
    48    73    72    1
    49    26    27    1
    50    26    29    1
    51    28    27    2
    52    72    71    1
    53    84    83   ar
    54    84    82   ar
    55    71    70    1
    56    50    51    1
    57    83    81   ar
    58    34    32   ar
    59    34    35   ar
    60    32    30   ar
    61    51    52    1
    62    35    33   ar
    63    30    29    1
    64    30    31   ar
    65    33    31   ar
    66    66    67    1
    67    82    80   ar
    68    81    79   ar
    69    70    67    1
    70    67    68    1
    71    52    53    1
    72    80    79   ar
    73    53    54    2
    74    79    78    1
    75    54    56    1
    76    54    55    1
    77    68    69    2
    78    78    75    1
    79    75    74    1
    80    75    76    1
    81    77    76    2
