@<TRIPOS>MOLECULE
tmp/4y28O05.pdb
 127 124 0 0 0
SMALL
GASTEIGER

@<TRIPOS>ATOM
      1  N         68.6940   19.5810   42.4270 N.3    36  ARG36      -0.1245
      2  CA        67.9240   20.5050   41.6120 C.3    36  ARG36       0.1563
      3  C         67.7820   21.7780   42.3890 C.2    36  ARG36       0.2260
      4  O         67.9030   22.8740   41.8660 O.2    36  ARG36      -0.2867
      5  CB        66.5460   19.9500   41.3260 C.3    36  ARG36       0.0307
      6  CG        65.6860   20.8720   40.4930 C.3    36  ARG36       0.0489
      7  CD        64.3060   20.2930   40.2830 C.3    36  ARG36       0.2205
      8  NE        63.6850   20.7970   39.0690 N.pl3  36  ARG36      -0.0865
      9  CZ        62.7090   21.6870   39.0530 C.cat  36  ARG36       0.5346
     10  NH1       62.2530   22.1680   40.1920 N.pl3  36  ARG36       0.1354
     11  NH2       62.1940   22.0940   37.9080 N.pl3  36  ARG36       0.1354
     12  N         70.8090   23.9960   42.4760 N.3    39  GLU39      -0.1231
     13  CA        70.8860   24.7300   41.2410 C.3    39  GLU39       0.1699
     14  C         69.9370   25.9060   41.2800 C.2    39  GLU39       0.2592
     15  O         70.3080   27.0120   40.9410 O.2    39  GLU39      -0.2718
     16  CB        70.5030   23.8140   40.0850 C.3    39  GLU39       0.0402
     17  CG        70.2420   24.5130   38.7680 C.3    39  GLU39       0.1161
     18  CD        69.7290   23.5710   37.6980 C.2    39  GLU39       0.3649
     19  OE1       69.4580   22.4090   38.0110 O.co2  39  GLU39      -0.2457
     20  OE2       69.5810   23.9840   36.5380 O.co2  39  GLU39      -0.2457
     21  N         68.7110   25.6830   41.7210 N.am   40  SER40      -0.1952
     22  CA        67.7480   26.7700   41.7490 C.3    40  SER40       0.1924
     23  C         68.0490   27.8930   42.6930 C.2    40  SER40       0.2314
     24  O         67.7870   29.0430   42.3870 O.2    40  SER40      -0.2863
     25  CB        66.3290   26.3040   41.9550 C.3    40  SER40       0.2116
     26  OG        65.4730   27.3700   41.6000 O.3    40  SER40      -0.2180
     27  N         70.2630   30.1760   41.0020 N.3    43  ILE43      -0.1231
     28  CA        69.6290   30.9340   39.9560 C.3    43  ILE43       0.1692
     29  C         68.8490   32.0610   40.5460 C.2    43  ILE43       0.2592
     30  O         68.9100   33.1860   40.0970 O.2    43  ILE43      -0.2718
     31  CB        68.5600   30.1030   39.2540 C.3    43  ILE43       0.0266
     32  CG1       69.1450   28.8030   38.7450 C.3    43  ILE43       0.0019
     33  CG2       67.9030   30.8920   38.1280 C.3    43  ILE43       0.0020
     34  CD1       69.8150   28.9160   37.3960 C.3    43  ILE43       0.0001
     35  N         68.0780   31.7360   41.5570 N.am   44  HIS44      -0.1976
     36  CA        67.1750   32.7170   42.1200 C.3    44  HIS44       0.1656
     37  C         68.0610   33.7820   42.7080 C.2    44  HIS44       0.2291
     38  O         67.7920   34.9550   42.5980 O.2    44  HIS44      -0.2864
     39  CB        66.2590   32.1050   43.1810 C.3    44  HIS44       0.0771
     40  CG        64.9730   31.5600   42.6370 C.ar   44  HIS44       0.0820
     41  ND1       64.8780   30.3220   42.0460 N.ar   44  HIS44      -0.2267
     42  CD2       63.7290   32.0880   42.5940 C.ar   44  HIS44       0.1154
     43  CE1       63.6340   30.1120   41.6590 C.ar   44  HIS44       0.1986
     44  NE2       62.9160   31.1690   41.9800 N.ar   44  HIS44      -0.2212
     45  N         69.7290   36.2630   40.0840 N.3    47  TRP47      -0.1241
     46  CA        68.8570   37.3230   39.6610 C.3    47  TRP47       0.1605
     47  C         68.8120   38.3610   40.7440 C.2    47  TRP47       0.2264
     48  O         69.1530   39.5100   40.5280 O.2    47  TRP47      -0.2867
     49  CB        67.4590   36.8160   39.4200 C.3    47  TRP47       0.0550
     50  CG        67.3430   35.9990   38.2230 C.ar   47  TRP47       0.0003
     51  CD1       67.2510   34.6590   38.1700 C.ar   47  TRP47       0.0946
     52  CD2       67.3110   36.4580   36.8790 C.ar   47  TRP47       0.0152
     53  NE1       67.1570   34.2420   36.8750 N.ar   47  TRP47      -0.2442
     54  CE2       67.1900   35.3350   36.0610 C.ar   47  TRP47       0.0810
     55  CE3       67.3770   37.7130   36.2880 C.ar   47  TRP47       0.0012
     56  CZ2       67.1300   35.4200   34.6960 C.ar   47  TRP47       0.0191
     57  CZ3       67.3190   37.7960   34.9350 C.ar   47  TRP47       0.0001
     58  CH2       67.1980   36.6590   34.1490 C.ar   47  TRP47       0.0015
     59  N         62.0230   40.1470   24.5220 N.3    99  GLU99      -0.1231
     60  CA        62.3200   39.4900   25.7770 C.3    99  GLU99       0.1699
     61  C         62.0660   37.9990   25.6960 C.2    99  GLU99       0.2592
     62  O         62.9200   37.1750   26.0170 O.2    99  GLU99      -0.2718
     63  CB        61.4980   40.1190   26.9030 C.3    99  GLU99       0.0402
     64  CG        61.6240   39.4240   28.2470 C.3    99  GLU99       0.1161
     65  CD        61.1320   40.2720   29.3990 C.2    99  GLU99       0.3649
     66  OE1       61.4760   41.4640   29.4500 O.co2  99  GLU99      -0.2457
     67  OE2       60.4130   39.7460   30.2640 O.co2  99  GLU99      -0.2457
     68  N         60.8740   37.6540   25.2540 N.am  100  PHE100     -0.1976
     69  CA        60.5020   36.2600   25.1710 C.3   100  PHE100      0.1639
     70  C         61.4640   35.4990   24.2810 C.2   100  PHE100      0.2290
     71  O         61.9420   34.4350   24.6440 O.2   100  PHE100     -0.2864
     72  CB        59.0680   36.1650   24.6430 C.3   100  PHE100      0.0560
     73  CG        58.7020   34.8280   24.0780 C.ar  100  PHE100     -0.0200
     74  CD1       58.6310   33.7200   24.8820 C.ar  100  PHE100     -0.0042
     75  CD2       58.4070   34.6930   22.7420 C.ar  100  PHE100     -0.0042
     76  CE1       58.2870   32.4920   24.3610 C.ar  100  PHE100     -0.0003
     77  CE2       58.0600   33.4690   22.2150 C.ar  100  PHE100     -0.0003
     78  CZ        58.0030   32.3650   23.0260 C.ar  100  PHE100     -0.0000
     79  N         65.2100   35.6420   25.8290 N.3   103  ILE103     -0.1231
     80  CA        65.3060   34.8930   27.0690 C.3   103  ILE103      0.1692
     81  C         65.1970   33.3990   26.8960 C.2   103  ILE103      0.2591
     82  O         66.0820   32.6520   27.2950 O.2   103  ILE103     -0.2718
     83  CB        64.2010   35.3340   28.0430 C.3   103  ILE103      0.0266
     84  CG1       64.3760   36.8000   28.4040 C.3   103  ILE103      0.0019
     85  CG2       64.2280   34.5120   29.3230 C.3   103  ILE103      0.0020
     86  CD1       65.5650   37.0590   29.2920 C.3   103  ILE103      0.0001
     87  N         64.0820   32.9870   26.3220 N.am  104  ALA104     -0.1980
     88  CA        63.7710   31.5950   26.1350 C.3   104  ALA104      0.1597
     89  C         64.9620   30.8740   25.6060 C.2   104  ALA104      0.2287
     90  O         65.2690   29.7800   26.0390 O.2   104  ALA104     -0.2864
     91  CB        62.6170   31.4510   25.1730 C.3   104  ALA104      0.0319
     92  N         67.8590   30.5070   28.4540 N.3   107  GLU107     -0.1231
     93  CA        67.5660   29.5260   29.4710 C.3   107  GLU107      0.1699
     94  C         67.4320   28.1150   29.0020 C.2   107  GLU107      0.2592
     95  O         67.9210   27.1990   29.6330 O.2   107  GLU107     -0.2718
     96  CB        66.3780   29.9250   30.2820 C.3   107  GLU107      0.0402
     97  CG        66.8330   30.5130   31.5820 C.3   107  GLU107      0.1161
     98  CD        65.6760   30.8980   32.4130 C.2   107  GLU107      0.3649
     99  OE1       64.6940   31.3750   31.8120 O.co2 107  GLU107     -0.2457
    100  OE2       65.7730   30.7310   33.6370 O.co2 107  GLU107     -0.2457
    101  N         66.7780   27.9420   27.8730 N.am  108  HIS108     -0.1976
    102  CA        66.5760   26.6130   27.3660 C.3   108  HIS108      0.1656
    103  C         67.9190   26.0040   27.1330 C.2   108  HIS108      0.2291
    104  O         68.1010   24.8050   27.2600 O.2   108  HIS108     -0.2864
    105  CB        65.7860   26.6110   26.0820 C.3   108  HIS108      0.0771
    106  CG        65.5880   25.2440   25.5320 C.ar  108  HIS108      0.0820
    107  ND1       66.3190   24.7570   24.4760 N.ar  108  HIS108     -0.2267
    108  CD2       64.7780   24.2380   25.9260 C.ar  108  HIS108      0.1154
    109  CE1       65.9460   23.5190   24.2190 C.ar  108  HIS108      0.1986
    110  NE2       65.0130   23.1800   25.0860 N.ar  108  HIS108     -0.2212
    111  N         70.1830   26.2530   28.9750 N.3   110  ARG110     -0.1231
    112  CA        70.5260   25.6340   30.2300 C.3   110  ARG110      0.1694
    113  C         69.9300   24.2490   30.2490 C.2   110  ARG110      0.2592
    114  O         70.5440   23.3080   30.7100 O.2   110  ARG110     -0.2718
    115  CB        69.9650   26.4440   31.3910 C.3   110  ARG110      0.0321
    116  CG        70.7650   27.6840   31.7450 C.3   110  ARG110      0.0489
    117  CD        69.9200   28.6560   32.5350 C.3   110  ARG110      0.2205
    118  NE        69.4310   28.0800   33.7730 N.pl3 110  ARG110     -0.0865
    119  CZ        68.3960   28.5600   34.4450 C.cat 110  ARG110      0.5346
    120  NH1       67.7400   29.6150   33.9910 N.pl3 110  ARG110      0.1354
    121  NH2       68.0140   27.9890   35.5670 N.pl3 110  ARG110      0.1354
    122  N         68.7200   24.1240   29.7250 N.am  111  SER111     -0.1952
    123  CA        68.0350   22.8490   29.7570 C.3   111  SER111      0.1924
    124  C         68.5510   21.9400   28.6830 C.2   111  SER111      0.2314
    125  O         67.8170   21.3910   27.8710 O.2   111  SER111     -0.2863
    126  CB        66.5380   23.0600   29.5690 C.3   111  SER111      0.2116
    127  OG        65.7980   22.0230   30.1790 O.3   111  SER111     -0.2180
@<TRIPOS>BOND
     1    77    75   ar
     2    77    78   ar
     3    75    73   ar
     4    78    76   ar
     5    73    72    1
     6    73    74   ar
     7   109   107   ar
     8   109   110   ar
     9    70    71    2
    10    70    69    1
    11    76    74   ar
    12   107   106   ar
    13    59    60    1
    14    72    69    1
    15   110   108   ar
    16    69    68    1
    17    91    88    1
    18    68    61   am
    19   106   108   ar
    20   106   105    1
    21    89    90    2
    22    89    88    1
    23    61    60    1
    24    61    62    2
    25    60    63    1
    26    79    80    1
    27   105   102    1
    28    88    87    1
    29    87    81   am
    30    81    80    1
    31    81    82    2
    32    63    64    1
    33    80    83    1
    34   103   104    2
    35   103   102    1
    36   102   101    1
    37   125   124    2
    38   101    94   am
    39    83    84    1
    40    83    85    1
    41    64    65    1
    42    84    86    1
    43    92    93    1
    44   124   123    1
    45   111   112    1
    46    94    93    1
    47    94    95    2
    48    65    66   ar
    49    65    67   ar
    50    93    96    1
    51   126   123    1
    52   126   127    1
    53   122   123    1
    54   122   113   am
    55   112   113    1
    56   112   115    1
    57   113   114    2
    58    96    97    1
    59   115   116    1
    60    97    98    1
    61   116   117    1
    62    99    98   ar
    63    98   100   ar
    64   117   118    1
    65   118   119    2
    66   120   119    1
    67    58    56   ar
    68    58    57   ar
    69   119   121    1
    70    56    54   ar
    71    57    55   ar
    72    54    53   ar
    73    54    52   ar
    74    55    52   ar
    75    20    18   ar
    76    53    51   ar
    77    52    50   ar
    78    34    32    1
    79    18    19   ar
    80    18    17    1
    81    11     9    1
    82    33    31    1
    83    51    50   ar
    84    50    49    1
    85    32    31    1
    86    17    16    1
    87     9     8    2
    88     9    10    1
    89     8     7    1
    90    31    28    1
    91    49    46    1
    92    46    45    1
    93    46    47    1
    94    28    29    1
    95    28    27    1
    96    16    13    1
    97    30    29    2
    98     7     6    1
    99     6     5    1
   100    48    47    2
   101    29    35   am
   102    15    14    2
   103    13    14    1
   104    13    12    1
   105    14    21   am
   106     5     2    1
   107    35    36    1
   108    26    25    1
   109     2     3    1
   110     2     1    1
   111    43    44   ar
   112    43    41   ar
   113    21    22    1
   114    22    25    1
   115    22    23    1
   116     4     3    2
   117    44    42   ar
   118    41    40   ar
   119    36    37    1
   120    36    39    1
   121    24    23    2
   122    42    40   ar
   123    38    37    2
   124    40    39    1
