@<TRIPOS>MOLECULE
tmp/4y29A01.pdb
 190 180 0 0 0
SMALL
GASTEIGER

@<TRIPOS>ATOM
      1  N         -0.9050   -3.3880   33.2510 N.3    59  ALA59      -0.1245
      2  CA        -1.1460   -2.9720   31.8470 C.3    59  ALA59       0.1562
      3  C         -0.4260   -1.6540   31.5010 C.2    59  ALA59       0.2260
      4  O          0.1720   -1.4860   30.4090 O.2    59  ALA59      -0.2867
      5  CB        -2.6080   -2.8740   31.5720 C.3    59  ALA59       0.0290
      6  N          3.5050   -1.9090   31.5510 N.3    62  ILE62      -0.1231
      7  CA         3.9030   -2.5380   30.2960 C.3    62  ILE62       0.1692
      8  C          3.7770   -1.5410   29.1290 C.2    62  ILE62       0.2592
      9  O          4.7640   -1.3170   28.4310 O.2    62  ILE62      -0.2718
     10  CB         3.1200   -3.7860   30.0000 C.3    62  ILE62       0.0266
     11  CG1        3.5460   -4.8700   30.9850 C.3    62  ILE62       0.0019
     12  CG2        3.3490   -4.2330   28.5470 C.3    62  ILE62       0.0020
     13  CD1        2.7960   -6.1700   30.8070 C.3    62  ILE62       0.0001
     14  N          2.5780   -0.9760   28.9290 N.am   63  PHE63      -0.1976
     15  CA         2.3850    0.0860   27.9680 C.3    63  PHE63       0.1639
     16  C          3.4780    1.1750   28.0300 C.2    63  PHE63       0.2290
     17  O          4.0090    1.6010   26.9760 O.2    63  PHE63      -0.2864
     18  CB         1.0050    0.6700   28.1170 C.3    63  PHE63       0.0560
     19  CG         0.7390    1.7950   27.1720 C.ar   63  PHE63      -0.0200
     20  CD1        1.1070    3.1000   27.5010 C.ar   63  PHE63      -0.0042
     21  CD2        0.1410    1.5490   25.9290 C.ar   63  PHE63      -0.0042
     22  CE1        0.8940    4.1590   26.6080 C.ar   63  PHE63      -0.0003
     23  CE2       -0.0900    2.6150   25.0390 C.ar   63  PHE63      -0.0003
     24  CZ         0.3010    3.9260   25.3880 C.ar   63  PHE63      -0.0000
     25  N          6.8930   -0.0300   26.5930 N.3    66  CYS66      -0.1235
     26  CA         6.8160    0.0270   25.1280 C.3    66  CYS66       0.1677
     27  C          7.1000    1.3750   24.4950 C.2    66  CYS66       0.2270
     28  O          7.6550    1.4090   23.3900 O.2    66  CYS66      -0.2867
     29  CB         5.4350   -0.3230   24.6690 C.3    66  CYS66       0.0956
     30  SG         4.9190   -1.7280   25.5060 S.3    66  CYS66      -0.0801
     31  N         10.9540    1.7720   24.4520 N.3    69  ARG69      -0.1231
     32  CA        11.4810    0.9960   23.3220 C.3    69  ARG69       0.1694
     33  C         11.0590    1.6320   21.9710 C.2    69  ARG69       0.2592
     34  O         11.8720    1.6680   21.0190 O.2    69  ARG69      -0.2718
     35  CB        11.0370   -0.4880   23.3750 C.3    69  ARG69       0.0321
     36  CG        11.6840   -1.3990   22.3250 C.3    69  ARG69       0.0489
     37  CD        13.1980   -1.1030   22.0200 C.3    69  ARG69       0.2205
     38  NE        13.4550   -1.3300   20.5960 N.pl3  69  ARG69      -0.0865
     39  CZ        14.5390   -0.9430   19.9170 C.cat  69  ARG69       0.5346
     40  NH1       15.5260   -0.2860   20.5140 N.pl3  69  ARG69       0.1354
     41  NH2       14.6500   -1.2450   18.6230 N.pl3  69  ARG69       0.1354
     42  N          9.8290    2.1550   21.8730 N.am   70  SER70      -0.1952
     43  CA         9.4420    2.8070   20.6070 C.3    70  SER70       0.1924
     44  C         10.3400    4.0320   20.3870 C.2    70  SER70       0.2314
     45  O         10.7800    4.2850   19.2430 O.2    70  SER70      -0.2863
     46  CB         7.9780    3.2410   20.6060 C.3    70  SER70       0.2116
     47  OG         7.1930    2.0760   20.7100 O.3    70  SER70      -0.2180
     48  N         13.6490    2.9890   19.0630 N.3    73  ALA73      -0.1245
     49  CA        13.4420    2.5900   17.6500 C.3    73  ALA73       0.1562
     50  C         13.3420    3.8000   16.7420 C.2    73  ALA73       0.2260
     51  O         13.8660    3.7880   15.6420 O.2    73  ALA73      -0.2867
     52  CB        12.1940    1.7940   17.4990 C.3    73  ALA73       0.0290
     53  N          8.4470    0.5850   12.5110 N.3   107  ILE107     -0.1231
     54  CA         8.4750   -0.1240   13.8140 C.3   107  ILE107      0.1692
     55  C          7.7110   -1.4660   13.7530 C.2   107  ILE107      0.2592
     56  O          8.1880   -2.4960   14.2490 O.2   107  ILE107     -0.2718
     57  CB         7.8550    0.7990   14.9190 C.3   107  ILE107      0.0266
     58  CG1        8.8730    1.8480   15.2780 C.3   107  ILE107      0.0019
     59  CG2        7.5080   -0.0460   16.2440 C.3   107  ILE107      0.0020
     60  CD1        8.2580    3.0620   16.1060 C.3   107  ILE107      0.0001
     61  N          6.4960   -1.4390   13.1570 N.am  108  TYR108     -0.1976
     62  CA         5.7020   -2.6790   13.0180 C.3   108  TYR108      0.1639
     63  C          6.3470   -3.7190   12.1020 C.2   108  TYR108      0.2290
     64  O          6.3440   -4.9150   12.3750 O.2   108  TYR108     -0.2864
     65  CB         4.2480   -2.3580   12.6190 C.3   108  TYR108      0.0560
     66  CG         3.6280   -1.4990   13.7140 C.ar  108  TYR108     -0.0198
     67  CD1        4.0620   -1.6540   15.0290 C.ar  108  TYR108     -0.0009
     68  CD2        2.6770   -0.5100   13.4340 C.ar  108  TYR108     -0.0009
     69  CE1        3.5460   -0.8390   16.0900 C.ar  108  TYR108      0.0417
     70  CE2        2.1360    0.2900   14.4650 C.ar  108  TYR108      0.0417
     71  CZ         2.5930    0.1140   15.7850 C.ar  108  TYR108      0.1957
     72  OH         2.1150    0.8500   16.8530 O.3   108  TYR108     -0.2866
     73  N          9.3080   -5.0080   14.2120 N.3   111  LEU111     -0.1245
     74  CA         8.7300   -5.8430   15.3250 C.3   111  LEU111      0.1561
     75  C          8.3750   -7.2510   14.8890 C.2   111  LEU111      0.2260
     76  O          8.5000   -8.1700   15.6850 O.2   111  LEU111     -0.2867
     77  CB         7.4640   -5.1970   15.8530 C.3   111  LEU111      0.0270
     78  CG         6.8360   -5.7210   17.1610 C.3   111  LEU111      0.0019
     79  CD1        7.8490   -5.7600   18.2280 C.3   111  LEU111      0.0001
     80  CD2        5.7410   -4.7840   17.5870 C.3   111  LEU111      0.0001
     81  N         11.0510   -9.7940   15.5540 N.3   114  LEU114     -0.1245
     82  CA        11.1770  -10.2140   16.9670 C.3   114  LEU114      0.1561
     83  C          9.9880  -11.1110   17.4590 C.2   114  LEU114      0.2260
     84  O          9.8840  -11.4340   18.6510 O.2   114  LEU114     -0.2867
     85  CB        11.1980   -8.9600   17.8200 C.3   114  LEU114      0.0270
     86  CG        12.2570   -7.8900   17.5840 C.3   114  LEU114      0.0019
     87  CD1       12.2020   -6.7830   18.6950 C.3   114  LEU114      0.0001
     88  CD2       13.5400   -8.4530   17.5010 C.3   114  LEU114      0.0001
     89  N          6.7930  -12.3170   21.7690 N.3   120  VAL120     -0.1231
     90  CA         7.6660  -11.2310   21.2490 C.3   120  VAL120      0.1692
     91  C          8.9100  -11.0450   22.1060 C.2   120  VAL120      0.2592
     92  O          8.8290  -11.0260   23.3630 O.2   120  VAL120     -0.2718
     93  CB         6.8640   -9.8950   21.1130 C.3   120  VAL120      0.0266
     94  CG1        6.3010   -9.3880   22.5110 C.3   120  VAL120      0.0020
     95  CG2        7.7300   -8.7940   20.4300 C.3   120  VAL120      0.0020
     96  N         10.0810  -10.9680   21.4640 N.am  121  LEU121     -0.1966
     97  CA        11.3280  -10.6130   22.1670 C.3   121  LEU121      0.1728
     98  C         11.2910   -9.1780   22.5830 C.2   121  LEU121      0.2616
     99  O         10.9530   -8.2920   21.7690 O.2   121  LEU121     -0.2715
    100  CB        12.5640  -10.7580   21.2780 C.3   121  LEU121      0.0311
    101  CG        12.9750  -12.1720   20.9550 C.3   121  LEU121      0.0022
    102  CD1       14.1870  -12.0870   20.0090 C.3   121  LEU121      0.0001
    103  CD2       13.3510  -12.8960   22.2960 C.3   121  LEU121      0.0001
    104  N         11.6370   -8.9400   23.8290 N.am  122  ILE122     -0.1963
    105  CA        11.7720   -7.5900   24.3510 C.3   122  ILE122      0.1727
    106  C         13.1630   -7.3630   25.0350 C.2   122  ILE122      0.2617
    107  O         13.9330   -8.3020   25.2200 O.2   122  ILE122     -0.2715
    108  CB        10.6680   -7.2760   25.3730 C.3   122  ILE122      0.0290
    109  CG1       10.8380   -8.1530   26.6290 C.3   122  ILE122      0.0022
    110  CG2        9.2290   -7.2970   24.7210 C.3   122  ILE122      0.0023
    111  CD1        9.9070   -7.8100   27.7440 C.3   122  ILE122      0.0001
    112  N         13.4480   -6.1220   25.4070 N.am  123  SER123     -0.1936
    113  CA        14.7070   -5.6890   26.0690 C.3   123  SER123      0.2055
    114  C         15.8870   -6.1800   25.3110 C.2   123  SER123      0.2642
    115  O         16.6960   -6.9480   25.8170 O.2   123  SER123     -0.2714
    116  CB        14.8050   -6.1530   27.5300 C.3   123  SER123      0.2130
    117  OG        13.6090   -5.8140   28.2120 O.3   123  SER123     -0.2179
    118  N         15.9490   -5.7870   24.0440 N.am  124  GLU124     -0.1976
    119  CA        17.0960   -6.1440   23.1980 C.3   124  GLU124      0.1602
    120  C         17.3650   -7.6620   23.2260 C.2   124  GLU124      0.2287
    121  O         18.5100   -8.1050   23.3320 O.2   124  GLU124     -0.2864
    122  CB        18.3410   -5.2810   23.5860 C.3   124  GLU124      0.0415
    123  CG        18.1860   -3.7430   23.2210 C.3   124  GLU124      0.1163
    124  CD        18.3020   -3.4450   21.6760 C.2   124  GLU124      0.3649
    125  OE1       17.3130   -3.6350   20.8960 O.co2 124  GLU124     -0.2457
    126  OE2       19.4010   -3.0050   21.2500 O.co2 124  GLU124     -0.2457
    127  N          7.9810  -12.0000   25.8550 N.3   129  MET129     -0.1245
    128  CA         6.6350  -11.8630   26.4300 C.3   129  MET129      0.1570
    129  C          5.6920  -12.7020   25.6280 C.2   129  MET129      0.2261
    130  O          5.6210  -12.5260   24.4290 O.2   129  MET129     -0.2867
    131  CB         6.1930  -10.3850   26.3910 C.3   129  MET129      0.0387
    132  CG         5.0040  -10.0810   27.2600 C.3   129  MET129      0.0595
    133  SD         4.8100   -8.3390   27.7420 S.3   129  MET129     -0.1393
    134  CE         6.4270   -7.7920   28.1620 C.3   129  MET129      0.0692
    135  N         -0.0570  -11.1180   26.9150 N.3   134  LEU134     -0.1245
    136  CA        -0.4340   -9.8090   26.4470 C.3   134  LEU134      0.1561
    137  C         -1.9540   -9.6650   26.1340 C.2   134  LEU134      0.2260
    138  O         -2.5400   -8.5970   26.2800 O.2   134  LEU134     -0.2867
    139  CB         0.4030   -9.4070   25.2170 C.3   134  LEU134      0.0270
    140  CG         1.8390   -9.0080   25.5090 C.3   134  LEU134      0.0019
    141  CD1        2.5750   -9.1790   24.1710 C.3   134  LEU134      0.0001
    142  CD2        1.9760   -7.5600   26.0500 C.3   134  LEU134      0.0001
    143  N         -4.2560   -8.9750   29.3700 N.3   137  LEU137     -0.1245
    144  CA        -4.3400   -7.6450   29.9680 C.3   137  LEU137      0.1561
    145  C         -5.7310   -6.9850   29.8070 C.2   137  LEU137      0.2260
    146  O         -6.4260   -7.1620   28.7960 O.2   137  LEU137     -0.2867
    147  CB        -3.2730   -6.7200   29.3810 C.3   137  LEU137      0.0270
    148  CG        -1.8200   -7.1490   29.5230 C.3   137  LEU137      0.0019
    149  CD1       -0.9630   -6.0440   28.9120 C.3   137  LEU137      0.0001
    150  CD2       -1.4130   -7.3890   30.9670 C.3   137  LEU137      0.0001
    151  N         -6.1980   -2.7020   26.7820 N.3   141  PHE141     -0.1241
    152  CA        -4.7630   -3.0080   26.6870 C.3   141  PHE141      0.1605
    153  C         -4.5160   -4.3730   26.0860 C.2   141  PHE141      0.2264
    154  O         -3.5460   -4.5430   25.3520 O.2   141  PHE141     -0.2867
    155  CB        -4.0480   -2.8500   28.0230 C.3   141  PHE141      0.0534
    156  CG        -3.9630   -1.4420   28.4790 C.ar  141  PHE141     -0.0203
    157  CD1       -3.0940   -0.5460   27.8500 C.ar  141  PHE141     -0.0042
    158  CD2       -4.7610   -1.0040   29.5260 C.ar  141  PHE141     -0.0042
    159  CE1       -3.0180    0.7610   28.2610 C.ar  141  PHE141     -0.0003
    160  CE2       -4.6860    0.3000   29.9590 C.ar  141  PHE141     -0.0003
    161  CZ        -3.8080    1.1950   29.3320 C.ar  141  PHE141     -0.0000
    162  N         -3.9240   -4.0990   21.9900 N.3   144  PHE144     -0.1227
    163  CA        -2.9030   -3.3660   21.2620 C.3   144  PHE144      0.1736
    164  C         -2.0820   -4.2530   20.3770 C.2   144  PHE144      0.2595
    165  O         -1.8550   -3.9060   19.2200 O.2   144  PHE144     -0.2718
    166  CB        -1.9630   -2.6030   22.1810 C.3   144  PHE144      0.0547
    167  CG        -2.3630   -1.2240   22.3520 C.ar  144  PHE144     -0.0202
    168  CD1       -2.0130   -0.2820   21.4010 C.ar  144  PHE144     -0.0042
    169  CD2       -3.1500   -0.8620   23.4280 C.ar  144  PHE144     -0.0042
    170  CE1       -2.4140    1.0290   21.5360 C.ar  144  PHE144     -0.0003
    171  CE2       -3.5670    0.4600   23.5700 C.ar  144  PHE144     -0.0003
    172  CZ        -3.1910    1.4010   22.6190 C.ar  144  PHE144     -0.0000
    173  N         -1.6350   -5.3910   20.9160 N.am  145  MET145     -0.1979
    174  CA        -0.5680   -6.1800   20.2720 C.3   145  MET145      0.1605
    175  C         -1.1010   -7.2390   19.2790 C.2   145  MET145      0.2287
    176  O         -0.5020   -7.4710   18.2340 O.2   145  MET145     -0.2864
    177  CB         0.3600   -6.7990   21.3190 C.3   145  MET145      0.0413
    178  CG         1.2970   -5.7830   21.9430 C.3   145  MET145      0.0598
    179  SD         2.3110   -4.9490   20.6660 S.3   145  MET145     -0.1393
    180  CE         3.4350   -6.2050   20.2070 C.3   145  MET145      0.0692
    181  N         -4.0380    1.2910   15.2010 N.3   230  HIS230     -0.1241
    182  CA        -3.2360    1.6060   16.3740 C.3   230  HIS230      0.1621
    183  C         -3.4620    3.0430   16.9210 C.2   230  HIS230      0.2264
    184  O         -3.6630    3.2410   18.1190 O.2   230  HIS230     -0.2867
    185  CB        -1.7650    1.4790   15.9970 C.3   230  HIS230      0.0745
    186  CG        -0.8550    1.7160   17.1380 C.ar  230  HIS230      0.0817
    187  ND1       -0.5980    0.7490   18.0900 N.ar  230  HIS230     -0.2268
    188  CD2       -0.1820    2.8240   17.5230 C.ar  230  HIS230      0.1154
    189  CE1        0.2110    1.2450   19.0060 C.ar  230  HIS230      0.1986
    190  NE2        0.4880    2.4990   18.6800 N.ar  230  HIS230     -0.2212
@<TRIPOS>BOND
     1    63    64    2
     2    63    62    1
     3    53    54    1
     4    65    62    1
     5    65    66    1
     6    62    61    1
     7    61    55   am
     8    68    66   ar
     9    68    70   ar
    10    66    67   ar
    11    55    54    1
    12    55    56    2
    13    54    57    1
    14    73    74    1
    15    70    71   ar
    16    75    74    1
    17    75    76    2
    18    57    58    1
    19    57    59    1
    20    67    69   ar
    21   181   182    1
    22    58    60    1
    23    74    77    1
    24    81    82    1
    25    51    50    2
    26    71    69   ar
    27    71    72    1
    28    77    78    1
    29   185   182    1
    30   185   186    1
    31   182   183    1
    32    50    49    1
    33   183   184    2
    34    82    83    1
    35    82    85    1
    36   186   188   ar
    37   186   187   ar
    38    78    80    1
    39    78    79    1
    40    83    84    2
    41    52    49    1
    42    88    86    1
    43   188   190   ar
    44    86    85    1
    45    86    87    1
    46    49    48    1
    47   187   189   ar
    48   176   175    2
    49    41    39    1
    50   190   189   ar
    51   165   164    2
    52    45    44    2
    53   175   174    1
    54    39    40    1
    55    39    38    2
    56   102   101    1
    57   180   179    1
    58   174   173    1
    59   174   177    1
    60   164   173   am
    61   164   163    1
    62    44    43    1
    63    95    93    1
    64    38    37    1
    65    46    43    1
    66    46    47    1
    67    43    42    1
    68   179   178    1
    69   125   124   ar
    70   101   100    1
    71   101   103    1
    72    34    33    2
    73    93    90    1
    74    93    94    1
    75    90    89    1
    76    90    91    1
    77   126   124   ar
    78   163   162    1
    79   163   166    1
    80   100    97    1
    81   177   178    1
    82   168   170   ar
    83   168   167   ar
    84    96    91   am
    85    96    97    1
    86   170   172   ar
    87   124   123    1
    88    99    98    2
    89    42    33   am
    90    33    32    1
    91    37    36    1
    92    91    92    2
    93    97    98    1
    94   166   167    1
    95    36    35    1
    96   167   169   ar
    97    98   104   am
    98   172   171   ar
    99   119   120    1
   100   119   122    1
   101   119   118    1
   102   123   122    1
   103   120   121    2
   104    32    35    1
   105    32    31    1
   106    28    27    2
   107   169   171   ar
   108   104   105    1
   109   118   114   am
   110   141   140    1
   111   105   106    1
   112   105   108    1
   113   130   129    2
   114    27    26    1
   115    29    26    1
   116    29    30    1
   117   110   108    1
   118   106   107    2
   119   106   112   am
   120    23    24   ar
   121    23    21   ar
   122    26    25    1
   123   139   140    1
   124   139   136    1
   125   114   115    2
   126   114   113    1
   127   154   153    2
   128   108   109    1
   129    24    22   ar
   130   112   113    1
   131   140   142    1
   132   129   128    1
   133   127   128    1
   134    21    19   ar
   135   113   116    1
   136   153   152    1
   137   137   138    2
   138   137   136    1
   139   131   128    1
   140   131   132    1
   141   136   135    1
   142    22    20   ar
   143   109   111    1
   144   152   151    1
   145   152   155    1
   146    17    16    2
   147    19    20   ar
   148    19    18    1
   149   132   133    1
   150   116   117    1
   151   133   134    1
   152   157   159   ar
   153   157   156   ar
   154    15    16    1
   155    15    18    1
   156    15    14    1
   157   155   156    1
   158   159   161   ar
   159     9     8    2
   160   156   158   ar
   161    12    10    1
   162   146   145    2
   163   149   148    1
   164    14     8   am
   165     8     7    1
   166   161   160   ar
   167   143   144    1
   168   147   148    1
   169   147   144    1
   170   148   150    1
   171   158   160   ar
   172   145   144    1
   173    10     7    1
   174    10    11    1
   175     7     6    1
   176     4     3    2
   177    13    11    1
   178     3     2    1
   179     5     2    1
   180     2     1    1
